MODEL 1
REMARK VINA RESULT:     -10.0      0.000      0.000
REMARK  8 active torsions:
REMARK  status: ('A' for Active; 'I' for Inactive)
REMARK    1  A    between atoms: N_4  and  C_5 
REMARK    2  A    between atoms: C_5  and  C_6 
REMARK    3  A    between atoms: C_11  and  C_12 
REMARK    4  A    between atoms: C_12  and  C_13 
REMARK       I    between atoms: C_13  and  N_14 
REMARK    5  A    between atoms: N_14  and  N_15 
REMARK       I    between atoms: N_15  and  C_16 
REMARK    6  A    between atoms: C_16  and  C_17 
REMARK    7  A    between atoms: C_21  and  C_22 
REMARK    8  A    between atoms: C_25  and  O_26 
ROOT
HETATM    1  N   UNL     1       7.259  29.344  56.482  1.00  0.00    -0.262 N 
HETATM    2  C   UNL     1       8.461  29.461  57.145  1.00  0.00     0.288 C 
HETATM    3  O   UNL     1       9.440  28.784  56.834  1.00  0.00    -0.264 OA
HETATM    4  H   UNL     1       6.424  29.875  56.713  1.00  0.00     0.190 HD
ENDROOT
BRANCH   1   5
HETATM    5  N   UNL     1       7.129  28.379  55.481  1.00  0.00    -0.267 N 
HETATM    6  C   UNL     1       5.866  27.939  55.147  1.00  0.00     0.240 C 
HETATM    7  O   UNL     1       4.848  28.396  55.673  1.00  0.00    -0.272 OA
HETATM    8  H   UNL     1       7.988  28.039  55.052  1.00  0.00     0.190 HD
BRANCH   6   9
HETATM    9  C   UNL     1       5.842  26.821  54.124  1.00  0.00     0.147 C 
BRANCH   9  10
HETATM   10  C   UNL     1       6.538  25.592  54.605  1.00  0.00     0.001 A 
HETATM   11  C   UNL     1       6.364  24.919  55.844  1.00  0.00     0.059 A 
HETATM   12  C   UNL     1       5.481  25.274  56.984  1.00  0.00     0.073 C 
HETATM   13  N   UNL     1       7.131  23.832  55.927  1.00  0.00    -0.177 NA
HETATM   14  N   UNL     1       7.764  23.768  54.742  1.00  0.00    -0.273 N 
HETATM   15  C   UNL     1       7.476  24.832  53.922  1.00  0.00     0.035 A 
HETATM   16  C   UNL     1       8.063  25.030  52.570  1.00  0.00     0.070 C 
BRANCH  14  17
HETATM   17  C   UNL     1       8.617  22.620  54.485  1.00  0.00     0.155 C 
BRANCH  17  18
HETATM   18  C   UNL     1       7.832  21.322  54.222  1.00  0.00    -0.003 C 
HETATM   19  C   UNL     1       8.335  20.590  52.976  1.00  0.00     0.011 C 
HETATM   20  C   UNL     1       7.930  20.400  55.439  1.00  0.00     0.011 C 
ENDBRANCH  17  18
ENDBRANCH  14  17
ENDBRANCH   9  10
ENDBRANCH   6   9
ENDBRANCH   1   5
BRANCH   2  21
HETATM   21  C   UNL     1       8.486  30.413  58.219  1.00  0.00     0.121 A 
HETATM   22  N   UNL     1       9.479  31.344  58.333  1.00  0.00    -0.272 N 
HETATM   23  H   UNL     1      10.269  31.472  57.708  1.00  0.00     0.189 HD
HETATM   24  N   UNL     1       9.357  32.151  59.396  1.00  0.00    -0.174 NA
HETATM   25  C   UNL     1       8.244  31.733  60.020  1.00  0.00     0.089 A 
HETATM   26  C   UNL     1       7.664  30.647  59.303  1.00  0.00     0.071 A 
BRANCH  25  27
HETATM   27  C   UNL     1       7.769  32.366  61.257  1.00  0.00    -0.005 A 
HETATM   28  C   UNL     1       6.644  33.203  61.242  1.00  0.00     0.016 A 
HETATM   29  C   UNL     1       6.182  33.803  62.417  1.00  0.00     0.037 A 
HETATM   30  C   UNL     1       6.831  33.583  63.632  1.00  0.00     0.068 A 
HETATM   31  C   UNL     1       7.956  32.761  63.658  1.00  0.00     0.037 A 
HETATM   32  C   UNL     1       8.420  32.158  62.480  1.00  0.00     0.016 A 
BRANCH  30  33
HETATM   33  O   UNL     1       6.276  34.225  64.703  1.00  0.00    -0.356 OA
HETATM   34  C   UNL     1       5.165  33.593  65.325  1.00  0.00     0.210 C 
ENDBRANCH  30  33
ENDBRANCH  25  27
ENDBRANCH   2  21
TORSDOF 8
ENDMDL
MODEL 2
REMARK VINA RESULT:      -9.8      1.731      2.434
REMARK  8 active torsions:
REMARK  status: ('A' for Active; 'I' for Inactive)
REMARK    1  A    between atoms: N_4  and  C_5 
REMARK    2  A    between atoms: C_5  and  C_6 
REMARK    3  A    between atoms: C_11  and  C_12 
REMARK    4  A    between atoms: C_12  and  C_13 
REMARK       I    between atoms: C_13  and  N_14 
REMARK    5  A    between atoms: N_14  and  N_15 
REMARK       I    between atoms: N_15  and  C_16 
REMARK    6  A    between atoms: C_16  and  C_17 
REMARK    7  A    between atoms: C_21  and  C_22 
REMARK    8  A    between atoms: C_25  and  O_26 
ROOT
HETATM    1  N   UNL     1       7.754  29.431  58.586  1.00  0.00    -0.262 N 
HETATM    2  C   UNL     1       8.539  30.446  59.089  1.00  0.00     0.288 C 
HETATM    3  O   UNL     1       9.438  30.959  58.425  1.00  0.00    -0.264 OA
HETATM    4  H   UNL     1       7.009  28.974  59.104  1.00  0.00     0.190 HD
ENDROOT
BRANCH   1   5
HETATM    5  N   UNL     1       8.037  28.924  57.316  1.00  0.00    -0.267 N 
HETATM    6  C   UNL     1       7.185  27.983  56.776  1.00  0.00     0.240 C 
HETATM    7  O   UNL     1       6.166  27.606  57.358  1.00  0.00    -0.272 OA
HETATM    8  H   UNL     1       8.874  29.273  56.854  1.00  0.00     0.190 HD
BRANCH   6   9
HETATM    9  C   UNL     1       7.636  27.424  55.442  1.00  0.00     0.147 C 
BRANCH   9  10
HETATM   10  C   UNL     1       7.243  25.997  55.258  1.00  0.00     0.001 A 
HETATM   11  C   UNL     1       6.286  25.465  54.353  1.00  0.00     0.059 A 
HETATM   12  C   UNL     1       5.415  26.182  53.387  1.00  0.00     0.073 C 
HETATM   13  N   UNL     1       6.211  24.136  54.438  1.00  0.00    -0.177 NA
HETATM   14  N   UNL     1       7.137  23.799  55.353  1.00  0.00    -0.273 N 
HETATM   15  C   UNL     1       7.759  24.888  55.914  1.00  0.00     0.035 A 
HETATM   16  C   UNL     1       8.798  24.805  56.974  1.00  0.00     0.070 C 
BRANCH  14  17
HETATM   17  C   UNL     1       7.365  22.386  55.604  1.00  0.00     0.155 C 
BRANCH  17  18
HETATM   18  C   UNL     1       8.523  21.797  54.777  1.00  0.00    -0.003 C 
HETATM   19  C   UNL     1       9.342  20.784  55.578  1.00  0.00     0.011 C 
HETATM   20  C   UNL     1       7.973  21.135  53.512  1.00  0.00     0.011 C 
ENDBRANCH  17  18
ENDBRANCH  14  17
ENDBRANCH   9  10
ENDBRANCH   6   9
ENDBRANCH   1   5
BRANCH   2  21
HETATM   21  C   UNL     1       8.241  30.851  60.435  1.00  0.00     0.121 A 
HETATM   22  N   UNL     1       8.806  30.233  61.514  1.00  0.00    -0.272 N 
HETATM   23  H   UNL     1       9.468  29.464  61.498  1.00  0.00     0.189 HD
HETATM   24  N   UNL     1       8.416  30.728  62.696  1.00  0.00    -0.174 NA
HETATM   25  C   UNL     1       7.549  31.706  62.392  1.00  0.00     0.089 A 
HETATM   26  C   UNL     1       7.420  31.819  60.977  1.00  0.00     0.071 A 
BRANCH  25  27
HETATM   27  C   UNL     1       6.878  32.495  63.433  1.00  0.00    -0.005 A 
HETATM   28  C   UNL     1       5.481  32.618  63.444  1.00  0.00     0.016 A 
HETATM   29  C   UNL     1       4.835  33.362  64.436  1.00  0.00     0.037 A 
HETATM   30  C   UNL     1       5.566  33.999  65.438  1.00  0.00     0.068 A 
HETATM   31  C   UNL     1       6.956  33.893  65.433  1.00  0.00     0.037 A 
HETATM   32  C   UNL     1       7.605  33.147  64.438  1.00  0.00     0.016 A 
BRANCH  30  33
HETATM   33  O   UNL     1       4.814  34.688  66.348  1.00  0.00    -0.356 OA
HETATM   34  C   UNL     1       4.725  34.139  67.656  1.00  0.00     0.210 C 
ENDBRANCH  30  33
ENDBRANCH  25  27
ENDBRANCH   2  21
TORSDOF 8
ENDMDL
MODEL 3
REMARK VINA RESULT:      -9.3      2.640     11.371
REMARK  8 active torsions:
REMARK  status: ('A' for Active; 'I' for Inactive)
REMARK    1  A    between atoms: N_4  and  C_5 
REMARK    2  A    between atoms: C_5  and  C_6 
REMARK    3  A    between atoms: C_11  and  C_12 
REMARK    4  A    between atoms: C_12  and  C_13 
REMARK       I    between atoms: C_13  and  N_14 
REMARK    5  A    between atoms: N_14  and  N_15 
REMARK       I    between atoms: N_15  and  C_16 
REMARK    6  A    between atoms: C_16  and  C_17 
REMARK    7  A    between atoms: C_21  and  C_22 
REMARK    8  A    between atoms: C_25  and  O_26 
ROOT
HETATM    1  N   UNL     1       7.494  29.378  58.300  1.00  0.00    -0.262 N 
HETATM    2  C   UNL     1       6.807  29.074  57.145  1.00  0.00     0.288 C 
HETATM    3  O   UNL     1       6.316  29.950  56.434  1.00  0.00    -0.264 OA
HETATM    4  H   UNL     1       7.906  28.686  58.920  1.00  0.00     0.190 HD
ENDROOT
BRANCH   1   5
HETATM    5  N   UNL     1       7.571  30.710  58.711  1.00  0.00    -0.267 N 
HETATM    6  C   UNL     1       8.231  31.002  59.886  1.00  0.00     0.240 C 
HETATM    7  O   UNL     1       8.787  30.134  60.563  1.00  0.00    -0.272 OA
HETATM    8  H   UNL     1       7.120  31.404  58.117  1.00  0.00     0.190 HD
BRANCH   6   9
HETATM    9  C   UNL     1       8.168  32.460  60.293  1.00  0.00     0.147 C 
BRANCH   9  10
HETATM   10  C   UNL     1       6.999  32.759  61.171  1.00  0.00     0.001 A 
HETATM   11  C   UNL     1       5.665  33.050  60.778  1.00  0.00     0.059 A 
HETATM   12  C   UNL     1       5.097  33.162  59.411  1.00  0.00     0.073 C 
HETATM   13  N   UNL     1       4.871  33.239  61.832  1.00  0.00    -0.177 NA
HETATM   14  N   UNL     1       5.663  33.031  62.899  1.00  0.00    -0.273 N 
HETATM   15  C   UNL     1       6.970  32.782  62.558  1.00  0.00     0.035 A 
HETATM   16  C   UNL     1       8.062  32.550  63.539  1.00  0.00     0.070 C 
BRANCH  14  17
HETATM   17  C   UNL     1       5.054  33.073  64.219  1.00  0.00     0.155 C 
BRANCH  17  18
HETATM   18  C   UNL     1       5.263  34.413  64.946  1.00  0.00    -0.003 C 
HETATM   19  C   UNL     1       3.939  35.136  65.206  1.00  0.00     0.011 C 
HETATM   20  C   UNL     1       5.994  34.178  66.269  1.00  0.00     0.011 C 
ENDBRANCH  17  18
ENDBRANCH  14  17
ENDBRANCH   9  10
ENDBRANCH   6   9
ENDBRANCH   1   5
BRANCH   2  21
HETATM   21  C   UNL     1       6.698  27.675  56.839  1.00  0.00     0.121 A 
HETATM   22  N   UNL     1       5.553  26.971  57.085  1.00  0.00    -0.272 N 
HETATM   23  H   UNL     1       4.691  27.330  57.485  1.00  0.00     0.189 HD
HETATM   24  N   UNL     1       5.620  25.677  56.747  1.00  0.00    -0.174 NA
HETATM   25  C   UNL     1       6.863  25.510  56.267  1.00  0.00     0.089 A 
HETATM   26  C   UNL     1       7.568  26.748  56.301  1.00  0.00     0.071 A 
BRANCH  25  27
HETATM   27  C   UNL     1       7.340  24.203  55.797  1.00  0.00    -0.005 A 
HETATM   28  C   UNL     1       7.097  23.788  54.480  1.00  0.00     0.016 A 
HETATM   29  C   UNL     1       7.553  22.548  54.024  1.00  0.00     0.037 A 
HETATM   30  C   UNL     1       8.262  21.694  54.870  1.00  0.00     0.068 A 
HETATM   31  C   UNL     1       8.502  22.091  56.184  1.00  0.00     0.037 A 
HETATM   32  C   UNL     1       8.045  23.335  56.643  1.00  0.00     0.016 A 
BRANCH  30  33
HETATM   33  O   UNL     1       8.654  20.516  54.299  1.00  0.00    -0.356 OA
HETATM   34  C   UNL     1       8.436  20.376  52.901  1.00  0.00     0.210 C 
ENDBRANCH  30  33
ENDBRANCH  25  27
ENDBRANCH   2  21
TORSDOF 8
ENDMDL
MODEL 4
REMARK VINA RESULT:      -9.3      2.427     11.117
REMARK  8 active torsions:
REMARK  status: ('A' for Active; 'I' for Inactive)
REMARK    1  A    between atoms: N_4  and  C_5 
REMARK    2  A    between atoms: C_5  and  C_6 
REMARK    3  A    between atoms: C_11  and  C_12 
REMARK    4  A    between atoms: C_12  and  C_13 
REMARK       I    between atoms: C_13  and  N_14 
REMARK    5  A    between atoms: N_14  and  N_15 
REMARK       I    between atoms: N_15  and  C_16 
REMARK    6  A    between atoms: C_16  and  C_17 
REMARK    7  A    between atoms: C_21  and  C_22 
REMARK    8  A    between atoms: C_25  and  O_26 
ROOT
HETATM    1  N   UNL     1       7.026  28.915  57.670  1.00  0.00    -0.262 N 
HETATM    2  C   UNL     1       6.408  28.841  56.440  1.00  0.00     0.288 C 
HETATM    3  O   UNL     1       5.965  29.841  55.877  1.00  0.00    -0.264 OA
HETATM    4  H   UNL     1       7.395  28.114  58.173  1.00  0.00     0.190 HD
ENDROOT
BRANCH   1   5
HETATM    5  N   UNL     1       7.084  30.147  58.325  1.00  0.00    -0.267 N 
HETATM    6  C   UNL     1       8.320  30.695  58.594  1.00  0.00     0.240 C 
HETATM    7  O   UNL     1       9.371  30.154  58.242  1.00  0.00    -0.272 OA
HETATM    8  H   UNL     1       6.197  30.577  58.581  1.00  0.00     0.190 HD
BRANCH   6   9
HETATM    9  C   UNL     1       8.274  31.979  59.396  1.00  0.00     0.147 C 
BRANCH   9  10
HETATM   10  C   UNL     1       7.677  31.788  60.749  1.00  0.00     0.001 A 
HETATM   11  C   UNL     1       8.216  31.063  61.846  1.00  0.00     0.059 A 
HETATM   12  C   UNL     1       9.482  30.291  61.924  1.00  0.00     0.073 C 
HETATM   13  N   UNL     1       7.423  31.127  62.917  1.00  0.00    -0.177 NA
HETATM   14  N   UNL     1       6.403  31.918  62.541  1.00  0.00    -0.273 N 
HETATM   15  C   UNL     1       6.483  32.309  61.226  1.00  0.00     0.035 A 
HETATM   16  C   UNL     1       5.472  33.158  60.542  1.00  0.00     0.070 C 
BRANCH  14  17
HETATM   17  C   UNL     1       5.402  32.261  63.538  1.00  0.00     0.155 C 
BRANCH  17  18
HETATM   18  C   UNL     1       5.672  33.605  64.238  1.00  0.00    -0.003 C 
HETATM   19  C   UNL     1       4.640  33.899  65.329  1.00  0.00     0.011 C 
HETATM   20  C   UNL     1       7.078  33.603  64.841  1.00  0.00     0.011 C 
ENDBRANCH  17  18
ENDBRANCH  14  17
ENDBRANCH   9  10
ENDBRANCH   6   9
ENDBRANCH   1   5
BRANCH   2  21
HETATM   21  C   UNL     1       6.311  27.525  55.874  1.00  0.00     0.121 A 
HETATM   22  N   UNL     1       5.131  27.034  55.392  1.00  0.00    -0.272 N 
HETATM   23  H   UNL     1       4.235  27.512  55.371  1.00  0.00     0.189 HD
HETATM   24  N   UNL     1       5.211  25.789  54.905  1.00  0.00    -0.174 NA
HETATM   25  C   UNL     1       6.494  25.433  55.080  1.00  0.00     0.089 A 
HETATM   26  C   UNL     1       7.218  26.503  55.679  1.00  0.00     0.071 A 
BRANCH  25  27
HETATM   27  C   UNL     1       6.989  24.109  54.680  1.00  0.00    -0.005 A 
HETATM   28  C   UNL     1       7.227  23.118  55.643  1.00  0.00     0.016 A 
HETATM   29  C   UNL     1       7.692  21.853  55.269  1.00  0.00     0.037 A 
HETATM   30  C   UNL     1       7.930  21.549  53.928  1.00  0.00     0.068 A 
HETATM   31  C   UNL     1       7.707  22.529  52.963  1.00  0.00     0.037 A 
HETATM   32  C   UNL     1       7.241  23.798  53.337  1.00  0.00     0.016 A 
BRANCH  30  33
HETATM   33  O   UNL     1       8.378  20.279  53.699  1.00  0.00    -0.356 OA
HETATM   34  C   UNL     1       9.013  19.616  54.784  1.00  0.00     0.210 C 
ENDBRANCH  30  33
ENDBRANCH  25  27
ENDBRANCH   2  21
TORSDOF 8
ENDMDL
MODEL 5
REMARK VINA RESULT:      -9.2      2.927     11.222
REMARK  8 active torsions:
REMARK  status: ('A' for Active; 'I' for Inactive)
REMARK    1  A    between atoms: N_4  and  C_5 
REMARK    2  A    between atoms: C_5  and  C_6 
REMARK    3  A    between atoms: C_11  and  C_12 
REMARK    4  A    between atoms: C_12  and  C_13 
REMARK       I    between atoms: C_13  and  N_14 
REMARK    5  A    between atoms: N_14  and  N_15 
REMARK       I    between atoms: N_15  and  C_16 
REMARK    6  A    between atoms: C_16  and  C_17 
REMARK    7  A    between atoms: C_21  and  C_22 
REMARK    8  A    between atoms: C_25  and  O_26 
ROOT
HETATM    1  N   UNL     1       5.047  29.494  57.954  1.00  0.00    -0.262 N 
HETATM    2  C   UNL     1       4.676  29.007  56.720  1.00  0.00     0.288 C 
HETATM    3  O   UNL     1       4.048  29.694  55.915  1.00  0.00    -0.264 OA
HETATM    4  H   UNL     1       5.556  28.958  58.651  1.00  0.00     0.190 HD
ENDROOT
BRANCH   1   5
HETATM    5  N   UNL     1       4.635  30.775  58.328  1.00  0.00    -0.267 N 
HETATM    6  C   UNL     1       5.541  31.811  58.244  1.00  0.00     0.240 C 
HETATM    7  O   UNL     1       6.686  31.652  57.814  1.00  0.00    -0.272 OA
HETATM    8  H   UNL     1       3.677  30.876  58.657  1.00  0.00     0.190 HD
BRANCH   6   9
HETATM    9  C   UNL     1       5.027  33.136  58.768  1.00  0.00     0.147 C 
BRANCH   9  10
HETATM   10  C   UNL     1       4.812  33.123  60.244  1.00  0.00     0.001 A 
HETATM   11  C   UNL     1       3.620  33.426  60.955  1.00  0.00     0.059 A 
HETATM   12  C   UNL     1       2.303  33.861  60.426  1.00  0.00     0.073 C 
HETATM   13  N   UNL     1       3.780  33.282  62.271  1.00  0.00    -0.177 NA
HETATM   14  N   UNL     1       5.045  32.848  62.416  1.00  0.00    -0.273 N 
HETATM   15  C   UNL     1       5.728  32.777  61.227  1.00  0.00     0.035 A 
HETATM   16  C   UNL     1       7.150  32.359  61.102  1.00  0.00     0.070 C 
BRANCH  14  17
HETATM   17  C   UNL     1       5.498  32.503  63.754  1.00  0.00     0.155 C 
BRANCH  17  18
HETATM   18  C   UNL     1       5.732  33.730  64.655  1.00  0.00    -0.003 C 
HETATM   19  C   UNL     1       4.692  33.827  65.772  1.00  0.00     0.011 C 
HETATM   20  C   UNL     1       7.137  33.669  65.258  1.00  0.00     0.011 C 
ENDBRANCH  17  18
ENDBRANCH  14  17
ENDBRANCH   9  10
ENDBRANCH   6   9
ENDBRANCH   1   5
BRANCH   2  21
HETATM   21  C   UNL     1       5.061  27.651  56.447  1.00  0.00     0.121 A 
HETATM   22  N   UNL     1       4.466  26.593  57.073  1.00  0.00    -0.272 N 
HETATM   23  H   UNL     1       3.720  26.633  57.761  1.00  0.00     0.189 HD
HETATM   24  N   UNL     1       4.948  25.397  56.710  1.00  0.00    -0.174 NA
HETATM   25  C   UNL     1       5.910  25.671  55.814  1.00  0.00     0.089 A 
HETATM   26  C   UNL     1       6.004  27.079  55.617  1.00  0.00     0.071 A 
BRANCH  25  27
HETATM   27  C   UNL     1       6.700  24.607  55.180  1.00  0.00    -0.005 A 
HETATM   28  C   UNL     1       7.432  23.703  55.962  1.00  0.00     0.016 A 
HETATM   29  C   UNL     1       8.181  22.684  55.367  1.00  0.00     0.037 A 
HETATM   30  C   UNL     1       8.216  22.543  53.979  1.00  0.00     0.068 A 
HETATM   31  C   UNL     1       7.501  23.442  53.190  1.00  0.00     0.037 A 
HETATM   32  C   UNL     1       6.749  24.465  53.787  1.00  0.00     0.016 A 
BRANCH  30  33
HETATM   33  O   UNL     1       8.981  21.506  53.526  1.00  0.00    -0.356 OA
HETATM   34  C   UNL     1       8.302  20.452  52.854  1.00  0.00     0.210 C 
ENDBRANCH  30  33
ENDBRANCH  25  27
ENDBRANCH   2  21
TORSDOF 8
ENDMDL
MODEL 6
REMARK VINA RESULT:      -9.0      2.805     11.692
REMARK  8 active torsions:
REMARK  status: ('A' for Active; 'I' for Inactive)
REMARK    1  A    between atoms: N_4  and  C_5 
REMARK    2  A    between atoms: C_5  and  C_6 
REMARK    3  A    between atoms: C_11  and  C_12 
REMARK    4  A    between atoms: C_12  and  C_13 
REMARK       I    between atoms: C_13  and  N_14 
REMARK    5  A    between atoms: N_14  and  N_15 
REMARK       I    between atoms: N_15  and  C_16 
REMARK    6  A    between atoms: C_16  and  C_17 
REMARK    7  A    between atoms: C_21  and  C_22 
REMARK    8  A    between atoms: C_25  and  O_26 
ROOT
HETATM    1  N   UNL     1       6.589  30.472  58.734  1.00  0.00    -0.262 N 
HETATM    2  C   UNL     1       7.585  29.552  58.488  1.00  0.00     0.288 C 
HETATM    3  O   UNL     1       8.698  29.649  59.005  1.00  0.00    -0.264 OA
HETATM    4  H   UNL     1       5.662  30.435  58.321  1.00  0.00     0.190 HD
ENDROOT
BRANCH   1   5
HETATM    5  N   UNL     1       6.875  31.581  59.533  1.00  0.00    -0.267 N 
HETATM    6  C   UNL     1       5.825  32.293  60.074  1.00  0.00     0.240 C 
HETATM    7  O   UNL     1       4.649  31.961  59.910  1.00  0.00    -0.272 OA
HETATM    8  H   UNL     1       7.857  31.815  59.666  1.00  0.00     0.190 HD
BRANCH   6   9
HETATM    9  C   UNL     1       6.239  33.534  60.838  1.00  0.00     0.147 C 
BRANCH   9  10
HETATM   10  C   UNL     1       6.033  33.397  62.309  1.00  0.00     0.001 A 
HETATM   11  C   UNL     1       6.937  32.873  63.272  1.00  0.00     0.059 A 
HETATM   12  C   UNL     1       8.293  32.304  63.066  1.00  0.00     0.073 C 
HETATM   13  N   UNL     1       6.432  32.930  64.504  1.00  0.00    -0.177 NA
HETATM   14  N   UNL     1       5.234  33.522  64.357  1.00  0.00    -0.273 N 
HETATM   15  C   UNL     1       4.923  33.785  63.045  1.00  0.00     0.035 A 
HETATM   16  C   UNL     1       3.648  34.405  62.595  1.00  0.00     0.070 C 
BRANCH  14  17
HETATM   17  C   UNL     1       4.466  33.815  65.556  1.00  0.00     0.155 C 
BRANCH  17  18
HETATM   18  C   UNL     1       5.150  34.834  66.486  1.00  0.00    -0.003 C 
HETATM   19  C   UNL     1       4.502  36.218  66.395  1.00  0.00     0.011 C 
HETATM   20  C   UNL     1       5.101  34.333  67.931  1.00  0.00     0.011 C 
ENDBRANCH  17  18
ENDBRANCH  14  17
ENDBRANCH   9  10
ENDBRANCH   6   9
ENDBRANCH   1   5
BRANCH   2  21
HETATM   21  C   UNL     1       7.239  28.489  57.587  1.00  0.00     0.121 A 
HETATM   22  N   UNL     1       5.958  28.306  57.149  1.00  0.00    -0.272 N 
HETATM   23  H   UNL     1       5.146  28.867  57.387  1.00  0.00     0.189 HD
HETATM   24  N   UNL     1       5.805  27.265  56.319  1.00  0.00    -0.174 NA
HETATM   25  C   UNL     1       7.031  26.729  56.209  1.00  0.00     0.089 A 
HETATM   26  C   UNL     1       7.961  27.477  56.987  1.00  0.00     0.071 A 
BRANCH  25  27
HETATM   27  C   UNL     1       7.282  25.540  55.384  1.00  0.00    -0.005 A 
HETATM   28  C   UNL     1       7.366  25.648  53.988  1.00  0.00     0.016 A 
HETATM   29  C   UNL     1       7.611  24.522  53.196  1.00  0.00     0.037 A 
HETATM   30  C   UNL     1       7.779  23.265  53.778  1.00  0.00     0.068 A 
HETATM   31  C   UNL     1       7.688  23.143  55.163  1.00  0.00     0.037 A 
HETATM   32  C   UNL     1       7.442  24.272  55.959  1.00  0.00     0.016 A 
BRANCH  30  33
HETATM   33  O   UNL     1       8.017  22.251  52.893  1.00  0.00    -0.356 OA
HETATM   34  C   UNL     1       8.069  20.933  53.425  1.00  0.00     0.210 C 
ENDBRANCH  30  33
ENDBRANCH  25  27
ENDBRANCH   2  21
TORSDOF 8
ENDMDL
MODEL 7
REMARK VINA RESULT:      -9.0      2.911     11.300
REMARK  8 active torsions:
REMARK  status: ('A' for Active; 'I' for Inactive)
REMARK    1  A    between atoms: N_4  and  C_5 
REMARK    2  A    between atoms: C_5  and  C_6 
REMARK    3  A    between atoms: C_11  and  C_12 
REMARK    4  A    between atoms: C_12  and  C_13 
REMARK       I    between atoms: C_13  and  N_14 
REMARK    5  A    between atoms: N_14  and  N_15 
REMARK       I    between atoms: N_15  and  C_16 
REMARK    6  A    between atoms: C_16  and  C_17 
REMARK    7  A    between atoms: C_21  and  C_22 
REMARK    8  A    between atoms: C_25  and  O_26 
ROOT
HETATM    1  N   UNL     1       6.957  29.358  58.163  1.00  0.00    -0.262 N 
HETATM    2  C   UNL     1       6.672  29.142  56.832  1.00  0.00     0.288 C 
HETATM    3  O   UNL     1       6.523  30.074  56.043  1.00  0.00    -0.264 OA
HETATM    4  H   UNL     1       7.077  28.618  58.849  1.00  0.00     0.190 HD
ENDROOT
BRANCH   1   5
HETATM    5  N   UNL     1       7.004  30.669  58.641  1.00  0.00    -0.267 N 
HETATM    6  C   UNL     1       7.863  30.963  59.679  1.00  0.00     0.240 C 
HETATM    7  O   UNL     1       8.617  30.119  60.170  1.00  0.00    -0.272 OA
HETATM    8  H   UNL     1       6.385  31.345  58.199  1.00  0.00     0.190 HD
BRANCH   6   9
HETATM    9  C   UNL     1       7.764  32.386  60.189  1.00  0.00     0.147 C 
BRANCH   9  10
HETATM   10  C   UNL     1       6.681  32.556  61.200  1.00  0.00     0.001 A 
HETATM   11  C   UNL     1       6.807  32.608  62.615  1.00  0.00     0.059 A 
HETATM   12  C   UNL     1       8.029  32.476  63.448  1.00  0.00     0.073 C 
HETATM   13  N   UNL     1       5.629  32.801  63.208  1.00  0.00    -0.177 NA
HETATM   14  N   UNL     1       4.751  32.919  62.197  1.00  0.00    -0.273 N 
HETATM   15  C   UNL     1       5.325  32.734  60.963  1.00  0.00     0.035 A 
HETATM   16  C   UNL     1       4.579  32.777  59.677  1.00  0.00     0.070 C 
BRANCH  14  17
HETATM   17  C   UNL     1       3.370  33.234  62.526  1.00  0.00     0.155 C 
BRANCH  17  18
HETATM   18  C   UNL     1       2.941  34.642  62.074  1.00  0.00    -0.003 C 
HETATM   19  C   UNL     1       1.432  34.731  61.834  1.00  0.00     0.011 C 
HETATM   20  C   UNL     1       3.361  35.674  63.123  1.00  0.00     0.011 C 
ENDBRANCH  17  18
ENDBRANCH  14  17
ENDBRANCH   9  10
ENDBRANCH   6   9
ENDBRANCH   1   5
BRANCH   2  21
HETATM   21  C   UNL     1       6.553  27.766  56.439  1.00  0.00     0.121 A 
HETATM   22  N   UNL     1       5.557  26.964  56.918  1.00  0.00    -0.272 N 
HETATM   23  H   UNL     1       4.822  27.227  57.568  1.00  0.00     0.189 HD
HETATM   24  N   UNL     1       5.594  25.707  56.457  1.00  0.00    -0.174 NA
HETATM   25  C   UNL     1       6.664  25.668  55.646  1.00  0.00     0.089 A 
HETATM   26  C   UNL     1       7.287  26.949  55.603  1.00  0.00     0.071 A 
BRANCH  25  27
HETATM   27  C   UNL     1       7.058  24.439  54.946  1.00  0.00    -0.005 A 
HETATM   28  C   UNL     1       7.116  24.405  53.545  1.00  0.00     0.016 A 
HETATM   29  C   UNL     1       7.496  23.240  52.872  1.00  0.00     0.037 A 
HETATM   30  C   UNL     1       7.828  22.084  53.580  1.00  0.00     0.068 A 
HETATM   31  C   UNL     1       7.765  22.103  54.972  1.00  0.00     0.037 A 
HETATM   32  C   UNL     1       7.383  23.271  55.648  1.00  0.00     0.016 A 
BRANCH  30  33
HETATM   33  O   UNL     1       8.186  21.019  52.803  1.00  0.00    -0.356 OA
HETATM   34  C   UNL     1       8.881  19.959  53.448  1.00  0.00     0.210 C 
ENDBRANCH  30  33
ENDBRANCH  25  27
ENDBRANCH   2  21
TORSDOF 8
ENDMDL
MODEL 8
REMARK VINA RESULT:      -8.9      3.131     11.220
REMARK  8 active torsions:
REMARK  status: ('A' for Active; 'I' for Inactive)
REMARK    1  A    between atoms: N_4  and  C_5 
REMARK    2  A    between atoms: C_5  and  C_6 
REMARK    3  A    between atoms: C_11  and  C_12 
REMARK    4  A    between atoms: C_12  and  C_13 
REMARK       I    between atoms: C_13  and  N_14 
REMARK    5  A    between atoms: N_14  and  N_15 
REMARK       I    between atoms: N_15  and  C_16 
REMARK    6  A    between atoms: C_16  and  C_17 
REMARK    7  A    between atoms: C_21  and  C_22 
REMARK    8  A    between atoms: C_25  and  O_26 
ROOT
HETATM    1  N   UNL     1       5.416  29.840  57.934  1.00  0.00    -0.262 N 
HETATM    2  C   UNL     1       6.627  29.329  57.522  1.00  0.00     0.288 C 
HETATM    3  O   UNL     1       7.673  29.964  57.646  1.00  0.00    -0.264 OA
HETATM    4  H   UNL     1       4.528  29.354  57.841  1.00  0.00     0.190 HD
ENDROOT
BRANCH   1   5
HETATM    5  N   UNL     1       5.366  31.142  58.435  1.00  0.00    -0.267 N 
HETATM    6  C   UNL     1       4.146  31.654  58.825  1.00  0.00     0.240 C 
HETATM    7  O   UNL     1       3.109  30.989  58.782  1.00  0.00    -0.272 OA
HETATM    8  H   UNL     1       6.244  31.656  58.478  1.00  0.00     0.190 HD
BRANCH   6   9
HETATM    9  C   UNL     1       4.186  33.105  59.257  1.00  0.00     0.147 C 
BRANCH   9  10
HETATM   10  C   UNL     1       4.137  33.262  60.740  1.00  0.00     0.001 A 
HETATM   11  C   UNL     1       3.079  33.792  61.527  1.00  0.00     0.059 A 
HETATM   12  C   UNL     1       1.776  34.350  61.086  1.00  0.00     0.073 C 
HETATM   13  N   UNL     1       3.366  33.753  62.829  1.00  0.00    -0.177 NA
HETATM   14  N   UNL     1       4.574  33.166  62.896  1.00  0.00    -0.273 N 
HETATM   15  C   UNL     1       5.106  32.889  61.660  1.00  0.00     0.035 A 
HETATM   16  C   UNL     1       6.441  32.271  61.443  1.00  0.00     0.070 C 
BRANCH  14  17
HETATM   17  C   UNL     1       5.126  32.891  64.213  1.00  0.00     0.155 C 
BRANCH  17  18
HETATM   18  C   UNL     1       6.029  34.019  64.744  1.00  0.00    -0.003 C 
HETATM   19  C   UNL     1       5.645  34.440  66.164  1.00  0.00     0.011 C 
HETATM   20  C   UNL     1       7.492  33.571  64.714  1.00  0.00     0.011 C 
ENDBRANCH  17  18
ENDBRANCH  14  17
ENDBRANCH   9  10
ENDBRANCH   6   9
ENDBRANCH   1   5
BRANCH   2  21
HETATM   21  C   UNL     1       6.581  28.019  56.936  1.00  0.00     0.121 A 
HETATM   22  N   UNL     1       5.400  27.366  56.725  1.00  0.00    -0.272 N 
HETATM   23  H   UNL     1       4.468  27.708  56.939  1.00  0.00     0.189 HD
HETATM   24  N   UNL     1       5.533  26.151  56.177  1.00  0.00    -0.174 NA
HETATM   25  C   UNL     1       6.857  25.984  56.028  1.00  0.00     0.089 A 
HETATM   26  C   UNL     1       7.548  27.143  56.487  1.00  0.00     0.071 A 
BRANCH  25  27
HETATM   27  C   UNL     1       7.421  24.751  55.463  1.00  0.00    -0.005 A 
HETATM   28  C   UNL     1       6.906  24.213  54.275  1.00  0.00     0.016 A 
HETATM   29  C   UNL     1       7.442  23.043  53.728  1.00  0.00     0.037 A 
HETATM   30  C   UNL     1       8.502  22.384  54.352  1.00  0.00     0.068 A 
HETATM   31  C   UNL     1       9.015  22.904  55.539  1.00  0.00     0.037 A 
HETATM   32  C   UNL     1       8.479  24.078  56.089  1.00  0.00     0.016 A 
BRANCH  30  33
HETATM   33  O   UNL     1       8.934  21.257  53.713  1.00  0.00    -0.356 OA
HETATM   34  C   UNL     1       7.960  20.515  52.990  1.00  0.00     0.210 C 
ENDBRANCH  30  33
ENDBRANCH  25  27
ENDBRANCH   2  21
TORSDOF 8
ENDMDL
MODEL 9
REMARK VINA RESULT:      -8.8      3.214      5.254
REMARK  8 active torsions:
REMARK  status: ('A' for Active; 'I' for Inactive)
REMARK    1  A    between atoms: N_4  and  C_5 
REMARK    2  A    between atoms: C_5  and  C_6 
REMARK    3  A    between atoms: C_11  and  C_12 
REMARK    4  A    between atoms: C_12  and  C_13 
REMARK       I    between atoms: C_13  and  N_14 
REMARK    5  A    between atoms: N_14  and  N_15 
REMARK       I    between atoms: N_15  and  C_16 
REMARK    6  A    between atoms: C_16  and  C_17 
REMARK    7  A    between atoms: C_21  and  C_22 
REMARK    8  A    between atoms: C_25  and  O_26 
ROOT
HETATM    1  N   UNL     1       4.947  31.622  60.044  1.00  0.00    -0.262 N 
HETATM    2  C   UNL     1       3.803  32.230  60.515  1.00  0.00     0.288 C 
HETATM    3  O   UNL     1       2.798  32.347  59.816  1.00  0.00    -0.264 OA
HETATM    4  H   UNL     1       5.801  31.514  60.584  1.00  0.00     0.190 HD
ENDROOT
BRANCH   1   5
HETATM    5  N   UNL     1       4.988  31.194  58.716  1.00  0.00    -0.267 N 
HETATM    6  C   UNL     1       6.164  31.341  58.011  1.00  0.00     0.240 C 
HETATM    7  O   UNL     1       7.187  31.799  58.524  1.00  0.00    -0.272 OA
HETATM    8  H   UNL     1       4.132  30.800  58.330  1.00  0.00     0.190 HD
BRANCH   6   9
HETATM    9  C   UNL     1       6.073  30.941  56.552  1.00  0.00     0.147 C 
BRANCH   9  10
HETATM   10  C   UNL     1       6.471  29.522  56.322  1.00  0.00     0.001 A 
HETATM   11  C   UNL     1       7.778  28.966  56.360  1.00  0.00     0.059 A 
HETATM   12  C   UNL     1       9.076  29.645  56.603  1.00  0.00     0.073 C 
HETATM   13  N   UNL     1       7.761  27.651  56.135  1.00  0.00    -0.177 NA
HETATM   14  N   UNL     1       6.459  27.344  55.997  1.00  0.00    -0.273 N 
HETATM   15  C   UNL     1       5.639  28.445  56.056  1.00  0.00     0.035 A 
HETATM   16  C   UNL     1       4.161  28.396  55.901  1.00  0.00     0.070 C 
BRANCH  14  17
HETATM   17  C   UNL     1       6.102  25.945  55.832  1.00  0.00     0.155 C 
BRANCH  17  18
HETATM   18  C   UNL     1       7.158  25.131  55.061  1.00  0.00    -0.003 C 
HETATM   19  C   UNL     1       7.142  23.653  55.456  1.00  0.00     0.011 C 
HETATM   20  C   UNL     1       6.922  25.269  53.556  1.00  0.00     0.011 C 
ENDBRANCH  17  18
ENDBRANCH  14  17
ENDBRANCH   9  10
ENDBRANCH   6   9
ENDBRANCH   1   5
BRANCH   2  21
HETATM   21  C   UNL     1       3.872  32.721  61.863  1.00  0.00     0.121 A 
HETATM   22  N   UNL     1       2.769  33.199  62.512  1.00  0.00    -0.272 N 
HETATM   23  H   UNL     1       1.824  33.257  62.146  1.00  0.00     0.189 HD
HETATM   24  N   UNL     1       3.007  33.624  63.759  1.00  0.00    -0.174 NA
HETATM   25  C   UNL     1       4.323  33.432  63.944  1.00  0.00     0.089 A 
HETATM   26  C   UNL     1       4.899  32.857  62.775  1.00  0.00     0.071 A 
BRANCH  25  27
HETATM   27  C   UNL     1       4.987  33.793  65.204  1.00  0.00    -0.005 A 
HETATM   28  C   UNL     1       4.233  34.187  66.318  1.00  0.00     0.016 A 
HETATM   29  C   UNL     1       4.857  34.526  67.522  1.00  0.00     0.037 A 
HETATM   30  C   UNL     1       6.246  34.478  67.642  1.00  0.00     0.068 A 
HETATM   31  C   UNL     1       7.007  34.097  66.539  1.00  0.00     0.037 A 
HETATM   32  C   UNL     1       6.382  33.757  65.330  1.00  0.00     0.016 A 
BRANCH  30  33
HETATM   33  O   UNL     1       6.728  34.829  68.872  1.00  0.00    -0.356 OA
HETATM   34  C   UNL     1       5.916  34.510  69.995  1.00  0.00     0.210 C 
ENDBRANCH  30  33
ENDBRANCH  25  27
ENDBRANCH   2  21
TORSDOF 8
ENDMDL
MODEL 10
REMARK VINA RESULT:      -8.8      6.985     11.855
REMARK  8 active torsions:
REMARK  status: ('A' for Active; 'I' for Inactive)
REMARK    1  A    between atoms: N_4  and  C_5 
REMARK    2  A    between atoms: C_5  and  C_6 
REMARK    3  A    between atoms: C_11  and  C_12 
REMARK    4  A    between atoms: C_12  and  C_13 
REMARK       I    between atoms: C_13  and  N_14 
REMARK    5  A    between atoms: N_14  and  N_15 
REMARK       I    between atoms: N_15  and  C_16 
REMARK    6  A    between atoms: C_16  and  C_17 
REMARK    7  A    between atoms: C_21  and  C_22 
REMARK    8  A    between atoms: C_25  and  O_26 
ROOT
HETATM    1  N   UNL     1       4.023  27.348  51.263  1.00  0.00    -0.262 N 
HETATM    2  C   UNL     1       4.387  27.590  49.956  1.00  0.00     0.288 C 
HETATM    3  O   UNL     1       5.550  27.841  49.644  1.00  0.00    -0.264 OA
HETATM    4  H   UNL     1       3.073  27.147  51.564  1.00  0.00     0.190 HD
ENDROOT
BRANCH   1   5
HETATM    5  N   UNL     1       4.987  27.464  52.266  1.00  0.00    -0.267 N 
HETATM    6  C   UNL     1       5.142  26.423  53.157  1.00  0.00     0.240 C 
HETATM    7  O   UNL     1       4.488  25.381  53.073  1.00  0.00    -0.272 OA
HETATM    8  H   UNL     1       5.524  28.329  52.293  1.00  0.00     0.190 HD
BRANCH   6   9
HETATM    9  C   UNL     1       6.140  26.692  54.265  1.00  0.00     0.147 C 
BRANCH   9  10
HETATM   10  C   UNL     1       6.871  25.461  54.687  1.00  0.00     0.001 A 
HETATM   11  C   UNL     1       6.860  24.834  55.962  1.00  0.00     0.059 A 
HETATM   12  C   UNL     1       6.155  25.249  57.200  1.00  0.00     0.073 C 
HETATM   13  N   UNL     1       7.609  23.731  55.974  1.00  0.00    -0.177 NA
HETATM   14  N   UNL     1       8.066  23.612  54.715  1.00  0.00    -0.273 N 
HETATM   15  C   UNL     1       7.688  24.656  53.906  1.00  0.00     0.035 A 
HETATM   16  C   UNL     1       8.082  24.794  52.479  1.00  0.00     0.070 C 
BRANCH  14  17
HETATM   17  C   UNL     1       8.851  22.435  54.382  1.00  0.00     0.155 C 
BRANCH  17  18
HETATM   18  C   UNL     1       8.003  21.158  54.233  1.00  0.00    -0.003 C 
HETATM   19  C   UNL     1       8.201  20.495  52.868  1.00  0.00     0.011 C 
HETATM   20  C   UNL     1       8.355  20.168  55.346  1.00  0.00     0.011 C 
ENDBRANCH  17  18
ENDBRANCH  14  17
ENDBRANCH   9  10
ENDBRANCH   6   9
ENDBRANCH   1   5
BRANCH   2  21
HETATM   21  C   UNL     1       3.320  27.537  48.996  1.00  0.00     0.121 A 
HETATM   22  N   UNL     1       2.758  26.354  48.608  1.00  0.00    -0.272 N 
HETATM   23  H   UNL     1       3.007  25.425  48.934  1.00  0.00     0.189 HD
HETATM   24  N   UNL     1       1.781  26.482  47.700  1.00  0.00    -0.174 NA
HETATM   25  C   UNL     1       1.697  27.801  47.467  1.00  0.00     0.089 A 
HETATM   26  C   UNL     1       2.644  28.498  48.271  1.00  0.00     0.071 A 
BRANCH  25  27
HETATM   27  C   UNL     1       0.736  28.355  46.504  1.00  0.00    -0.005 A 
HETATM   28  C   UNL     1      -0.068  27.505  45.732  1.00  0.00     0.016 A 
HETATM   29  C   UNL     1      -0.990  28.025  44.818  1.00  0.00     0.037 A 
HETATM   30  C   UNL     1      -1.130  29.404  44.654  1.00  0.00     0.068 A 
HETATM   31  C   UNL     1      -0.329  30.259  45.409  1.00  0.00     0.037 A 
HETATM   32  C   UNL     1       0.596  29.738  46.326  1.00  0.00     0.016 A 
BRANCH  30  33
HETATM   33  O   UNL     1      -2.068  29.780  43.734  1.00  0.00    -0.356 OA
HETATM   34  C   UNL     1      -1.788  30.948  42.974  1.00  0.00     0.210 C 
ENDBRANCH  30  33
ENDBRANCH  25  27
ENDBRANCH   2  21
TORSDOF 8
ENDMDL
