MODEL 1
REMARK VINA RESULT:      -8.3      0.000      0.000
REMARK  6 active torsions:
REMARK  status: ('A' for Active; 'I' for Inactive)
REMARK    1  A    between atoms: C_2  and  N_3 
REMARK    2  A    between atoms: C_2  and  C_11 
REMARK       I    between atoms: N_3  and  C_4 
REMARK    3  A    between atoms: C_4  and  C_5 
REMARK    4  A    between atoms: C_14  and  O_15 
REMARK    5  A    between atoms: O_15  and  C_16 
REMARK    6  A    between atoms: C_16  and  C_17 
ROOT
HETATM    1  C   UNL     1       6.262  28.278  56.993  1.00  0.00    -0.036 A 
HETATM    2  C   UNL     1       7.477  27.741  57.443  1.00  0.00     0.012 A 
HETATM    3  C   UNL     1       7.822  26.410  57.174  1.00  0.00     0.037 A 
HETATM    4  C   UNL     1       6.948  25.592  56.462  1.00  0.00     0.069 A 
HETATM    5  C   UNL     1       5.742  26.119  56.000  1.00  0.00     0.037 A 
HETATM    6  C   UNL     1       5.396  27.445  56.268  1.00  0.00     0.012 A 
ENDROOT
BRANCH   1   7
HETATM    7  C   UNL     1       5.891  29.712  57.326  1.00  0.00     0.113 C 
HETATM    8  C   UNL     1       4.372  29.912  57.372  1.00  0.00     0.037 C 
BRANCH   7   9
HETATM    9  N   UNL     1       6.529  30.093  58.577  1.00  0.00    -0.352 N 
HETATM   10  C   UNL     1       6.793  31.400  58.894  1.00  0.00     0.225 C 
HETATM   11  O   UNL     1       6.476  32.364  58.211  1.00  0.00    -0.273 OA
HETATM   12  H   UNL     1       6.896  29.355  59.162  1.00  0.00     0.163 HD
BRANCH  10  13
HETATM   13  C   UNL     1       7.510  31.575  60.176  1.00  0.00     0.119 A 
HETATM   14  C   UNL     1       8.915  31.058  60.336  1.00  0.00     0.126 A 
HETATM   15 CL   UNL     1       9.341  30.351  61.897  1.00  0.00    -0.101 Cl
HETATM   16 CL   UNL     1       9.765  30.315  58.992  1.00  0.00    -0.101 Cl
HETATM   17  C   UNL     1       8.671  32.537  60.287  1.00  0.00     0.060 A 
ENDBRANCH  10  13
ENDBRANCH   7   9
ENDBRANCH   1   7
BRANCH   4  18
HETATM   18  O   UNL     1       7.155  24.279  56.143  1.00  0.00    -0.347 OA
BRANCH  18  19
HETATM   19  C   UNL     1       7.034  23.923  54.766  1.00  0.00     0.215 C 
BRANCH  19  20
HETATM   20  C   UNL     1       7.599  22.546  54.537  1.00  0.00    -0.017 A 
HETATM   21  C   UNL     1       8.043  21.749  55.590  1.00  0.00     0.125 A 
HETATM   22  N   UNL     1       8.609  20.530  55.439  1.00  0.00    -0.272 NA
HETATM   23  C   UNL     1       8.749  20.079  54.175  1.00  0.00     0.116 A 
HETATM   24  C   UNL     1       8.355  20.794  53.056  1.00  0.00     0.020 A 
HETATM   25  C   UNL     1       7.777  22.047  53.243  1.00  0.00     0.012 A 
ENDBRANCH  19  20
ENDBRANCH  18  19
ENDBRANCH   4  18
TORSDOF 6
ENDMDL
MODEL 2
REMARK VINA RESULT:      -8.3      6.004      8.357
REMARK  6 active torsions:
REMARK  status: ('A' for Active; 'I' for Inactive)
REMARK    1  A    between atoms: C_2  and  N_3 
REMARK    2  A    between atoms: C_2  and  C_11 
REMARK       I    between atoms: N_3  and  C_4 
REMARK    3  A    between atoms: C_4  and  C_5 
REMARK    4  A    between atoms: C_14  and  O_15 
REMARK    5  A    between atoms: O_15  and  C_16 
REMARK    6  A    between atoms: C_16  and  C_17 
ROOT
HETATM    1  C   UNL     1       5.572  26.063  54.708  1.00  0.00    -0.036 A 
HETATM    2  C   UNL     1       5.341  27.446  54.711  1.00  0.00     0.012 A 
HETATM    3  C   UNL     1       4.901  28.106  53.556  1.00  0.00     0.037 A 
HETATM    4  C   UNL     1       4.699  27.393  52.377  1.00  0.00     0.069 A 
HETATM    5  C   UNL     1       4.915  26.015  52.366  1.00  0.00     0.037 A 
HETATM    6  C   UNL     1       5.355  25.355  53.516  1.00  0.00     0.012 A 
ENDROOT
BRANCH   1   7
HETATM    7  C   UNL     1       6.084  25.371  55.959  1.00  0.00     0.113 C 
HETATM    8  C   UNL     1       5.016  25.313  57.056  1.00  0.00     0.037 C 
BRANCH   7   9
HETATM    9  N   UNL     1       6.577  24.048  55.607  1.00  0.00    -0.352 N 
HETATM   10  C   UNL     1       7.857  23.647  55.889  1.00  0.00     0.225 C 
HETATM   11  O   UNL     1       8.680  24.311  56.502  1.00  0.00    -0.273 OA
HETATM   12  H   UNL     1       5.988  23.466  55.027  1.00  0.00     0.163 HD
BRANCH  10  13
HETATM   13  C   UNL     1       8.187  22.295  55.387  1.00  0.00     0.119 A 
HETATM   14  C   UNL     1       8.320  22.045  53.908  1.00  0.00     0.126 A 
HETATM   15 CL   UNL     1       7.705  20.510  53.291  1.00  0.00    -0.101 Cl
HETATM   16 CL   UNL     1       8.172  23.359  52.752  1.00  0.00    -0.101 Cl
HETATM   17  C   UNL     1       9.541  22.005  54.779  1.00  0.00     0.060 A 
ENDBRANCH  10  13
ENDBRANCH   7   9
ENDBRANCH   1   7
BRANCH   4  18
HETATM   18  O   UNL     1       4.284  27.913  51.183  1.00  0.00    -0.347 OA
BRANCH  18  19
HETATM   19  C   UNL     1       4.902  27.396  50.004  1.00  0.00     0.215 C 
BRANCH  19  20
HETATM   20  C   UNL     1       3.856  27.095  48.963  1.00  0.00    -0.017 A 
HETATM   21  C   UNL     1       4.125  26.278  47.867  1.00  0.00     0.125 A 
HETATM   22  N   UNL     1       3.244  26.018  46.874  1.00  0.00    -0.272 NA
HETATM   23  C   UNL     1       2.033  26.605  46.969  1.00  0.00     0.116 A 
HETATM   24  C   UNL     1       1.666  27.445  48.007  1.00  0.00     0.020 A 
HETATM   25  C   UNL     1       2.595  27.696  49.013  1.00  0.00     0.012 A 
ENDBRANCH  19  20
ENDBRANCH  18  19
ENDBRANCH   4  18
TORSDOF 6
ENDMDL
MODEL 3
REMARK VINA RESULT:      -8.2      1.820      2.442
REMARK  6 active torsions:
REMARK  status: ('A' for Active; 'I' for Inactive)
REMARK    1  A    between atoms: C_2  and  N_3 
REMARK    2  A    between atoms: C_2  and  C_11 
REMARK       I    between atoms: N_3  and  C_4 
REMARK    3  A    between atoms: C_4  and  C_5 
REMARK    4  A    between atoms: C_14  and  O_15 
REMARK    5  A    between atoms: O_15  and  C_16 
REMARK    6  A    between atoms: C_16  and  C_17 
ROOT
HETATM    1  C   UNL     1       7.157  29.645  57.788  1.00  0.00    -0.036 A 
HETATM    2  C   UNL     1       6.028  28.899  57.418  1.00  0.00     0.012 A 
HETATM    3  C   UNL     1       6.154  27.585  56.950  1.00  0.00     0.037 A 
HETATM    4  C   UNL     1       7.414  27.002  56.834  1.00  0.00     0.069 A 
HETATM    5  C   UNL     1       8.542  27.732  57.211  1.00  0.00     0.037 A 
HETATM    6  C   UNL     1       8.418  29.043  57.676  1.00  0.00     0.012 A 
ENDROOT
BRANCH   1   7
HETATM    7  C   UNL     1       7.002  31.082  58.257  1.00  0.00     0.113 C 
HETATM    8  C   UNL     1       5.595  31.624  57.980  1.00  0.00     0.037 C 
BRANCH   7   9
HETATM    9  N   UNL     1       7.349  31.164  59.668  1.00  0.00    -0.352 N 
HETATM   10  C   UNL     1       8.392  31.931  60.120  1.00  0.00     0.225 C 
HETATM   11  O   UNL     1       9.083  32.655  59.419  1.00  0.00    -0.273 OA
HETATM   12  H   UNL     1       6.881  30.534  60.306  1.00  0.00     0.163 HD
BRANCH  10  13
HETATM   13  C   UNL     1       8.628  31.824  61.577  1.00  0.00     0.119 A 
HETATM   14  C   UNL     1       7.550  32.215  62.552  1.00  0.00     0.126 A 
HETATM   15 CL   UNL     1       8.059  33.038  64.028  1.00  0.00    -0.101 Cl
HETATM   16 CL   UNL     1       5.966  32.725  61.993  1.00  0.00    -0.101 Cl
HETATM   17  C   UNL     1       7.922  30.770  62.399  1.00  0.00     0.060 A 
ENDBRANCH  10  13
ENDBRANCH   7   9
ENDBRANCH   1   7
BRANCH   4  18
HETATM   18  O   UNL     1       7.677  25.738  56.384  1.00  0.00    -0.347 OA
BRANCH  18  19
HETATM   19  C   UNL     1       6.802  25.214  55.385  1.00  0.00     0.215 C 
BRANCH  19  20
HETATM   20  C   UNL     1       7.332  23.901  54.871  1.00  0.00    -0.017 A 
HETATM   21  C   UNL     1       7.931  22.970  55.716  1.00  0.00     0.125 A 
HETATM   22  N   UNL     1       8.473  21.801  55.303  1.00  0.00    -0.272 NA
HETATM   23  C   UNL     1       8.424  21.545  53.979  1.00  0.00     0.116 A 
HETATM   24  C   UNL     1       7.865  22.407  53.050  1.00  0.00     0.020 A 
HETATM   25  C   UNL     1       7.317  23.603  53.505  1.00  0.00     0.012 A 
ENDBRANCH  19  20
ENDBRANCH  18  19
ENDBRANCH   4  18
TORSDOF 6
ENDMDL
MODEL 4
REMARK VINA RESULT:      -8.1      5.204      6.930
REMARK  6 active torsions:
REMARK  status: ('A' for Active; 'I' for Inactive)
REMARK    1  A    between atoms: C_2  and  N_3 
REMARK    2  A    between atoms: C_2  and  C_11 
REMARK       I    between atoms: N_3  and  C_4 
REMARK    3  A    between atoms: C_4  and  C_5 
REMARK    4  A    between atoms: C_14  and  O_15 
REMARK    5  A    between atoms: O_15  and  C_16 
REMARK    6  A    between atoms: C_16  and  C_17 
ROOT
HETATM    1  C   UNL     1       6.690  24.584  54.180  1.00  0.00    -0.036 A 
HETATM    2  C   UNL     1       5.338  24.852  53.923  1.00  0.00     0.012 A 
HETATM    3  C   UNL     1       4.920  25.316  52.669  1.00  0.00     0.037 A 
HETATM    4  C   UNL     1       5.853  25.532  51.657  1.00  0.00     0.069 A 
HETATM    5  C   UNL     1       7.199  25.258  51.899  1.00  0.00     0.037 A 
HETATM    6  C   UNL     1       7.618  24.797  53.149  1.00  0.00     0.012 A 
ENDROOT
BRANCH   1   7
HETATM    7  C   UNL     1       7.128  24.117  55.558  1.00  0.00     0.113 C 
HETATM    8  C   UNL     1       8.036  22.885  55.480  1.00  0.00     0.037 C 
BRANCH   7   9
HETATM    9  N   UNL     1       7.767  25.222  56.256  1.00  0.00    -0.352 N 
HETATM   10  C   UNL     1       7.053  26.134  56.989  1.00  0.00     0.225 C 
HETATM   11  O   UNL     1       5.847  26.086  57.182  1.00  0.00    -0.273 OA
HETATM   12  H   UNL     1       8.751  25.382  56.084  1.00  0.00     0.163 HD
BRANCH  10  13
HETATM   13  C   UNL     1       7.877  27.221  57.562  1.00  0.00     0.119 A 
HETATM   14  C   UNL     1       8.362  28.347  56.689  1.00  0.00     0.126 A 
HETATM   15 CL   UNL     1       9.988  28.961  56.995  1.00  0.00    -0.101 Cl
HETATM   16 CL   UNL     1       7.898  28.445  54.999  1.00  0.00    -0.101 Cl
HETATM   17  C   UNL     1       7.312  28.614  57.726  1.00  0.00     0.060 A 
ENDBRANCH  10  13
ENDBRANCH   7   9
ENDBRANCH   1   7
BRANCH   4  18
HETATM   18  O   UNL     1       5.582  25.991  50.399  1.00  0.00    -0.347 OA
BRANCH  18  19
HETATM   19  C   UNL     1       4.774  27.164  50.299  1.00  0.00     0.215 C 
BRANCH  19  20
HETATM   20  C   UNL     1       3.784  27.016  49.174  1.00  0.00    -0.017 A 
HETATM   21  C   UNL     1       2.786  27.960  48.946  1.00  0.00     0.125 A 
HETATM   22  N   UNL     1       1.837  27.852  47.987  1.00  0.00    -0.272 NA
HETATM   23  C   UNL     1       1.877  26.744  47.217  1.00  0.00     0.116 A 
HETATM   24  C   UNL     1       2.817  25.738  47.367  1.00  0.00     0.020 A 
HETATM   25  C   UNL     1       3.779  25.876  48.364  1.00  0.00     0.012 A 
ENDBRANCH  19  20
ENDBRANCH  18  19
ENDBRANCH   4  18
TORSDOF 6
ENDMDL
MODEL 5
REMARK VINA RESULT:      -8.1      3.766      9.423
REMARK  6 active torsions:
REMARK  status: ('A' for Active; 'I' for Inactive)
REMARK    1  A    between atoms: C_2  and  N_3 
REMARK    2  A    between atoms: C_2  and  C_11 
REMARK       I    between atoms: N_3  and  C_4 
REMARK    3  A    between atoms: C_4  and  C_5 
REMARK    4  A    between atoms: C_14  and  O_15 
REMARK    5  A    between atoms: O_15  and  C_16 
REMARK    6  A    between atoms: C_16  and  C_17 
ROOT
HETATM    1  C   UNL     1       7.019  28.180  56.138  1.00  0.00    -0.036 A 
HETATM    2  C   UNL     1       7.909  27.981  57.205  1.00  0.00     0.012 A 
HETATM    3  C   UNL     1       8.029  28.929  58.229  1.00  0.00     0.037 A 
HETATM    4  C   UNL     1       7.271  30.097  58.194  1.00  0.00     0.069 A 
HETATM    5  C   UNL     1       6.374  30.298  57.144  1.00  0.00     0.037 A 
HETATM    6  C   UNL     1       6.254  29.355  56.121  1.00  0.00     0.012 A 
ENDROOT
BRANCH   1   7
HETATM    7  C   UNL     1       6.930  27.158  55.018  1.00  0.00     0.113 C 
HETATM    8  C   UNL     1       7.678  27.621  53.763  1.00  0.00     0.037 C 
BRANCH   7   9
HETATM    9  N   UNL     1       7.418  25.875  55.501  1.00  0.00    -0.352 N 
HETATM   10  C   UNL     1       6.835  24.688  55.139  1.00  0.00     0.225 C 
HETATM   11  O   UNL     1       5.911  24.576  54.348  1.00  0.00    -0.273 OA
HETATM   12  H   UNL     1       8.127  25.882  56.222  1.00  0.00     0.163 HD
BRANCH  10  13
HETATM   13  C   UNL     1       7.432  23.502  55.793  1.00  0.00     0.119 A 
HETATM   14  C   UNL     1       7.862  22.318  54.969  1.00  0.00     0.126 A 
HETATM   15 CL   UNL     1       7.584  20.716  55.655  1.00  0.00    -0.101 Cl
HETATM   16 CL   UNL     1       7.748  22.344  53.218  1.00  0.00    -0.101 Cl
HETATM   17  C   UNL     1       8.900  23.183  55.622  1.00  0.00     0.060 A 
ENDBRANCH  10  13
ENDBRANCH   7   9
ENDBRANCH   1   7
BRANCH   4  18
HETATM   18  O   UNL     1       7.300  31.103  59.119  1.00  0.00    -0.347 OA
BRANCH  18  19
HETATM   19  C   UNL     1       8.155  30.917  60.247  1.00  0.00     0.215 C 
BRANCH  19  20
HETATM   20  C   UNL     1       7.650  31.721  61.416  1.00  0.00    -0.017 A 
HETATM   21  C   UNL     1       6.439  32.407  61.368  1.00  0.00     0.125 A 
HETATM   22  N   UNL     1       5.963  33.187  62.366  1.00  0.00    -0.272 NA
HETATM   23  C   UNL     1       6.733  33.300  63.468  1.00  0.00     0.116 A 
HETATM   24  C   UNL     1       7.959  32.673  63.615  1.00  0.00     0.020 A 
HETATM   25  C   UNL     1       8.424  31.878  62.570  1.00  0.00     0.012 A 
ENDBRANCH  19  20
ENDBRANCH  18  19
ENDBRANCH   4  18
TORSDOF 6
ENDMDL
MODEL 6
REMARK VINA RESULT:      -7.9      3.981      9.825
REMARK  6 active torsions:
REMARK  status: ('A' for Active; 'I' for Inactive)
REMARK    1  A    between atoms: C_2  and  N_3 
REMARK    2  A    between atoms: C_2  and  C_11 
REMARK       I    between atoms: N_3  and  C_4 
REMARK    3  A    between atoms: C_4  and  C_5 
REMARK    4  A    between atoms: C_14  and  O_15 
REMARK    5  A    between atoms: O_15  and  C_16 
REMARK    6  A    between atoms: C_16  and  C_17 
ROOT
HETATM    1  C   UNL     1       8.717  30.435  57.945  1.00  0.00    -0.036 A 
HETATM    2  C   UNL     1       9.611  31.097  58.799  1.00  0.00     0.012 A 
HETATM    3  C   UNL     1       9.145  31.905  59.844  1.00  0.00     0.037 A 
HETATM    4  C   UNL     1       7.777  32.073  60.041  1.00  0.00     0.069 A 
HETATM    5  C   UNL     1       6.879  31.410  59.204  1.00  0.00     0.037 A 
HETATM    6  C   UNL     1       7.342  30.605  58.161  1.00  0.00     0.012 A 
ENDROOT
BRANCH   1   7
HETATM    7  C   UNL     1       9.242  29.593  56.795  1.00  0.00     0.113 C 
HETATM    8  C   UNL     1      10.747  29.332  56.920  1.00  0.00     0.037 C 
BRANCH   7   9
HETATM    9  N   UNL     1       8.479  28.357  56.720  1.00  0.00    -0.352 N 
HETATM   10  C   UNL     1       7.890  27.931  55.558  1.00  0.00     0.225 C 
HETATM   11  O   UNL     1       7.990  28.492  54.476  1.00  0.00    -0.273 OA
HETATM   12  H   UNL     1       8.279  27.874  57.586  1.00  0.00     0.163 HD
BRANCH  10  13
HETATM   13  C   UNL     1       7.099  26.689  55.705  1.00  0.00     0.119 A 
HETATM   14  C   UNL     1       5.698  26.742  56.254  1.00  0.00     0.126 A 
HETATM   15 CL   UNL     1       5.202  25.427  57.322  1.00  0.00    -0.101 Cl
HETATM   16 CL   UNL     1       4.940  28.274  56.654  1.00  0.00    -0.101 Cl
HETATM   17  C   UNL     1       5.914  26.417  54.806  1.00  0.00     0.060 A 
ENDBRANCH  10  13
ENDBRANCH   7   9
ENDBRANCH   1   7
BRANCH   4  18
HETATM   18  O   UNL     1       7.192  32.839  61.011  1.00  0.00    -0.347 OA
BRANCH  18  19
HETATM   19  C   UNL     1       6.208  32.204  61.828  1.00  0.00     0.215 C 
BRANCH  19  20
HETATM   20  C   UNL     1       6.259  32.762  63.226  1.00  0.00    -0.017 A 
HETATM   21  C   UNL     1       5.102  32.997  63.965  1.00  0.00     0.125 A 
HETATM   22  N   UNL     1       5.084  33.547  65.201  1.00  0.00    -0.272 NA
HETATM   23  C   UNL     1       6.277  33.889  65.730  1.00  0.00     0.116 A 
HETATM   24  C   UNL     1       7.486  33.713  65.077  1.00  0.00     0.020 A 
HETATM   25  C   UNL     1       7.472  33.146  63.805  1.00  0.00     0.012 A 
ENDBRANCH  19  20
ENDBRANCH  18  19
ENDBRANCH   4  18
TORSDOF 6
ENDMDL
MODEL 7
REMARK VINA RESULT:      -7.9      7.176      8.889
REMARK  6 active torsions:
REMARK  status: ('A' for Active; 'I' for Inactive)
REMARK    1  A    between atoms: C_2  and  N_3 
REMARK    2  A    between atoms: C_2  and  C_11 
REMARK       I    between atoms: N_3  and  C_4 
REMARK    3  A    between atoms: C_4  and  C_5 
REMARK    4  A    between atoms: C_14  and  O_15 
REMARK    5  A    between atoms: O_15  and  C_16 
REMARK    6  A    between atoms: C_16  and  C_17 
ROOT
HETATM    1  C   UNL     1       4.679  27.588  51.200  1.00  0.00    -0.036 A 
HETATM    2  C   UNL     1       4.458  27.840  52.562  1.00  0.00     0.012 A 
HETATM    3  C   UNL     1       4.789  26.888  53.534  1.00  0.00     0.037 A 
HETATM    4  C   UNL     1       5.334  25.663  53.156  1.00  0.00     0.069 A 
HETATM    5  C   UNL     1       5.568  25.407  51.805  1.00  0.00     0.037 A 
HETATM    6  C   UNL     1       5.238  26.354  50.834  1.00  0.00     0.012 A 
ENDROOT
BRANCH   1   7
HETATM    7  C   UNL     1       4.278  28.618  50.158  1.00  0.00     0.113 C 
HETATM    8  C   UNL     1       5.500  29.229  49.462  1.00  0.00     0.037 C 
BRANCH   7   9
HETATM    9  N   UNL     1       3.359  28.007  49.210  1.00  0.00    -0.352 N 
HETATM   10  C   UNL     1       2.004  28.208  49.273  1.00  0.00     0.225 C 
HETATM   11  O   UNL     1       1.443  28.948  50.068  1.00  0.00    -0.273 OA
HETATM   12  H   UNL     1       3.731  27.318  48.571  1.00  0.00     0.163 HD
BRANCH  10  13
HETATM   13  C   UNL     1       1.236  27.443  48.267  1.00  0.00     0.119 A 
HETATM   14  C   UNL     1       0.913  28.057  46.931  1.00  0.00     0.126 A 
HETATM   15 CL   UNL     1      -0.673  27.703  46.243  1.00  0.00    -0.101 Cl
HETATM   16 CL   UNL     1       1.506  29.653  46.501  1.00  0.00    -0.101 Cl
HETATM   17  C   UNL     1       1.904  26.933  47.009  1.00  0.00     0.060 A 
ENDBRANCH  10  13
ENDBRANCH   7   9
ENDBRANCH   1   7
BRANCH   4  18
HETATM   18  O   UNL     1       5.691  24.647  53.999  1.00  0.00    -0.347 OA
BRANCH  18  19
HETATM   19  C   UNL     1       7.086  24.474  54.247  1.00  0.00     0.215 C 
BRANCH  19  20
HETATM   20  C   UNL     1       7.435  23.008  54.231  1.00  0.00    -0.017 A 
HETATM   21  C   UNL     1       7.509  22.259  55.403  1.00  0.00     0.125 A 
HETATM   22  N   UNL     1       7.871  20.956  55.454  1.00  0.00    -0.272 NA
HETATM   23  C   UNL     1       8.184  20.367  54.281  1.00  0.00     0.116 A 
HETATM   24  C   UNL     1       8.157  21.022  53.061  1.00  0.00     0.020 A 
HETATM   25  C   UNL     1       7.783  22.363  53.040  1.00  0.00     0.012 A 
ENDBRANCH  19  20
ENDBRANCH  18  19
ENDBRANCH   4  18
TORSDOF 6
ENDMDL
MODEL 8
REMARK VINA RESULT:      -7.4      4.454      9.345
REMARK  6 active torsions:
REMARK  status: ('A' for Active; 'I' for Inactive)
REMARK    1  A    between atoms: C_2  and  N_3 
REMARK    2  A    between atoms: C_2  and  C_11 
REMARK       I    between atoms: N_3  and  C_4 
REMARK    3  A    between atoms: C_4  and  C_5 
REMARK    4  A    between atoms: C_14  and  O_15 
REMARK    5  A    between atoms: O_15  and  C_16 
REMARK    6  A    between atoms: C_16  and  C_17 
ROOT
HETATM    1  C   UNL     1       7.960  28.184  57.196  1.00  0.00    -0.036 A 
HETATM    2  C   UNL     1       9.150  28.893  57.417  1.00  0.00     0.012 A 
HETATM    3  C   UNL     1       9.132  30.177  57.976  1.00  0.00     0.037 A 
HETATM    4  C   UNL     1       7.920  30.777  58.310  1.00  0.00     0.069 A 
HETATM    5  C   UNL     1       6.731  30.076  58.105  1.00  0.00     0.037 A 
HETATM    6  C   UNL     1       6.747  28.796  57.546  1.00  0.00     0.012 A 
ENDROOT
BRANCH   1   7
HETATM    7  C   UNL     1       7.999  26.808  56.554  1.00  0.00     0.113 C 
HETATM    8  C   UNL     1       7.885  25.690  57.596  1.00  0.00     0.037 C 
BRANCH   7   9
HETATM    9  N   UNL     1       6.955  26.722  55.545  1.00  0.00    -0.352 N 
HETATM   10  C   UNL     1       7.133  27.187  54.268  1.00  0.00     0.225 C 
HETATM   11  O   UNL     1       8.176  27.653  53.832  1.00  0.00    -0.273 OA
HETATM   12  H   UNL     1       6.036  26.423  55.843  1.00  0.00     0.163 HD
BRANCH  10  13
HETATM   13  C   UNL     1       5.930  27.073  53.414  1.00  0.00     0.119 A 
HETATM   14  C   UNL     1       5.933  26.162  52.215  1.00  0.00     0.126 A 
HETATM   15 CL   UNL     1       5.091  26.727  50.771  1.00  0.00    -0.101 Cl
HETATM   16 CL   UNL     1       7.323  25.153  51.849  1.00  0.00    -0.101 Cl
HETATM   17  C   UNL     1       5.101  25.809  53.412  1.00  0.00     0.060 A 
ENDBRANCH  10  13
ENDBRANCH   7   9
ENDBRANCH   1   7
BRANCH   4  18
HETATM   18  O   UNL     1       7.760  32.023  58.850  1.00  0.00    -0.347 OA
BRANCH  18  19
HETATM   19  C   UNL     1       6.549  32.266  59.565  1.00  0.00     0.215 C 
BRANCH  19  20
HETATM   20  C   UNL     1       6.841  32.430  61.034  1.00  0.00    -0.017 A 
HETATM   21  C   UNL     1       5.914  32.994  61.908  1.00  0.00     0.125 A 
HETATM   22  N   UNL     1       6.142  33.216  63.223  1.00  0.00    -0.272 NA
HETATM   23  C   UNL     1       7.356  32.865  63.695  1.00  0.00     0.116 A 
HETATM   24  C   UNL     1       8.354  32.310  62.912  1.00  0.00     0.020 A 
HETATM   25  C   UNL     1       8.092  32.096  61.562  1.00  0.00     0.012 A 
ENDBRANCH  19  20
ENDBRANCH  18  19
ENDBRANCH   4  18
TORSDOF 6
ENDMDL
MODEL 9
REMARK VINA RESULT:      -7.4      3.282      4.565
REMARK  6 active torsions:
REMARK  status: ('A' for Active; 'I' for Inactive)
REMARK    1  A    between atoms: C_2  and  N_3 
REMARK    2  A    between atoms: C_2  and  C_11 
REMARK       I    between atoms: N_3  and  C_4 
REMARK    3  A    between atoms: C_4  and  C_5 
REMARK    4  A    between atoms: C_14  and  O_15 
REMARK    5  A    between atoms: O_15  and  C_16 
REMARK    6  A    between atoms: C_16  and  C_17 
ROOT
HETATM    1  C   UNL     1       6.443  27.949  56.951  1.00  0.00    -0.036 A 
HETATM    2  C   UNL     1       7.786  27.636  57.207  1.00  0.00     0.012 A 
HETATM    3  C   UNL     1       8.223  26.306  57.239  1.00  0.00     0.037 A 
HETATM    4  C   UNL     1       7.318  25.268  57.028  1.00  0.00     0.069 A 
HETATM    5  C   UNL     1       5.983  25.569  56.761  1.00  0.00     0.037 A 
HETATM    6  C   UNL     1       5.545  26.894  56.730  1.00  0.00     0.012 A 
ENDROOT
BRANCH   1   7
HETATM    7  C   UNL     1       5.982  29.396  56.958  1.00  0.00     0.113 C 
HETATM    8  C   UNL     1       6.974  30.308  57.689  1.00  0.00     0.037 C 
BRANCH   7   9
HETATM    9  N   UNL     1       5.750  29.831  55.589  1.00  0.00    -0.352 N 
HETATM   10  C   UNL     1       4.498  30.140  55.123  1.00  0.00     0.225 C 
HETATM   11  O   UNL     1       3.481  30.145  55.800  1.00  0.00    -0.273 OA
HETATM   12  H   UNL     1       6.524  29.776  54.940  1.00  0.00     0.163 HD
BRANCH  10  13
HETATM   13  C   UNL     1       4.462  30.490  53.686  1.00  0.00     0.119 A 
HETATM   14  C   UNL     1       4.472  29.407  52.640  1.00  0.00     0.126 A 
HETATM   15 CL   UNL     1       5.403  29.713  51.172  1.00  0.00    -0.101 Cl
HETATM   16 CL   UNL     1       4.443  27.711  53.093  1.00  0.00    -0.101 Cl
HETATM   17  C   UNL     1       3.228  30.217  52.855  1.00  0.00     0.060 A 
ENDBRANCH  10  13
ENDBRANCH   7   9
ENDBRANCH   1   7
BRANCH   4  18
HETATM   18  O   UNL     1       7.609  23.932  57.042  1.00  0.00    -0.347 OA
BRANCH  18  19
HETATM   19  C   UNL     1       8.798  23.524  56.366  1.00  0.00     0.215 C 
BRANCH  19  20
HETATM   20  C   UNL     1       8.463  22.530  55.285  1.00  0.00    -0.017 A 
HETATM   21  C   UNL     1       8.494  21.157  55.514  1.00  0.00     0.125 A 
HETATM   22  N   UNL     1       8.257  20.219  54.567  1.00  0.00    -0.272 NA
HETATM   23  C   UNL     1       7.980  20.668  53.326  1.00  0.00     0.116 A 
HETATM   24  C   UNL     1       7.936  22.010  52.986  1.00  0.00     0.020 A 
HETATM   25  C   UNL     1       8.187  22.951  53.980  1.00  0.00     0.012 A 
ENDBRANCH  19  20
ENDBRANCH  18  19
ENDBRANCH   4  18
TORSDOF 6
ENDMDL
MODEL 10
REMARK VINA RESULT:      -7.4      4.523     10.750
REMARK  6 active torsions:
REMARK  status: ('A' for Active; 'I' for Inactive)
REMARK    1  A    between atoms: C_2  and  N_3 
REMARK    2  A    between atoms: C_2  and  C_11 
REMARK       I    between atoms: N_3  and  C_4 
REMARK    3  A    between atoms: C_4  and  C_5 
REMARK    4  A    between atoms: C_14  and  O_15 
REMARK    5  A    between atoms: O_15  and  C_16 
REMARK    6  A    between atoms: C_16  and  C_17 
ROOT
HETATM    1  C   UNL     1       8.374  31.476  59.500  1.00  0.00    -0.036 A 
HETATM    2  C   UNL     1       7.038  31.877  59.647  1.00  0.00     0.012 A 
HETATM    3  C   UNL     1       6.590  32.470  60.834  1.00  0.00     0.037 A 
HETATM    4  C   UNL     1       7.470  32.659  61.898  1.00  0.00     0.069 A 
HETATM    5  C   UNL     1       8.804  32.274  61.757  1.00  0.00     0.037 A 
HETATM    6  C   UNL     1       9.252  31.681  60.575  1.00  0.00     0.012 A 
ENDROOT
BRANCH   1   7
HETATM    7  C   UNL     1       8.831  30.801  58.218  1.00  0.00     0.113 C 
HETATM    8  C   UNL     1      10.341  30.950  58.004  1.00  0.00     0.037 C 
BRANCH   7   9
HETATM    9  N   UNL     1       8.418  29.406  58.239  1.00  0.00    -0.352 N 
HETATM   10  C   UNL     1       7.443  28.921  57.407  1.00  0.00     0.225 C 
HETATM   11  O   UNL     1       6.875  29.571  56.541  1.00  0.00    -0.273 OA
HETATM   12  H   UNL     1       8.779  28.819  58.979  1.00  0.00     0.163 HD
BRANCH  10  13
HETATM   13  C   UNL     1       7.116  27.496  57.631  1.00  0.00     0.119 A 
HETATM   14  C   UNL     1       6.989  26.553  56.465  1.00  0.00     0.126 A 
HETATM   15 CL   UNL     1       5.723  25.326  56.554  1.00  0.00    -0.101 Cl
HETATM   16 CL   UNL     1       7.304  27.095  54.825  1.00  0.00    -0.101 Cl
HETATM   17  C   UNL     1       8.153  26.420  57.401  1.00  0.00     0.060 A 
ENDBRANCH  10  13
ENDBRANCH   7   9
ENDBRANCH   1   7
BRANCH   4  18
HETATM   18  O   UNL     1       7.162  33.212  63.109  1.00  0.00    -0.347 OA
BRANCH  18  19
HETATM   19  C   UNL     1       5.917  32.831  63.694  1.00  0.00     0.215 C 
BRANCH  19  20
HETATM   20  C   UNL     1       5.765  33.470  65.049  1.00  0.00    -0.017 A 
HETATM   21  C   UNL     1       6.861  33.711  65.874  1.00  0.00     0.125 A 
HETATM   22  N   UNL     1       6.779  34.230  67.121  1.00  0.00    -0.272 NA
HETATM   23  C   UNL     1       5.543  34.520  67.577  1.00  0.00     0.116 A 
HETATM   24  C   UNL     1       4.386  34.308  66.846  1.00  0.00     0.020 A 
HETATM   25  C   UNL     1       4.502  33.770  65.567  1.00  0.00     0.012 A 
ENDBRANCH  19  20
ENDBRANCH  18  19
ENDBRANCH   4  18
TORSDOF 6
ENDMDL
