MODEL 1
REMARK VINA RESULT:      -8.8      0.000      0.000
REMARK  9 active torsions:
REMARK  status: ('A' for Active; 'I' for Inactive)
REMARK    1  A    between atoms: C_2  and  C_3 
REMARK    2  A    between atoms: C_3  and  C_4 
REMARK    3  A    between atoms: C_4  and  C_5 
REMARK    4  A    between atoms: C_5  and  N_6 
REMARK    5  A    between atoms: C_9  and  C_10 
REMARK       I    between atoms: C_10  and  N_11 
REMARK    6  A    between atoms: N_11  and  N_12 
REMARK    7  A    between atoms: C_13  and  C_14 
REMARK    8  A    between atoms: C_24  and  O_25 
REMARK    9  A    between atoms: C_28  and  O_29 
ROOT
HETATM    1  C   UNL     1       4.157  30.083  53.641  1.00  0.00     0.280 C 
HETATM    2  N   UNL     1       5.199  29.952  54.551  1.00  0.00    -0.242 N 
HETATM    3  O   UNL     1       3.089  30.648  53.837  1.00  0.00    -0.266 OA
HETATM    4  H   UNL     1       6.003  29.378  54.313  1.00  0.00     0.192 HD
ENDROOT
BRANCH   1   5
HETATM    5  C   UNL     1       4.436  29.368  52.376  1.00  0.00     0.135 A 
HETATM    6  C   UNL     1       4.638  27.900  52.407  1.00  0.00     0.266 A 
HETATM    7  N   UNL     1       4.858  27.249  51.192  1.00  0.00    -0.313 N 
HETATM    8  O   UNL     1       4.575  27.304  53.481  1.00  0.00    -0.267 OA
HETATM    9  C   UNL     1       4.842  27.955  49.945  1.00  0.00     0.050 A 
HETATM   10  C   UNL     1       4.656  29.352  49.952  1.00  0.00     0.025 A 
HETATM   11  C   UNL     1       4.994  27.306  48.707  1.00  0.00     0.031 A 
HETATM   12  C   UNL     1       4.471  30.059  51.226  1.00  0.00     0.099 A 
HETATM   13  C   UNL     1       4.643  30.059  48.735  1.00  0.00     0.016 A 
HETATM   14  C   UNL     1       4.805  29.399  47.520  1.00  0.00     0.001 A 
HETATM   15  C   UNL     1       4.978  28.023  47.507  1.00  0.00     0.002 A 
BRANCH   7  16
HETATM   16  C   UNL     1       5.117  25.809  51.262  1.00  0.00     0.132 C 
BRANCH  16  17
HETATM   17  C   UNL     1       6.534  25.444  51.727  1.00  0.00     0.020 C 
BRANCH  17  18
HETATM   18  C   UNL     1       6.578  24.407  52.848  1.00  0.00     0.001 C 
BRANCH  18  19
HETATM   19  C   UNL     1       7.997  23.861  53.028  1.00  0.00    -0.004 C 
HETATM   20  C   UNL     1       7.991  22.374  53.339  1.00  0.00     0.005 C 
ENDBRANCH  18  19
ENDBRANCH  17  18
ENDBRANCH  16  17
ENDBRANCH   7  16
BRANCH  12  21
HETATM   21  O   UNL     1       4.317  31.432  51.132  1.00  0.00    -0.359 OA
HETATM   22  H   UNL     1       5.188  31.873  51.171  1.00  0.00     0.218 HD
ENDBRANCH  12  21
ENDBRANCH   1   5
BRANCH   2  23
HETATM   23  N   UNL     1       5.133  30.588  55.755  1.00  0.00    -0.176 NA
HETATM   24  C   UNL     1       5.679  30.054  56.806  1.00  0.00     0.069 C 
HETATM   25  C   UNL     1       5.517  30.823  58.101  1.00  0.00     0.073 C 
BRANCH  24  26
HETATM   26  C   UNL     1       6.461  28.782  56.881  1.00  0.00     0.092 A 
HETATM   27  C   UNL     1       7.928  28.829  57.153  1.00  0.00     0.261 A 
HETATM   28  O   UNL     1       8.515  29.889  57.345  1.00  0.00    -0.267 OA
HETATM   29  N   UNL     1       8.599  27.640  57.194  1.00  0.00    -0.322 N 
HETATM   30  C   UNL     1       7.987  26.398  57.008  1.00  0.00     0.048 A 
HETATM   31  H   UNL     1       9.591  27.696  57.388  1.00  0.00     0.169 HD
HETATM   32  C   UNL     1       6.613  26.341  56.738  1.00  0.00     0.025 A 
HETATM   33  C   UNL     1       8.753  25.235  57.108  1.00  0.00     0.030 A 
HETATM   34  C   UNL     1       6.015  25.084  56.576  1.00  0.00     0.016 A 
HETATM   35  C   UNL     1       5.854  27.602  56.647  1.00  0.00     0.096 A 
HETATM   36  C   UNL     1       6.775  23.917  56.682  1.00  0.00     0.001 A 
HETATM   37  C   UNL     1       8.142  23.992  56.945  1.00  0.00     0.002 A 
BRANCH  35  38
HETATM   38  O   UNL     1       4.510  27.457  56.352  1.00  0.00    -0.359 OA
HETATM   39  H   UNL     1       3.962  27.687  57.131  1.00  0.00     0.218 HD
ENDBRANCH  35  38
ENDBRANCH  24  26
ENDBRANCH   2  23
TORSDOF 9
ENDMDL
MODEL 2
REMARK VINA RESULT:      -8.5      1.879      6.845
REMARK  9 active torsions:
REMARK  status: ('A' for Active; 'I' for Inactive)
REMARK    1  A    between atoms: C_2  and  C_3 
REMARK    2  A    between atoms: C_3  and  C_4 
REMARK    3  A    between atoms: C_4  and  C_5 
REMARK    4  A    between atoms: C_5  and  N_6 
REMARK    5  A    between atoms: C_9  and  C_10 
REMARK       I    between atoms: C_10  and  N_11 
REMARK    6  A    between atoms: N_11  and  N_12 
REMARK    7  A    between atoms: C_13  and  C_14 
REMARK    8  A    between atoms: C_24  and  O_25 
REMARK    9  A    between atoms: C_28  and  O_29 
ROOT
HETATM    1  C   UNL     1       4.293  29.567  54.549  1.00  0.00     0.280 C 
HETATM    2  N   UNL     1       4.703  30.100  53.334  1.00  0.00    -0.242 N 
HETATM    3  O   UNL     1       3.483  30.062  55.322  1.00  0.00    -0.266 OA
HETATM    4  H   UNL     1       5.456  29.651  52.817  1.00  0.00     0.192 HD
ENDROOT
BRANCH   1   5
HETATM    5  C   UNL     1       5.024  28.324  54.882  1.00  0.00     0.135 A 
HETATM    6  C   UNL     1       5.051  27.218  53.897  1.00  0.00     0.266 A 
HETATM    7  N   UNL     1       5.784  26.075  54.222  1.00  0.00    -0.313 N 
HETATM    8  O   UNL     1       4.464  27.350  52.823  1.00  0.00    -0.267 OA
HETATM    9  C   UNL     1       6.529  25.981  55.442  1.00  0.00     0.050 A 
HETATM   10  C   UNL     1       6.475  27.047  56.362  1.00  0.00     0.025 A 
HETATM   11  C   UNL     1       7.326  24.866  55.756  1.00  0.00     0.031 A 
HETATM   12  C   UNL     1       5.669  28.237  56.056  1.00  0.00     0.099 A 
HETATM   13  C   UNL     1       7.198  26.965  57.567  1.00  0.00     0.016 A 
HETATM   14  C   UNL     1       7.974  25.848  57.864  1.00  0.00     0.001 A 
HETATM   15  C   UNL     1       8.040  24.801  56.956  1.00  0.00     0.002 A 
BRANCH   7  16
HETATM   16  C   UNL     1       5.740  24.975  53.256  1.00  0.00     0.132 C 
BRANCH  16  17
HETATM   17  C   UNL     1       6.776  25.083  52.128  1.00  0.00     0.020 C 
BRANCH  17  18
HETATM   18  C   UNL     1       8.001  24.190  52.314  1.00  0.00     0.001 C 
BRANCH  18  19
HETATM   19  C   UNL     1       7.599  22.827  52.883  1.00  0.00    -0.004 C 
HETATM   20  C   UNL     1       8.749  22.165  53.622  1.00  0.00     0.005 C 
ENDBRANCH  18  19
ENDBRANCH  17  18
ENDBRANCH  16  17
ENDBRANCH   7  16
BRANCH  12  21
HETATM   21  O   UNL     1       5.661  29.221  57.029  1.00  0.00    -0.359 OA
HETATM   22  H   UNL     1       5.637  30.106  56.615  1.00  0.00     0.218 HD
ENDBRANCH  12  21
ENDBRANCH   1   5
BRANCH   2  23
HETATM   23  N   UNL     1       4.102  31.221  52.845  1.00  0.00    -0.176 NA
HETATM   24  C   UNL     1       3.721  31.271  51.604  1.00  0.00     0.069 C 
HETATM   25  C   UNL     1       3.098  32.576  51.153  1.00  0.00     0.073 C 
BRANCH  24  26
HETATM   26  C   UNL     1       3.810  30.187  50.579  1.00  0.00     0.092 A 
HETATM   27  C   UNL     1       5.133  29.839  49.983  1.00  0.00     0.261 A 
HETATM   28  O   UNL     1       6.167  30.404  50.329  1.00  0.00    -0.267 OA
HETATM   29  N   UNL     1       5.158  28.852  49.038  1.00  0.00    -0.322 N 
HETATM   30  C   UNL     1       4.024  28.154  48.617  1.00  0.00     0.048 A 
HETATM   31  H   UNL     1       6.068  28.628  48.653  1.00  0.00     0.169 HD
HETATM   32  C   UNL     1       2.773  28.481  49.158  1.00  0.00     0.025 A 
HETATM   33  C   UNL     1       4.159  27.134  47.673  1.00  0.00     0.030 A 
HETATM   34  C   UNL     1       1.652  27.754  48.739  1.00  0.00     0.016 A 
HETATM   35  C   UNL     1       2.693  29.565  50.155  1.00  0.00     0.096 A 
HETATM   36  C   UNL     1       1.782  26.728  47.799  1.00  0.00     0.001 A 
HETATM   37  C   UNL     1       3.033  26.420  47.265  1.00  0.00     0.002 A 
BRANCH  35  38
HETATM   38  O   UNL     1       1.419  29.840  50.620  1.00  0.00    -0.359 OA
HETATM   39  H   UNL     1       1.078  29.090  51.150  1.00  0.00     0.218 HD
ENDBRANCH  35  38
ENDBRANCH  24  26
ENDBRANCH   2  23
TORSDOF 9
ENDMDL
MODEL 3
REMARK VINA RESULT:      -8.4      1.883      6.929
REMARK  9 active torsions:
REMARK  status: ('A' for Active; 'I' for Inactive)
REMARK    1  A    between atoms: C_2  and  C_3 
REMARK    2  A    between atoms: C_3  and  C_4 
REMARK    3  A    between atoms: C_4  and  C_5 
REMARK    4  A    between atoms: C_5  and  N_6 
REMARK    5  A    between atoms: C_9  and  C_10 
REMARK       I    between atoms: C_10  and  N_11 
REMARK    6  A    between atoms: N_11  and  N_12 
REMARK    7  A    between atoms: C_13  and  C_14 
REMARK    8  A    between atoms: C_24  and  O_25 
REMARK    9  A    between atoms: C_28  and  O_29 
ROOT
HETATM    1  C   UNL     1       4.167  28.652  53.587  1.00  0.00     0.280 C 
HETATM    2  N   UNL     1       4.850  29.843  53.380  1.00  0.00    -0.242 N 
HETATM    3  O   UNL     1       2.957  28.487  53.510  1.00  0.00    -0.266 OA
HETATM    4  H   UNL     1       5.849  29.888  53.565  1.00  0.00     0.192 HD
ENDROOT
BRANCH   1   5
HETATM    5  C   UNL     1       5.073  27.562  54.011  1.00  0.00     0.135 A 
HETATM    6  C   UNL     1       5.670  27.607  55.367  1.00  0.00     0.266 A 
HETATM    7  N   UNL     1       6.487  26.544  55.754  1.00  0.00    -0.313 N 
HETATM    8  O   UNL     1       5.405  28.549  56.113  1.00  0.00    -0.267 OA
HETATM    9  C   UNL     1       6.711  25.417  54.898  1.00  0.00     0.050 A 
HETATM   10  C   UNL     1       6.137  25.410  53.611  1.00  0.00     0.025 A 
HETATM   11  C   UNL     1       7.476  24.306  55.296  1.00  0.00     0.031 A 
HETATM   12  C   UNL     1       5.313  26.544  53.171  1.00  0.00     0.099 A 
HETATM   13  C   UNL     1       6.353  24.311  52.758  1.00  0.00     0.016 A 
HETATM   14  C   UNL     1       7.122  23.225  53.167  1.00  0.00     0.001 A 
HETATM   15  C   UNL     1       7.680  23.223  54.437  1.00  0.00     0.002 A 
BRANCH   7  16
HETATM   16  C   UNL     1       7.111  26.648  57.075  1.00  0.00     0.132 C 
BRANCH  16  17
HETATM   17  C   UNL     1       8.539  27.212  57.056  1.00  0.00     0.020 C 
BRANCH  17  18
HETATM   18  C   UNL     1       8.632  28.694  57.417  1.00  0.00     0.001 C 
BRANCH  18  19
HETATM   19  C   UNL     1       9.541  29.436  56.434  1.00  0.00    -0.004 C 
HETATM   20  C   UNL     1      10.910  29.710  57.032  1.00  0.00     0.005 C 
ENDBRANCH  18  19
ENDBRANCH  17  18
ENDBRANCH  16  17
ENDBRANCH   7  16
BRANCH  12  21
HETATM   21  O   UNL     1       4.810  26.454  51.884  1.00  0.00    -0.359 OA
HETATM   22  H   UNL     1       5.351  26.990  51.272  1.00  0.00     0.218 HD
ENDBRANCH  12  21
ENDBRANCH   1   5
BRANCH   2  23
HETATM   23  N   UNL     1       4.179  30.944  52.938  1.00  0.00    -0.176 NA
HETATM   24  C   UNL     1       3.821  31.036  51.693  1.00  0.00     0.069 C 
HETATM   25  C   UNL     1       3.114  32.316  51.297  1.00  0.00     0.073 C 
BRANCH  24  26
HETATM   26  C   UNL     1       4.010  30.019  50.613  1.00  0.00     0.092 A 
HETATM   27  C   UNL     1       5.333  29.898  49.933  1.00  0.00     0.261 A 
HETATM   28  O   UNL     1       6.290  30.596  50.253  1.00  0.00    -0.267 OA
HETATM   29  N   UNL     1       5.448  28.964  48.942  1.00  0.00    -0.322 N 
HETATM   30  C   UNL     1       4.406  28.121  48.546  1.00  0.00     0.048 A 
HETATM   31  H   UNL     1       6.357  28.895  48.501  1.00  0.00     0.169 HD
HETATM   32  C   UNL     1       3.155  28.235  49.167  1.00  0.00     0.025 A 
HETATM   33  C   UNL     1       4.635  27.172  47.549  1.00  0.00     0.030 A 
HETATM   34  C   UNL     1       2.130  27.366  48.771  1.00  0.00     0.016 A 
HETATM   35  C   UNL     1       2.973  29.254  50.217  1.00  0.00     0.096 A 
HETATM   36  C   UNL     1       2.355  26.410  47.777  1.00  0.00     0.001 A 
HETATM   37  C   UNL     1       3.604  26.314  47.166  1.00  0.00     0.002 A 
BRANCH  35  38
HETATM   38  O   UNL     1       1.701  29.317  50.759  1.00  0.00    -0.359 OA
HETATM   39  H   UNL     1       1.471  28.468  51.191  1.00  0.00     0.218 HD
ENDBRANCH  35  38
ENDBRANCH  24  26
ENDBRANCH   2  23
TORSDOF 9
ENDMDL
MODEL 4
REMARK VINA RESULT:      -8.3      5.571      9.887
REMARK  9 active torsions:
REMARK  status: ('A' for Active; 'I' for Inactive)
REMARK    1  A    between atoms: C_2  and  C_3 
REMARK    2  A    between atoms: C_3  and  C_4 
REMARK    3  A    between atoms: C_4  and  C_5 
REMARK    4  A    between atoms: C_5  and  N_6 
REMARK    5  A    between atoms: C_9  and  C_10 
REMARK       I    between atoms: C_10  and  N_11 
REMARK    6  A    between atoms: N_11  and  N_12 
REMARK    7  A    between atoms: C_13  and  C_14 
REMARK    8  A    between atoms: C_24  and  O_25 
REMARK    9  A    between atoms: C_28  and  O_29 
ROOT
HETATM    1  C   UNL     1       4.010  32.341  58.521  1.00  0.00     0.280 C 
HETATM    2  N   UNL     1       3.914  33.654  58.079  1.00  0.00    -0.242 N 
HETATM    3  O   UNL     1       3.104  31.665  58.989  1.00  0.00    -0.266 OA
HETATM    4  H   UNL     1       4.755  34.152  57.798  1.00  0.00     0.192 HD
ENDROOT
BRANCH   1   5
HETATM    5  C   UNL     1       5.398  31.834  58.447  1.00  0.00     0.135 A 
HETATM    6  C   UNL     1       6.383  32.279  59.460  1.00  0.00     0.266 A 
HETATM    7  N   UNL     1       7.674  31.751  59.389  1.00  0.00    -0.313 N 
HETATM    8  O   UNL     1       6.033  33.064  60.341  1.00  0.00    -0.267 OA
HETATM    9  C   UNL     1       8.034  30.773  58.406  1.00  0.00     0.050 A 
HETATM   10  C   UNL     1       7.076  30.378  57.450  1.00  0.00     0.025 A 
HETATM   11  C   UNL     1       9.308  30.181  58.360  1.00  0.00     0.031 A 
HETATM   12  C   UNL     1       5.727  30.961  57.482  1.00  0.00     0.099 A 
HETATM   13  C   UNL     1       7.418  29.422  56.475  1.00  0.00     0.016 A 
HETATM   14  C   UNL     1       8.688  28.854  56.441  1.00  0.00     0.001 A 
HETATM   15  C   UNL     1       9.631  29.232  57.386  1.00  0.00     0.002 A 
BRANCH   7  16
HETATM   16  C   UNL     1       8.641  32.258  60.365  1.00  0.00     0.132 C 
BRANCH  16  17
HETATM   17  C   UNL     1       9.036  31.245  61.448  1.00  0.00     0.020 C 
BRANCH  17  18
HETATM   18  C   UNL     1       8.246  31.377  62.749  1.00  0.00     0.001 C 
BRANCH  18  19
HETATM   19  C   UNL     1       7.922  32.844  63.042  1.00  0.00    -0.004 C 
HETATM   20  C   UNL     1       7.524  33.052  64.493  1.00  0.00     0.005 C 
ENDBRANCH  18  19
ENDBRANCH  17  18
ENDBRANCH  16  17
ENDBRANCH   7  16
BRANCH  12  21
HETATM   21  O   UNL     1       4.863  30.525  56.492  1.00  0.00    -0.359 OA
HETATM   22  H   UNL     1       5.362  30.067  55.787  1.00  0.00     0.218 HD
ENDBRANCH  12  21
ENDBRANCH   1   5
BRANCH   2  23
HETATM   23  N   UNL     1       2.698  34.268  58.032  1.00  0.00    -0.176 NA
HETATM   24  C   UNL     1       2.305  35.017  59.019  1.00  0.00     0.069 C 
HETATM   25  C   UNL     1       0.923  35.622  58.884  1.00  0.00     0.073 C 
BRANCH  24  26
HETATM   26  C   UNL     1       3.064  35.362  60.260  1.00  0.00     0.092 A 
HETATM   27  C   UNL     1       4.011  36.515  60.252  1.00  0.00     0.261 A 
HETATM   28  O   UNL     1       4.170  37.214  59.256  1.00  0.00    -0.267 OA
HETATM   29  N   UNL     1       4.693  36.778  61.407  1.00  0.00    -0.322 N 
HETATM   30  C   UNL     1       4.541  36.038  62.582  1.00  0.00     0.048 A 
HETATM   31  H   UNL     1       5.323  37.570  61.380  1.00  0.00     0.169 HD
HETATM   32  C   UNL     1       3.665  34.943  62.598  1.00  0.00     0.025 A 
HETATM   33  C   UNL     1       5.254  36.410  63.723  1.00  0.00     0.030 A 
HETATM   34  C   UNL     1       3.511  34.227  63.793  1.00  0.00     0.016 A 
HETATM   35  C   UNL     1       2.936  34.599  61.364  1.00  0.00     0.096 A 
HETATM   36  C   UNL     1       4.218  34.600  64.939  1.00  0.00     0.001 A 
HETATM   37  C   UNL     1       5.089  35.687  64.904  1.00  0.00     0.002 A 
BRANCH  35  38
HETATM   38  O   UNL     1       2.113  33.491  61.459  1.00  0.00    -0.359 OA
HETATM   39  H   UNL     1       1.174  33.752  61.361  1.00  0.00     0.218 HD
ENDBRANCH  35  38
ENDBRANCH  24  26
ENDBRANCH   2  23
TORSDOF 9
ENDMDL
MODEL 5
REMARK VINA RESULT:      -8.3      1.850      6.521
REMARK  9 active torsions:
REMARK  status: ('A' for Active; 'I' for Inactive)
REMARK    1  A    between atoms: C_2  and  C_3 
REMARK    2  A    between atoms: C_3  and  C_4 
REMARK    3  A    between atoms: C_4  and  C_5 
REMARK    4  A    between atoms: C_5  and  N_6 
REMARK    5  A    between atoms: C_9  and  C_10 
REMARK       I    between atoms: C_10  and  N_11 
REMARK    6  A    between atoms: N_11  and  N_12 
REMARK    7  A    between atoms: C_13  and  C_14 
REMARK    8  A    between atoms: C_24  and  O_25 
REMARK    9  A    between atoms: C_28  and  O_29 
ROOT
HETATM    1  C   UNL     1       4.299  30.621  55.452  1.00  0.00     0.280 C 
HETATM    2  N   UNL     1       4.707  30.515  54.128  1.00  0.00    -0.242 N 
HETATM    3  O   UNL     1       3.165  30.861  55.844  1.00  0.00    -0.266 OA
HETATM    4  H   UNL     1       5.695  30.408  53.914  1.00  0.00     0.192 HD
ENDROOT
BRANCH   1   5
HETATM    5  C   UNL     1       5.435  30.493  56.391  1.00  0.00     0.135 A 
HETATM    6  C   UNL     1       6.433  29.419  56.174  1.00  0.00     0.266 A 
HETATM    7  N   UNL     1       7.516  29.351  57.052  1.00  0.00    -0.313 N 
HETATM    8  O   UNL     1       6.299  28.653  55.221  1.00  0.00    -0.267 OA
HETATM    9  C   UNL     1       7.695  30.308  58.103  1.00  0.00     0.050 A 
HETATM   10  C   UNL     1       6.722  31.311  58.288  1.00  0.00     0.025 A 
HETATM   11  C   UNL     1       8.813  30.295  58.955  1.00  0.00     0.031 A 
HETATM   12  C   UNL     1       5.552  31.368  57.402  1.00  0.00     0.099 A 
HETATM   13  C   UNL     1       6.884  32.255  59.320  1.00  0.00     0.016 A 
HETATM   14  C   UNL     1       7.993  32.220  60.159  1.00  0.00     0.001 A 
HETATM   15  C   UNL     1       8.959  31.241  59.974  1.00  0.00     0.002 A 
BRANCH   7  16
HETATM   16  C   UNL     1       8.450  28.241  56.850  1.00  0.00     0.132 C 
BRANCH  16  17
HETATM   17  C   UNL     1       8.044  26.937  57.550  1.00  0.00     0.020 C 
BRANCH  17  18
HETATM   18  C   UNL     1       8.145  25.693  56.668  1.00  0.00     0.001 C 
BRANCH  18  19
HETATM   19  C   UNL     1       8.755  24.524  57.445  1.00  0.00    -0.004 C 
HETATM   20  C   UNL     1       8.384  23.186  56.828  1.00  0.00     0.005 C 
ENDBRANCH  18  19
ENDBRANCH  17  18
ENDBRANCH  16  17
ENDBRANCH   7  16
BRANCH  12  21
HETATM   21  O   UNL     1       4.642  32.375  57.675  1.00  0.00    -0.359 OA
HETATM   22  H   UNL     1       4.743  33.105  57.033  1.00  0.00     0.218 HD
ENDBRANCH  12  21
ENDBRANCH   1   5
BRANCH   2  23
HETATM   23  N   UNL     1       3.784  30.561  53.127  1.00  0.00    -0.176 NA
HETATM   24  C   UNL     1       3.757  29.632  52.218  1.00  0.00     0.069 C 
HETATM   25  C   UNL     1       2.717  29.799  51.130  1.00  0.00     0.073 C 
BRANCH  24  26
HETATM   26  C   UNL     1       4.619  28.414  52.135  1.00  0.00     0.092 A 
HETATM   27  C   UNL     1       5.513  28.218  50.957  1.00  0.00     0.261 A 
HETATM   28  O   UNL     1       5.585  29.048  50.056  1.00  0.00    -0.267 OA
HETATM   29  N   UNL     1       6.268  27.080  50.922  1.00  0.00    -0.322 N 
HETATM   30  C   UNL     1       6.252  26.108  51.926  1.00  0.00     0.048 A 
HETATM   31  H   UNL     1       6.873  26.973  50.117  1.00  0.00     0.169 HD
HETATM   32  C   UNL     1       5.406  26.273  53.030  1.00  0.00     0.025 A 
HETATM   33  C   UNL     1       7.090  24.997  51.816  1.00  0.00     0.030 A 
HETATM   34  C   UNL     1       5.421  25.298  54.036  1.00  0.00     0.016 A 
HETATM   35  C   UNL     1       4.545  27.469  53.093  1.00  0.00     0.096 A 
HETATM   36  C   UNL     1       6.262  24.187  53.935  1.00  0.00     0.001 A 
HETATM   37  C   UNL     1       7.094  24.036  52.826  1.00  0.00     0.002 A 
BRANCH  35  38
HETATM   38  O   UNL     1       3.722  27.541  54.203  1.00  0.00    -0.359 OA
HETATM   39  H   UNL     1       3.635  28.469  54.505  1.00  0.00     0.218 HD
ENDBRANCH  35  38
ENDBRANCH  24  26
ENDBRANCH   2  23
TORSDOF 9
ENDMDL
MODEL 6
REMARK VINA RESULT:      -8.0      2.420      7.333
REMARK  9 active torsions:
REMARK  status: ('A' for Active; 'I' for Inactive)
REMARK    1  A    between atoms: C_2  and  C_3 
REMARK    2  A    between atoms: C_3  and  C_4 
REMARK    3  A    between atoms: C_4  and  C_5 
REMARK    4  A    between atoms: C_5  and  N_6 
REMARK    5  A    between atoms: C_9  and  C_10 
REMARK       I    between atoms: C_10  and  N_11 
REMARK    6  A    between atoms: N_11  and  N_12 
REMARK    7  A    between atoms: C_13  and  C_14 
REMARK    8  A    between atoms: C_24  and  O_25 
REMARK    9  A    between atoms: C_28  and  O_29 
ROOT
HETATM    1  C   UNL     1       5.061  25.019  52.278  1.00  0.00     0.280 C 
HETATM    2  N   UNL     1       5.269  26.029  51.347  1.00  0.00    -0.242 N 
HETATM    3  O   UNL     1       4.310  24.061  52.153  1.00  0.00    -0.266 OA
HETATM    4  H   UNL     1       5.844  26.830  51.595  1.00  0.00     0.192 HD
ENDROOT
BRANCH   1   5
HETATM    5  C   UNL     1       5.805  25.264  53.533  1.00  0.00     0.135 A 
HETATM    6  C   UNL     1       6.925  24.364  53.895  1.00  0.00     0.266 A 
HETATM    7  N   UNL     1       7.635  24.646  55.063  1.00  0.00    -0.313 N 
HETATM    8  O   UNL     1       7.214  23.429  53.149  1.00  0.00    -0.267 OA
HETATM    9  C   UNL     1       7.333  25.791  55.870  1.00  0.00     0.050 A 
HETATM   10  C   UNL     1       6.254  26.622  55.503  1.00  0.00     0.025 A 
HETATM   11  C   UNL     1       8.078  26.129  57.013  1.00  0.00     0.031 A 
HETATM   12  C   UNL     1       5.468  26.311  54.302  1.00  0.00     0.099 A 
HETATM   13  C   UNL     1       5.944  27.747  56.289  1.00  0.00     0.016 A 
HETATM   14  C   UNL     1       6.688  28.059  57.423  1.00  0.00     0.001 A 
HETATM   15  C   UNL     1       7.757  27.251  57.782  1.00  0.00     0.002 A 
BRANCH   7  16
HETATM   16  C   UNL     1       8.695  23.703  55.426  1.00  0.00     0.132 C 
BRANCH  16  17
HETATM   17  C   UNL     1       8.214  22.496  56.245  1.00  0.00     0.020 C 
BRANCH  17  18
HETATM   18  C   UNL     1       8.839  21.166  55.828  1.00  0.00     0.001 C 
BRANCH  18  19
HETATM   19  C   UNL     1       7.971  20.461  54.783  1.00  0.00    -0.004 C 
HETATM   20  C   UNL     1       8.673  20.371  53.438  1.00  0.00     0.005 C 
ENDBRANCH  18  19
ENDBRANCH  17  18
ENDBRANCH  16  17
ENDBRANCH   7  16
BRANCH  12  21
HETATM   21  O   UNL     1       4.417  27.173  54.035  1.00  0.00    -0.359 OA
HETATM   22  H   UNL     1       4.060  27.004  53.142  1.00  0.00     0.218 HD
ENDBRANCH  12  21
ENDBRANCH   1   5
BRANCH   2  23
HETATM   23  N   UNL     1       4.698  25.943  50.112  1.00  0.00    -0.176 NA
HETATM   24  C   UNL     1       4.344  27.021  49.479  1.00  0.00     0.069 C 
HETATM   25  C   UNL     1       3.685  26.813  48.131  1.00  0.00     0.073 C 
BRANCH  24  26
HETATM   26  C   UNL     1       4.528  28.438  49.918  1.00  0.00     0.092 A 
HETATM   27  C   UNL     1       5.529  29.303  49.229  1.00  0.00     0.261 A 
HETATM   28  O   UNL     1       6.197  28.892  48.285  1.00  0.00    -0.267 OA
HETATM   29  N   UNL     1       5.670  30.586  49.680  1.00  0.00    -0.322 N 
HETATM   30  C   UNL     1       4.926  31.123  50.733  1.00  0.00     0.048 A 
HETATM   31  H   UNL     1       6.350  31.156  49.192  1.00  0.00     0.169 HD
HETATM   32  C   UNL     1       3.992  30.316  51.399  1.00  0.00     0.025 A 
HETATM   33  C   UNL     1       5.116  32.457  51.095  1.00  0.00     0.030 A 
HETATM   34  C   UNL     1       3.241  30.880  52.437  1.00  0.00     0.016 A 
HETATM   35  C   UNL     1       3.832  28.914  50.970  1.00  0.00     0.096 A 
HETATM   36  C   UNL     1       3.422  32.217  52.799  1.00  0.00     0.001 A 
HETATM   37  C   UNL     1       4.360  33.004  52.131  1.00  0.00     0.002 A 
BRANCH  35  38
HETATM   38  O   UNL     1       2.910  28.181  51.695  1.00  0.00    -0.359 OA
HETATM   39  H   UNL     1       3.359  27.657  52.391  1.00  0.00     0.218 HD
ENDBRANCH  35  38
ENDBRANCH  24  26
ENDBRANCH   2  23
TORSDOF 9
ENDMDL
MODEL 7
REMARK VINA RESULT:      -8.0      2.373      7.186
REMARK  9 active torsions:
REMARK  status: ('A' for Active; 'I' for Inactive)
REMARK    1  A    between atoms: C_2  and  C_3 
REMARK    2  A    between atoms: C_3  and  C_4 
REMARK    3  A    between atoms: C_4  and  C_5 
REMARK    4  A    between atoms: C_5  and  N_6 
REMARK    5  A    between atoms: C_9  and  C_10 
REMARK       I    between atoms: C_10  and  N_11 
REMARK    6  A    between atoms: N_11  and  N_12 
REMARK    7  A    between atoms: C_13  and  C_14 
REMARK    8  A    between atoms: C_24  and  O_25 
REMARK    9  A    between atoms: C_28  and  O_29 
ROOT
HETATM    1  C   UNL     1       4.876  29.769  52.144  1.00  0.00     0.280 C 
HETATM    2  N   UNL     1       5.928  29.969  51.259  1.00  0.00    -0.242 N 
HETATM    3  O   UNL     1       3.928  30.521  52.325  1.00  0.00    -0.266 OA
HETATM    4  H   UNL     1       6.714  29.324  51.260  1.00  0.00     0.192 HD
ENDROOT
BRANCH   1   5
HETATM    5  C   UNL     1       5.058  28.540  52.948  1.00  0.00     0.135 A 
HETATM    6  C   UNL     1       5.517  27.301  52.278  1.00  0.00     0.266 A 
HETATM    7  N   UNL     1       5.720  26.170  53.071  1.00  0.00    -0.313 N 
HETATM    8  O   UNL     1       5.737  27.314  51.067  1.00  0.00    -0.267 OA
HETATM    9  C   UNL     1       5.540  26.205  54.492  1.00  0.00     0.050 A 
HETATM   10  C   UNL     1       5.093  27.396  55.096  1.00  0.00     0.025 A 
HETATM   11  C   UNL     1       5.803  25.095  55.314  1.00  0.00     0.031 A 
HETATM   12  C   UNL     1       4.829  28.582  54.270  1.00  0.00     0.099 A 
HETATM   13  C   UNL     1       4.907  27.443  56.491  1.00  0.00     0.016 A 
HETATM   14  C   UNL     1       5.164  26.330  57.287  1.00  0.00     0.001 A 
HETATM   15  C   UNL     1       5.614  25.158  56.697  1.00  0.00     0.002 A 
BRANCH   7  16
HETATM   16  C   UNL     1       6.113  24.945  52.371  1.00  0.00     0.132 C 
BRANCH  16  17
HETATM   17  C   UNL     1       7.621  24.821  52.113  1.00  0.00     0.020 C 
BRANCH  17  18
HETATM   18  C   UNL     1       8.302  23.699  52.895  1.00  0.00     0.001 C 
BRANCH  18  19
HETATM   19  C   UNL     1       7.328  22.545  53.147  1.00  0.00    -0.004 C 
HETATM   20  C   UNL     1       8.033  21.200  53.117  1.00  0.00     0.005 C 
ENDBRANCH  18  19
ENDBRANCH  17  18
ENDBRANCH  16  17
ENDBRANCH   7  16
BRANCH  12  21
HETATM   21  O   UNL     1       4.374  29.698  54.951  1.00  0.00    -0.359 OA
HETATM   22  H   UNL     1       4.894  29.831  55.768  1.00  0.00     0.218 HD
ENDBRANCH  12  21
ENDBRANCH   1   5
BRANCH   2  23
HETATM   23  N   UNL     1       5.904  31.029  50.403  1.00  0.00    -0.176 NA
HETATM   24  C   UNL     1       5.155  30.997  49.342  1.00  0.00     0.069 C 
HETATM   25  C   UNL     1       5.230  32.210  48.438  1.00  0.00     0.073 C 
BRANCH  24  26
HETATM   26  C   UNL     1       4.217  29.911  48.922  1.00  0.00     0.092 A 
HETATM   27  C   UNL     1       2.744  30.149  48.961  1.00  0.00     0.261 A 
HETATM   28  O   UNL     1       2.273  31.228  49.306  1.00  0.00    -0.267 OA
HETATM   29  N   UNL     1       1.930  29.119  48.582  1.00  0.00    -0.322 N 
HETATM   30  C   UNL     1       2.402  27.875  48.156  1.00  0.00     0.048 A 
HETATM   31  H   UNL     1       0.935  29.306  48.609  1.00  0.00     0.169 HD
HETATM   32  C   UNL     1       3.782  27.634  48.129  1.00  0.00     0.025 A 
HETATM   33  C   UNL     1       1.489  26.898  47.753  1.00  0.00     0.030 A 
HETATM   34  C   UNL     1       4.235  26.387  47.678  1.00  0.00     0.016 A 
HETATM   35  C   UNL     1       4.698  28.705  48.564  1.00  0.00     0.096 A 
HETATM   36  C   UNL     1       3.326  25.409  47.267  1.00  0.00     0.001 A 
HETATM   37  C   UNL     1       1.956  25.663  47.306  1.00  0.00     0.002 A 
BRANCH  35  38
HETATM   38  O   UNL     1       6.042  28.376  48.531  1.00  0.00    -0.359 OA
HETATM   39  H   UNL     1       6.593  29.175  48.661  1.00  0.00     0.218 HD
ENDBRANCH  35  38
ENDBRANCH  24  26
ENDBRANCH   2  23
TORSDOF 9
ENDMDL
MODEL 8
REMARK VINA RESULT:      -7.8      2.060      7.548
REMARK  9 active torsions:
REMARK  status: ('A' for Active; 'I' for Inactive)
REMARK    1  A    between atoms: C_2  and  C_3 
REMARK    2  A    between atoms: C_3  and  C_4 
REMARK    3  A    between atoms: C_4  and  C_5 
REMARK    4  A    between atoms: C_5  and  N_6 
REMARK    5  A    between atoms: C_9  and  C_10 
REMARK       I    between atoms: C_10  and  N_11 
REMARK    6  A    between atoms: N_11  and  N_12 
REMARK    7  A    between atoms: C_13  and  C_14 
REMARK    8  A    between atoms: C_24  and  O_25 
REMARK    9  A    between atoms: C_28  and  O_29 
ROOT
HETATM    1  C   UNL     1       5.380  25.644  52.146  1.00  0.00     0.280 C 
HETATM    2  N   UNL     1       5.678  26.790  51.419  1.00  0.00    -0.242 N 
HETATM    3  O   UNL     1       4.564  24.784  51.843  1.00  0.00    -0.266 OA
HETATM    4  H   UNL     1       6.305  27.486  51.814  1.00  0.00     0.192 HD
ENDROOT
BRANCH   1   5
HETATM    5  C   UNL     1       6.118  25.596  53.428  1.00  0.00     0.135 A 
HETATM    6  C   UNL     1       6.030  26.750  54.354  1.00  0.00     0.266 A 
HETATM    7  N   UNL     1       6.702  26.657  55.574  1.00  0.00    -0.313 N 
HETATM    8  O   UNL     1       5.350  27.726  54.041  1.00  0.00    -0.267 OA
HETATM    9  C   UNL     1       7.417  25.474  55.951  1.00  0.00     0.050 A 
HETATM   10  C   UNL     1       7.489  24.399  55.044  1.00  0.00     0.025 A 
HETATM   11  C   UNL     1       8.044  25.337  57.202  1.00  0.00     0.031 A 
HETATM   12  C   UNL     1       6.827  24.499  53.736  1.00  0.00     0.099 A 
HETATM   13  C   UNL     1       8.192  23.232  55.400  1.00  0.00     0.016 A 
HETATM   14  C   UNL     1       8.815  23.120  56.640  1.00  0.00     0.001 A 
HETATM   15  C   UNL     1       8.737  24.172  57.541  1.00  0.00     0.002 A 
BRANCH   7  16
HETATM   16  C   UNL     1       6.648  27.838  56.439  1.00  0.00     0.132 C 
BRANCH  16  17
HETATM   17  C   UNL     1       7.857  28.774  56.306  1.00  0.00     0.020 C 
BRANCH  17  18
HETATM   18  C   UNL     1       8.689  28.909  57.581  1.00  0.00     0.001 C 
BRANCH  18  19
HETATM   19  C   UNL     1       9.657  30.091  57.476  1.00  0.00    -0.004 C 
HETATM   20  C   UNL     1      11.019  29.657  56.962  1.00  0.00     0.005 C 
ENDBRANCH  18  19
ENDBRANCH  17  18
ENDBRANCH  16  17
ENDBRANCH   7  16
BRANCH  12  21
HETATM   21  O   UNL     1       6.971  23.400  52.906  1.00  0.00    -0.359 OA
HETATM   22  H   UNL     1       6.380  22.678  53.196  1.00  0.00     0.218 HD
ENDBRANCH  12  21
ENDBRANCH   1   5
BRANCH   2  23
HETATM   23  N   UNL     1       5.124  26.977  50.188  1.00  0.00    -0.176 NA
HETATM   24  C   UNL     1       4.614  28.128  49.868  1.00  0.00     0.069 C 
HETATM   25  C   UNL     1       3.991  28.219  48.491  1.00  0.00     0.073 C 
BRANCH  24  26
HETATM   26  C   UNL     1       4.589  29.375  50.694  1.00  0.00     0.092 A 
HETATM   27  C   UNL     1       5.498  30.508  50.353  1.00  0.00     0.261 A 
HETATM   28  O   UNL     1       6.257  30.459  49.390  1.00  0.00    -0.267 OA
HETATM   29  N   UNL     1       5.448  31.617  51.149  1.00  0.00    -0.322 N 
HETATM   30  C   UNL     1       4.590  31.746  52.245  1.00  0.00     0.048 A 
HETATM   31  H   UNL     1       6.068  32.376  50.894  1.00  0.00     0.169 HD
HETATM   32  C   UNL     1       3.741  30.684  52.584  1.00  0.00     0.025 A 
HETATM   33  C   UNL     1       4.585  32.936  52.974  1.00  0.00     0.030 A 
HETATM   34  C   UNL     1       2.874  30.842  53.673  1.00  0.00     0.016 A 
HETATM   35  C   UNL     1       3.788  29.452  51.775  1.00  0.00     0.096 A 
HETATM   36  C   UNL     1       2.861  32.033  54.402  1.00  0.00     0.001 A 
HETATM   37  C   UNL     1       3.716  33.078  54.055  1.00  0.00     0.002 A 
BRANCH  35  38
HETATM   38  O   UNL     1       2.937  28.443  52.193  1.00  0.00    -0.359 OA
HETATM   39  H   UNL     1       2.098  28.472  51.688  1.00  0.00     0.218 HD
ENDBRANCH  35  38
ENDBRANCH  24  26
ENDBRANCH   2  23
TORSDOF 9
ENDMDL
MODEL 9
REMARK VINA RESULT:      -7.7      1.904      5.071
REMARK  9 active torsions:
REMARK  status: ('A' for Active; 'I' for Inactive)
REMARK    1  A    between atoms: C_2  and  C_3 
REMARK    2  A    between atoms: C_3  and  C_4 
REMARK    3  A    between atoms: C_4  and  C_5 
REMARK    4  A    between atoms: C_5  and  N_6 
REMARK    5  A    between atoms: C_9  and  C_10 
REMARK       I    between atoms: C_10  and  N_11 
REMARK    6  A    between atoms: N_11  and  N_12 
REMARK    7  A    between atoms: C_13  and  C_14 
REMARK    8  A    between atoms: C_24  and  O_25 
REMARK    9  A    between atoms: C_28  and  O_29 
ROOT
HETATM    1  C   UNL     1       5.369  26.067  53.392  1.00  0.00     0.280 C 
HETATM    2  N   UNL     1       6.400  26.542  54.193  1.00  0.00    -0.242 N 
HETATM    3  O   UNL     1       4.895  24.939  53.412  1.00  0.00    -0.266 OA
HETATM    4  H   UNL     1       6.782  27.469  54.024  1.00  0.00     0.192 HD
ENDROOT
BRANCH   1   5
HETATM    5  C   UNL     1       4.929  27.077  52.404  1.00  0.00     0.135 A 
HETATM    6  C   UNL     1       4.157  28.253  52.869  1.00  0.00     0.266 A 
HETATM    7  N   UNL     1       3.793  29.209  51.920  1.00  0.00    -0.313 N 
HETATM    8  O   UNL     1       3.893  28.368  54.065  1.00  0.00    -0.267 OA
HETATM    9  C   UNL     1       4.187  29.095  50.547  1.00  0.00     0.050 A 
HETATM   10  C   UNL     1       4.912  27.959  50.135  1.00  0.00     0.025 A 
HETATM   11  C   UNL     1       3.886  30.080  49.590  1.00  0.00     0.031 A 
HETATM   12  C   UNL     1       5.262  26.920  51.113  1.00  0.00     0.099 A 
HETATM   13  C   UNL     1       5.301  27.832  48.788  1.00  0.00     0.016 A 
HETATM   14  C   UNL     1       4.986  28.814  47.854  1.00  0.00     0.001 A 
HETATM   15  C   UNL     1       4.281  29.939  48.257  1.00  0.00     0.002 A 
BRANCH   7  16
HETATM   16  C   UNL     1       2.977  30.327  52.400  1.00  0.00     0.132 C 
BRANCH  16  17
HETATM   17  C   UNL     1       3.782  31.574  52.793  1.00  0.00     0.020 C 
BRANCH  17  18
HETATM   18  C   UNL     1       3.760  31.889  54.287  1.00  0.00     0.001 C 
BRANCH  18  19
HETATM   19  C   UNL     1       2.361  32.326  54.730  1.00  0.00    -0.004 C 
HETATM   20  C   UNL     1       2.380  33.702  55.373  1.00  0.00     0.005 C 
ENDBRANCH  18  19
ENDBRANCH  17  18
ENDBRANCH  16  17
ENDBRANCH   7  16
BRANCH  12  21
HETATM   21  O   UNL     1       5.957  25.834  50.610  1.00  0.00    -0.359 OA
HETATM   22  H   UNL     1       6.512  25.434  51.308  1.00  0.00     0.218 HD
ENDBRANCH  12  21
ENDBRANCH   1   5
BRANCH   2  23
HETATM   23  N   UNL     1       6.899  25.761  55.192  1.00  0.00    -0.176 NA
HETATM   24  C   UNL     1       7.112  26.264  56.371  1.00  0.00     0.069 C 
HETATM   25  C   UNL     1       7.702  25.321  57.399  1.00  0.00     0.073 C 
BRANCH  24  26
HETATM   26  C   UNL     1       6.826  27.657  56.833  1.00  0.00     0.092 A 
HETATM   27  C   UNL     1       7.954  28.559  57.207  1.00  0.00     0.261 A 
HETATM   28  O   UNL     1       9.124  28.199  57.123  1.00  0.00    -0.267 OA
HETATM   29  N   UNL     1       7.638  29.817  57.638  1.00  0.00    -0.322 N 
HETATM   30  C   UNL     1       6.329  30.297  57.734  1.00  0.00     0.048 A 
HETATM   31  H   UNL     1       8.420  30.413  57.879  1.00  0.00     0.169 HD
HETATM   32  C   UNL     1       5.260  29.454  57.399  1.00  0.00     0.025 A 
HETATM   33  C   UNL     1       6.111  31.612  58.149  1.00  0.00     0.030 A 
HETATM   34  C   UNL     1       3.957  29.962  57.481  1.00  0.00     0.016 A 
HETATM   35  C   UNL     1       5.552  28.076  56.964  1.00  0.00     0.096 A 
HETATM   36  C   UNL     1       3.733  31.279  57.890  1.00  0.00     0.001 A 
HETATM   37  C   UNL     1       4.808  32.102  58.225  1.00  0.00     0.002 A 
BRANCH  35  38
HETATM   38  O   UNL     1       4.440  27.304  56.677  1.00  0.00    -0.359 OA
HETATM   39  H   UNL     1       3.839  27.782  56.069  1.00  0.00     0.218 HD
ENDBRANCH  35  38
ENDBRANCH  24  26
ENDBRANCH   2  23
TORSDOF 9
ENDMDL
MODEL 10
REMARK VINA RESULT:      -7.7      2.347      7.031
REMARK  9 active torsions:
REMARK  status: ('A' for Active; 'I' for Inactive)
REMARK    1  A    between atoms: C_2  and  C_3 
REMARK    2  A    between atoms: C_3  and  C_4 
REMARK    3  A    between atoms: C_4  and  C_5 
REMARK    4  A    between atoms: C_5  and  N_6 
REMARK    5  A    between atoms: C_9  and  C_10 
REMARK       I    between atoms: C_10  and  N_11 
REMARK    6  A    between atoms: N_11  and  N_12 
REMARK    7  A    between atoms: C_13  and  C_14 
REMARK    8  A    between atoms: C_24  and  O_25 
REMARK    9  A    between atoms: C_28  and  O_29 
ROOT
HETATM    1  C   UNL     1       4.153  27.839  52.628  1.00  0.00     0.280 C 
HETATM    2  N   UNL     1       4.797  27.814  51.397  1.00  0.00    -0.242 N 
HETATM    3  O   UNL     1       2.974  28.104  52.824  1.00  0.00    -0.266 OA
HETATM    4  H   UNL     1       5.804  27.675  51.360  1.00  0.00     0.192 HD
ENDROOT
BRANCH   1   5
HETATM    5  C   UNL     1       5.088  27.584  53.746  1.00  0.00     0.135 A 
HETATM    6  C   UNL     1       5.447  26.186  54.081  1.00  0.00     0.266 A 
HETATM    7  N   UNL     1       6.364  25.980  55.113  1.00  0.00    -0.313 N 
HETATM    8  O   UNL     1       4.960  25.264  53.429  1.00  0.00    -0.267 OA
HETATM    9  C   UNL     1       6.983  27.075  55.801  1.00  0.00     0.050 A 
HETATM   10  C   UNL     1       6.612  28.392  55.464  1.00  0.00     0.025 A 
HETATM   11  C   UNL     1       7.957  26.888  56.796  1.00  0.00     0.031 A 
HETATM   12  C   UNL     1       5.612  28.624  54.412  1.00  0.00     0.099 A 
HETATM   13  C   UNL     1       7.208  29.477  56.135  1.00  0.00     0.016 A 
HETATM   14  C   UNL     1       8.165  29.271  57.124  1.00  0.00     0.001 A 
HETATM   15  C   UNL     1       8.540  27.976  57.452  1.00  0.00     0.002 A 
BRANCH   7  16
HETATM   16  C   UNL     1       6.650  24.587  55.463  1.00  0.00     0.132 C 
BRANCH  16  17
HETATM   17  C   UNL     1       7.796  23.956  54.659  1.00  0.00     0.020 C 
BRANCH  17  18
HETATM   18  C   UNL     1       7.690  22.440  54.500  1.00  0.00     0.001 C 
BRANCH  18  19
HETATM   19  C   UNL     1       7.917  22.029  53.043  1.00  0.00    -0.004 C 
HETATM   20  C   UNL     1       8.226  20.547  52.920  1.00  0.00     0.005 C 
ENDBRANCH  18  19
ENDBRANCH  17  18
ENDBRANCH  16  17
ENDBRANCH   7  16
BRANCH  12  21
HETATM   21  O   UNL     1       5.299  29.951  54.167  1.00  0.00    -0.359 OA
HETATM   22  H   UNL     1       5.432  30.484  54.974  1.00  0.00     0.218 HD
ENDBRANCH  12  21
ENDBRANCH   1   5
BRANCH   2  23
HETATM   23  N   UNL     1       4.080  27.982  50.251  1.00  0.00    -0.176 NA
HETATM   24  C   UNL     1       3.782  29.176  49.834  1.00  0.00     0.069 C 
HETATM   25  C   UNL     1       2.950  29.250  48.570  1.00  0.00     0.073 C 
BRANCH  24  26
HETATM   26  C   UNL     1       4.180  30.480  50.446  1.00  0.00     0.092 A 
HETATM   27  C   UNL     1       5.562  31.004  50.240  1.00  0.00     0.261 A 
HETATM   28  O   UNL     1       6.385  30.404  49.554  1.00  0.00    -0.267 OA
HETATM   29  N   UNL     1       5.881  32.192  50.835  1.00  0.00    -0.322 N 
HETATM   30  C   UNL     1       4.985  32.937  51.607  1.00  0.00     0.048 A 
HETATM   31  H   UNL     1       6.821  32.531  50.674  1.00  0.00     0.169 HD
HETATM   32  C   UNL     1       3.689  32.449  51.820  1.00  0.00     0.025 A 
HETATM   33  C   UNL     1       5.395  34.160  52.141  1.00  0.00     0.030 A 
HETATM   34  C   UNL     1       2.800  33.221  52.579  1.00  0.00     0.016 A 
HETATM   35  C   UNL     1       3.312  31.152  51.228  1.00  0.00     0.096 A 
HETATM   36  C   UNL     1       3.203  34.449  53.111  1.00  0.00     0.001 A 
HETATM   37  C   UNL     1       4.498  34.916  52.894  1.00  0.00     0.002 A 
BRANCH  35  38
HETATM   38  O   UNL     1       2.024  30.732  51.508  1.00  0.00    -0.359 OA
HETATM   39  H   UNL     1       2.023  30.109  52.265  1.00  0.00     0.218 HD
ENDBRANCH  35  38
ENDBRANCH  24  26
ENDBRANCH   2  23
TORSDOF 9
ENDMDL
