MODEL 1
REMARK VINA RESULT:      -8.5      0.000      0.000
REMARK  9 active torsions:
REMARK  status: ('A' for Active; 'I' for Inactive)
REMARK    1  A    between atoms: O_2  and  C_3 
REMARK    2  A    between atoms: C_4  and  S_5 
REMARK    3  A    between atoms: S_5  and  N_6 
REMARK    4  A    between atoms: N_6  and  C_7 
REMARK    5  A    between atoms: C_7  and  C_8 
REMARK    6  A    between atoms: C_7  and  C_21 
REMARK       I    between atoms: C_8  and  N_9 
REMARK    7  A    between atoms: N_9  and  C_10 
REMARK    8  A    between atoms: C_21  and  C_22 
REMARK    9  A    between atoms: C_22  and  S_23 
ROOT
HETATM    1  C   UNL     1       7.896  27.805  56.194  1.00  0.00     0.165 C 
ENDROOT
BRANCH   1   2
HETATM    2  N   UNL     1       6.896  26.724  55.959  1.00  0.00    -0.202 NA
HETATM    3  H   UNL     1       5.930  27.040  56.127  1.00  0.00     0.141 HD
BRANCH   2   4
HETATM    4  S   UNL     1       7.125  25.238  56.734  1.00  0.00     0.245 S 
HETATM    5  O   UNL     1       5.844  24.847  57.283  1.00  0.00    -0.206 OA
HETATM    6  O   UNL     1       8.288  25.367  57.584  1.00  0.00    -0.206 OA
BRANCH   4   7
HETATM    7  C   UNL     1       7.540  24.108  55.432  1.00  0.00     0.107 A 
HETATM    8  C   UNL     1       6.789  24.075  54.248  1.00  0.00     0.091 A 
HETATM    9  C   UNL     1       7.184  23.196  53.233  1.00  0.00     0.038 A 
HETATM   10  C   UNL     1       8.294  22.364  53.402  1.00  0.00     0.003 A 
HETATM   11  C   UNL     1       9.027  22.400  54.585  1.00  0.00     0.002 A 
HETATM   12  C   UNL     1       8.653  23.273  55.604  1.00  0.00     0.028 A 
BRANCH   8  13
HETATM   13  O   UNL     1       5.707  24.909  54.165  1.00  0.00    -0.354 OA
HETATM   14  C   UNL     1       4.985  24.928  52.938  1.00  0.00     0.210 C 
ENDBRANCH   8  13
ENDBRANCH   4   7
ENDBRANCH   2   4
ENDBRANCH   1   2
BRANCH   1  15
HETATM   15  C   UNL     1       7.433  28.684  57.359  1.00  0.00     0.254 C 
HETATM   16  N   UNL     1       8.443  29.358  58.010  1.00  0.00    -0.156 N 
HETATM   17  H   UNL     1       9.399  29.370  57.664  1.00  0.00     0.187 HD
HETATM   18  O   UNL     1       6.240  28.781  57.655  1.00  0.00    -0.271 OA
BRANCH  16  19
HETATM   19  C   UNL     1       8.199  30.160  59.095  1.00  0.00     0.708 A 
HETATM   20  N   UNL     1       8.919  30.178  60.190  1.00  0.00    -0.062 NA
HETATM   21  C   UNL     1       8.330  31.125  60.998  1.00  0.00     0.103 A 
HETATM   22  C   UNL     1       7.200  31.665  60.392  1.00  0.00     0.078 A 
HETATM   23  C   UNL     1       8.704  31.581  62.271  1.00  0.00     0.034 A 
HETATM   24  N   UNL     1       7.152  31.045  59.173  1.00  0.00    -0.188 N 
HETATM   25  C   UNL     1       6.386  32.625  60.995  1.00  0.00     0.032 A 
HETATM   26  H   UNL     1       6.480  31.195  58.433  1.00  0.00     0.184 HD
HETATM   27  C   UNL     1       6.769  33.059  62.268  1.00  0.00     0.002 A 
HETATM   28  C   UNL     1       7.912  32.554  62.895  1.00  0.00     0.002 A 
ENDBRANCH  16  19
ENDBRANCH   1  15
BRANCH   1  29
HETATM   29  C   UNL     1       7.981  28.609  54.885  1.00  0.00     0.040 C 
BRANCH  29  30
HETATM   30  C   UNL     1       7.252  28.028  53.672  1.00  0.00     0.075 C 
BRANCH  30  31
HETATM   31  S   UNL     1       5.595  28.720  53.365  1.00  0.00    -0.173 SA
HETATM   32  C   UNL     1       5.477  28.443  51.576  1.00  0.00     0.089 C 
ENDBRANCH  30  31
ENDBRANCH  29  30
ENDBRANCH   1  29
TORSDOF 9
ENDMDL
MODEL 2
REMARK VINA RESULT:      -8.4      2.568      8.076
REMARK  9 active torsions:
REMARK  status: ('A' for Active; 'I' for Inactive)
REMARK    1  A    between atoms: O_2  and  C_3 
REMARK    2  A    between atoms: C_4  and  S_5 
REMARK    3  A    between atoms: S_5  and  N_6 
REMARK    4  A    between atoms: N_6  and  C_7 
REMARK    5  A    between atoms: C_7  and  C_8 
REMARK    6  A    between atoms: C_7  and  C_21 
REMARK       I    between atoms: C_8  and  N_9 
REMARK    7  A    between atoms: N_9  and  C_10 
REMARK    8  A    between atoms: C_21  and  C_22 
REMARK    9  A    between atoms: C_22  and  S_23 
ROOT
HETATM    1  C   UNL     1       5.082  27.751  54.508  1.00  0.00     0.165 C 
ENDROOT
BRANCH   1   2
HETATM    2  N   UNL     1       6.314  28.453  54.973  1.00  0.00    -0.202 NA
HETATM    3  H   UNL     1       7.168  27.908  54.792  1.00  0.00     0.141 HD
BRANCH   2   4
HETATM    4  S   UNL     1       6.357  29.022  56.566  1.00  0.00     0.245 S 
HETATM    5  O   UNL     1       6.080  27.890  57.424  1.00  0.00    -0.206 OA
HETATM    6  O   UNL     1       5.541  30.214  56.623  1.00  0.00    -0.206 OA
BRANCH   4   7
HETATM    7  C   UNL     1       8.041  29.515  56.825  1.00  0.00     0.107 A 
HETATM    8  C   UNL     1       8.434  30.105  58.034  1.00  0.00     0.091 A 
HETATM    9  C   UNL     1       9.783  30.437  58.207  1.00  0.00     0.038 A 
HETATM   10  C   UNL     1      10.712  30.193  57.191  1.00  0.00     0.003 A 
HETATM   11  C   UNL     1      10.308  29.614  55.991  1.00  0.00     0.002 A 
HETATM   12  C   UNL     1       8.970  29.272  55.805  1.00  0.00     0.028 A 
BRANCH   8  13
HETATM   13  O   UNL     1       7.463  30.325  58.974  1.00  0.00    -0.354 OA
HETATM   14  C   UNL     1       7.364  31.635  59.522  1.00  0.00     0.210 C 
ENDBRANCH   8  13
ENDBRANCH   4   7
ENDBRANCH   2   4
ENDBRANCH   1   2
BRANCH   1  15
HETATM   15  C   UNL     1       5.397  26.272  54.270  1.00  0.00     0.254 C 
HETATM   16  N   UNL     1       6.495  25.798  54.954  1.00  0.00    -0.156 N 
HETATM   17  H   UNL     1       6.978  26.354  55.657  1.00  0.00     0.187 HD
HETATM   18  O   UNL     1       4.691  25.576  53.536  1.00  0.00    -0.271 OA
BRANCH  16  19
HETATM   19  C   UNL     1       6.929  24.504  54.824  1.00  0.00     0.708 A 
HETATM   20  N   UNL     1       7.133  23.679  55.822  1.00  0.00    -0.062 NA
HETATM   21  C   UNL     1       7.549  22.502  55.242  1.00  0.00     0.103 A 
HETATM   22  C   UNL     1       7.637  22.631  53.860  1.00  0.00     0.078 A 
HETATM   23  C   UNL     1       7.872  21.271  55.833  1.00  0.00     0.034 A 
HETATM   24  N   UNL     1       7.219  23.912  53.621  1.00  0.00    -0.188 N 
HETATM   25  C   UNL     1       8.064  21.605  53.015  1.00  0.00     0.032 A 
HETATM   26  H   UNL     1       7.121  24.370  52.725  1.00  0.00     0.184 HD
HETATM   27  C   UNL     1       8.392  20.389  53.624  1.00  0.00     0.002 A 
HETATM   28  C   UNL     1       8.291  20.219  55.008  1.00  0.00     0.002 A 
ENDBRANCH  16  19
ENDBRANCH   1  15
BRANCH   1  29
HETATM   29  C   UNL     1       4.653  28.449  53.205  1.00  0.00     0.040 C 
BRANCH  29  30
HETATM   30  C   UNL     1       5.684  28.496  52.076  1.00  0.00     0.075 C 
BRANCH  30  31
HETATM   31  S   UNL     1       4.994  28.371  50.395  1.00  0.00    -0.173 SA
HETATM   32  C   UNL     1       4.953  26.566  50.216  1.00  0.00     0.089 C 
ENDBRANCH  30  31
ENDBRANCH  29  30
ENDBRANCH   1  29
TORSDOF 9
ENDMDL
MODEL 3
REMARK VINA RESULT:      -8.4      2.232      8.283
REMARK  9 active torsions:
REMARK  status: ('A' for Active; 'I' for Inactive)
REMARK    1  A    between atoms: O_2  and  C_3 
REMARK    2  A    between atoms: C_4  and  S_5 
REMARK    3  A    between atoms: S_5  and  N_6 
REMARK    4  A    between atoms: N_6  and  C_7 
REMARK    5  A    between atoms: C_7  and  C_8 
REMARK    6  A    between atoms: C_7  and  C_21 
REMARK       I    between atoms: C_8  and  N_9 
REMARK    7  A    between atoms: N_9  and  C_10 
REMARK    8  A    between atoms: C_21  and  C_22 
REMARK    9  A    between atoms: C_22  and  S_23 
ROOT
HETATM    1  C   UNL     1       6.329  28.264  55.689  1.00  0.00     0.165 C 
ENDROOT
BRANCH   1   2
HETATM    2  N   UNL     1       7.456  29.168  56.062  1.00  0.00    -0.202 NA
HETATM    3  H   UNL     1       8.086  29.357  55.270  1.00  0.00     0.141 HD
BRANCH   2   4
HETATM    4  S   UNL     1       8.388  28.769  57.416  1.00  0.00     0.245 S 
HETATM    5  O   UNL     1       9.742  28.565  56.949  1.00  0.00    -0.206 OA
HETATM    6  O   UNL     1       7.685  27.728  58.134  1.00  0.00    -0.206 OA
BRANCH   4   7
HETATM    7  C   UNL     1       8.363  30.224  58.428  1.00  0.00     0.107 A 
HETATM    8  C   UNL     1       7.155  30.877  58.712  1.00  0.00     0.091 A 
HETATM    9  C   UNL     1       7.183  31.997  59.552  1.00  0.00     0.038 A 
HETATM   10  C   UNL     1       8.390  32.456  60.086  1.00  0.00     0.003 A 
HETATM   11  C   UNL     1       9.584  31.804  59.792  1.00  0.00     0.002 A 
HETATM   12  C   UNL     1       9.574  30.685  58.962  1.00  0.00     0.028 A 
BRANCH   8  13
HETATM   13  O   UNL     1       6.018  30.375  58.138  1.00  0.00    -0.354 OA
HETATM   14  C   UNL     1       4.921  31.266  57.966  1.00  0.00     0.210 C 
ENDBRANCH   8  13
ENDBRANCH   4   7
ENDBRANCH   2   4
ENDBRANCH   1   2
BRANCH   1  15
HETATM   15  C   UNL     1       6.889  26.969  55.096  1.00  0.00     0.254 C 
HETATM   16  N   UNL     1       6.440  25.816  55.700  1.00  0.00    -0.156 N 
HETATM   17  H   UNL     1       5.699  25.822  56.397  1.00  0.00     0.187 HD
HETATM   18  O   UNL     1       7.664  26.986  54.136  1.00  0.00    -0.271 OA
BRANCH  16  19
HETATM   19  C   UNL     1       6.871  24.575  55.309  1.00  0.00     0.708 A 
HETATM   20  N   UNL     1       7.183  23.599  56.126  1.00  0.00    -0.062 NA
HETATM   21  C   UNL     1       7.549  22.547  55.316  1.00  0.00     0.103 A 
HETATM   22  C   UNL     1       7.496  22.910  53.974  1.00  0.00     0.078 A 
HETATM   23  C   UNL     1       7.943  21.244  55.653  1.00  0.00     0.034 A 
HETATM   24  N   UNL     1       7.043  24.202  53.999  1.00  0.00    -0.188 N 
HETATM   25  C   UNL     1       7.845  22.053  52.928  1.00  0.00     0.032 A 
HETATM   26  H   UNL     1       6.851  24.802  53.208  1.00  0.00     0.184 HD
HETATM   27  C   UNL     1       8.245  20.762  53.286  1.00  0.00     0.002 A 
HETATM   28  C   UNL     1       8.286  20.358  54.624  1.00  0.00     0.002 A 
ENDBRANCH  16  19
ENDBRANCH   1  15
BRANCH   1  29
HETATM   29  C   UNL     1       5.482  29.032  54.659  1.00  0.00     0.040 C 
BRANCH  29  30
HETATM   30  C   UNL     1       4.375  28.246  53.955  1.00  0.00     0.075 C 
BRANCH  30  31
HETATM   31  S   UNL     1       4.471  28.240  52.135  1.00  0.00    -0.173 SA
HETATM   32  C   UNL     1       5.073  26.550  51.868  1.00  0.00     0.089 C 
ENDBRANCH  30  31
ENDBRANCH  29  30
ENDBRANCH   1  29
TORSDOF 9
ENDMDL
MODEL 4
REMARK VINA RESULT:      -8.3      2.915      8.119
REMARK  9 active torsions:
REMARK  status: ('A' for Active; 'I' for Inactive)
REMARK    1  A    between atoms: O_2  and  C_3 
REMARK    2  A    between atoms: C_4  and  S_5 
REMARK    3  A    between atoms: S_5  and  N_6 
REMARK    4  A    between atoms: N_6  and  C_7 
REMARK    5  A    between atoms: C_7  and  C_8 
REMARK    6  A    between atoms: C_7  and  C_21 
REMARK       I    between atoms: C_8  and  N_9 
REMARK    7  A    between atoms: N_9  and  C_10 
REMARK    8  A    between atoms: C_21  and  C_22 
REMARK    9  A    between atoms: C_22  and  S_23 
ROOT
HETATM    1  C   UNL     1       4.848  27.307  53.654  1.00  0.00     0.165 C 
ENDROOT
BRANCH   1   2
HETATM    2  N   UNL     1       5.676  28.022  54.668  1.00  0.00    -0.202 NA
HETATM    3  H   UNL     1       6.611  27.604  54.777  1.00  0.00     0.141 HD
BRANCH   2   4
HETATM    4  S   UNL     1       5.014  28.286  56.202  1.00  0.00     0.245 S 
HETATM    5  O   UNL     1       4.809  26.984  56.801  1.00  0.00    -0.206 OA
HETATM    6  O   UNL     1       3.915  29.213  56.046  1.00  0.00    -0.206 OA
BRANCH   4   7
HETATM    7  C   UNL     1       6.289  29.120  57.109  1.00  0.00     0.107 A 
HETATM    8  C   UNL     1       7.596  28.612  57.135  1.00  0.00     0.091 A 
HETATM    9  C   UNL     1       8.577  29.330  57.829  1.00  0.00     0.038 A 
HETATM   10  C   UNL     1       8.256  30.522  58.487  1.00  0.00     0.003 A 
HETATM   11  C   UNL     1       6.953  31.012  58.459  1.00  0.00     0.002 A 
HETATM   12  C   UNL     1       5.966  30.313  57.769  1.00  0.00     0.028 A 
BRANCH   8  13
HETATM   13  O   UNL     1       7.827  27.432  56.480  1.00  0.00    -0.354 OA
HETATM   14  C   UNL     1       8.277  26.327  57.256  1.00  0.00     0.210 C 
ENDBRANCH   8  13
ENDBRANCH   4   7
ENDBRANCH   2   4
ENDBRANCH   1   2
BRANCH   1  15
HETATM   15  C   UNL     1       5.242  25.827  53.625  1.00  0.00     0.254 C 
HETATM   16  N   UNL     1       6.355  25.512  54.373  1.00  0.00    -0.156 N 
HETATM   17  H   UNL     1       6.800  26.184  54.993  1.00  0.00     0.187 HD
HETATM   18  O   UNL     1       4.582  25.000  52.992  1.00  0.00    -0.271 OA
BRANCH  16  19
HETATM   19  C   UNL     1       6.858  24.238  54.425  1.00  0.00     0.708 A 
HETATM   20  N   UNL     1       7.048  23.552  55.526  1.00  0.00    -0.062 NA
HETATM   21  C   UNL     1       7.551  22.337  55.117  1.00  0.00     0.103 A 
HETATM   22  C   UNL     1       7.707  22.302  53.735  1.00  0.00     0.078 A 
HETATM   23  C   UNL     1       7.901  21.207  55.870  1.00  0.00     0.034 A 
HETATM   24  N   UNL     1       7.240  23.520  53.320  1.00  0.00    -0.188 N 
HETATM   25  C   UNL     1       8.227  21.206  53.045  1.00  0.00     0.032 A 
HETATM   26  H   UNL     1       7.169  23.860  52.370  1.00  0.00     0.184 HD
HETATM   27  C   UNL     1       8.581  20.094  53.815  1.00  0.00     0.002 A 
HETATM   28  C   UNL     1       8.414  20.088  55.203  1.00  0.00     0.002 A 
ENDBRANCH  16  19
ENDBRANCH   1  15
BRANCH   1  29
HETATM   29  C   UNL     1       5.130  27.989  52.304  1.00  0.00     0.040 C 
BRANCH  29  30
HETATM   30  C   UNL     1       3.921  28.525  51.537  1.00  0.00     0.075 C 
BRANCH  30  31
HETATM   31  S   UNL     1       3.894  28.119  49.761  1.00  0.00    -0.173 SA
HETATM   32  C   UNL     1       4.743  26.516  49.802  1.00  0.00     0.089 C 
ENDBRANCH  30  31
ENDBRANCH  29  30
ENDBRANCH   1  29
TORSDOF 9
ENDMDL
MODEL 5
REMARK VINA RESULT:      -8.0      1.288      1.996
REMARK  9 active torsions:
REMARK  status: ('A' for Active; 'I' for Inactive)
REMARK    1  A    between atoms: O_2  and  C_3 
REMARK    2  A    between atoms: C_4  and  S_5 
REMARK    3  A    between atoms: S_5  and  N_6 
REMARK    4  A    between atoms: N_6  and  C_7 
REMARK    5  A    between atoms: C_7  and  C_8 
REMARK    6  A    between atoms: C_7  and  C_21 
REMARK       I    between atoms: C_8  and  N_9 
REMARK    7  A    between atoms: N_9  and  C_10 
REMARK    8  A    between atoms: C_21  and  C_22 
REMARK    9  A    between atoms: C_22  and  S_23 
ROOT
HETATM    1  C   UNL     1       6.369  28.153  55.454  1.00  0.00     0.165 C 
ENDROOT
BRANCH   1   2
HETATM    2  N   UNL     1       5.875  26.757  55.637  1.00  0.00    -0.202 NA
HETATM    3  H   UNL     1       4.970  26.722  56.127  1.00  0.00     0.141 HD
BRANCH   2   4
HETATM    4  S   UNL     1       6.918  25.624  56.339  1.00  0.00     0.245 S 
HETATM    5  O   UNL     1       6.138  24.875  57.300  1.00  0.00    -0.206 OA
HETATM    6  O   UNL     1       8.116  26.328  56.741  1.00  0.00    -0.206 OA
BRANCH   4   7
HETATM    7  C   UNL     1       7.360  24.534  55.012  1.00  0.00     0.107 A 
HETATM    8  C   UNL     1       7.943  23.287  55.277  1.00  0.00     0.091 A 
HETATM    9  C   UNL     1       8.234  22.444  54.197  1.00  0.00     0.038 A 
HETATM   10  C   UNL     1       7.958  22.844  52.887  1.00  0.00     0.003 A 
HETATM   11  C   UNL     1       7.385  24.088  52.636  1.00  0.00     0.002 A 
HETATM   12  C   UNL     1       7.084  24.937  53.699  1.00  0.00     0.028 A 
BRANCH   8  13
HETATM   13  O   UNL     1       8.198  22.975  56.586  1.00  0.00    -0.354 OA
HETATM   14  C   UNL     1       8.403  21.603  56.906  1.00  0.00     0.210 C 
ENDBRANCH   8  13
ENDBRANCH   4   7
ENDBRANCH   2   4
ENDBRANCH   1   2
BRANCH   1  15
HETATM   15  C   UNL     1       6.334  28.887  56.798  1.00  0.00     0.254 C 
HETATM   16  N   UNL     1       7.540  29.420  57.196  1.00  0.00    -0.156 N 
HETATM   17  H   UNL     1       8.355  29.433  56.587  1.00  0.00     0.187 HD
HETATM   18  O   UNL     1       5.287  28.998  57.440  1.00  0.00    -0.271 OA
BRANCH  16  19
HETATM   19  C   UNL     1       7.684  30.078  58.390  1.00  0.00     0.708 A 
HETATM   20  N   UNL     1       8.635  29.847  59.262  1.00  0.00    -0.062 NA
HETATM   21  C   UNL     1       8.406  30.731  60.293  1.00  0.00     0.103 A 
HETATM   22  C   UNL     1       7.263  31.488  60.057  1.00  0.00     0.078 A 
HETATM   23  C   UNL     1       9.133  30.947  61.473  1.00  0.00     0.034 A 
HETATM   24  N   UNL     1       6.835  31.063  58.828  1.00  0.00    -0.188 N 
HETATM   25  C   UNL     1       6.771  32.442  60.949  1.00  0.00     0.032 A 
HETATM   26  H   UNL     1       6.039  31.401  58.303  1.00  0.00     0.184 HD
HETATM   27  C   UNL     1       7.504  32.635  62.125  1.00  0.00     0.002 A 
HETATM   28  C   UNL     1       8.670  31.907  62.381  1.00  0.00     0.002 A 
ENDBRANCH  16  19
ENDBRANCH   1  15
BRANCH   1  29
HETATM   29  C   UNL     1       5.431  28.813  54.430  1.00  0.00     0.040 C 
BRANCH  29  30
HETATM   30  C   UNL     1       4.737  27.885  53.432  1.00  0.00     0.075 C 
BRANCH  30  31
HETATM   31  S   UNL     1       4.885  28.381  51.685  1.00  0.00    -0.173 SA
HETATM   32  C   UNL     1       5.260  26.770  50.942  1.00  0.00     0.089 C 
ENDBRANCH  30  31
ENDBRANCH  29  30
ENDBRANCH   1  29
TORSDOF 9
ENDMDL
MODEL 6
REMARK VINA RESULT:      -8.0      4.672      8.819
REMARK  9 active torsions:
REMARK  status: ('A' for Active; 'I' for Inactive)
REMARK    1  A    between atoms: O_2  and  C_3 
REMARK    2  A    between atoms: C_4  and  S_5 
REMARK    3  A    between atoms: S_5  and  N_6 
REMARK    4  A    between atoms: N_6  and  C_7 
REMARK    5  A    between atoms: C_7  and  C_8 
REMARK    6  A    between atoms: C_7  and  C_21 
REMARK       I    between atoms: C_8  and  N_9 
REMARK    7  A    between atoms: N_9  and  C_10 
REMARK    8  A    between atoms: C_21  and  C_22 
REMARK    9  A    between atoms: C_22  and  S_23 
ROOT
HETATM    1  C   UNL     1       4.981  27.422  52.981  1.00  0.00     0.165 C 
ENDROOT
BRANCH   1   2
HETATM    2  N   UNL     1       4.157  27.479  51.739  1.00  0.00    -0.202 NA
HETATM    3  H   UNL     1       3.366  26.820  51.763  1.00  0.00     0.141 HD
BRANCH   2   4
HETATM    4  S   UNL     1       4.943  27.333  50.248  1.00  0.00     0.245 S 
HETATM    5  O   UNL     1       5.718  26.113  50.299  1.00  0.00    -0.206 OA
HETATM    6  O   UNL     1       5.575  28.603  49.965  1.00  0.00    -0.206 OA
BRANCH   4   7
HETATM    7  C   UNL     1       3.638  27.113  49.068  1.00  0.00     0.107 A 
HETATM    8  C   UNL     1       2.522  27.962  49.070  1.00  0.00     0.091 A 
HETATM    9  C   UNL     1       1.540  27.774  48.090  1.00  0.00     0.038 A 
HETATM   10  C   UNL     1       1.667  26.758  47.138  1.00  0.00     0.003 A 
HETATM   11  C   UNL     1       2.777  25.917  47.152  1.00  0.00     0.002 A 
HETATM   12  C   UNL     1       3.766  26.092  48.116  1.00  0.00     0.028 A 
BRANCH   8  13
HETATM   13  O   UNL     1       2.463  28.924  50.043  1.00  0.00    -0.354 OA
HETATM   14  C   UNL     1       2.426  30.283  49.621  1.00  0.00     0.210 C 
ENDBRANCH   8  13
ENDBRANCH   4   7
ENDBRANCH   2   4
ENDBRANCH   1   2
BRANCH   1  15
HETATM   15  C   UNL     1       5.281  25.961  53.328  1.00  0.00     0.254 C 
HETATM   16  N   UNL     1       6.619  25.639  53.367  1.00  0.00    -0.156 N 
HETATM   17  H   UNL     1       7.349  26.344  53.295  1.00  0.00     0.187 HD
HETATM   18  O   UNL     1       4.373  25.162  53.573  1.00  0.00    -0.271 OA
BRANCH  16  19
HETATM   19  C   UNL     1       7.053  24.366  53.630  1.00  0.00     0.708 A 
HETATM   20  N   UNL     1       7.511  23.530  52.730  1.00  0.00    -0.062 NA
HETATM   21  C   UNL     1       7.838  22.388  53.426  1.00  0.00     0.103 A 
HETATM   22  C   UNL     1       7.530  22.522  54.777  1.00  0.00     0.078 A 
HETATM   23  C   UNL     1       8.403  21.187  52.973  1.00  0.00     0.034 A 
HETATM   24  N   UNL     1       7.049  23.799  54.880  1.00  0.00    -0.188 N 
HETATM   25  C   UNL     1       7.725  21.508  55.717  1.00  0.00     0.032 A 
HETATM   26  H   UNL     1       6.742  24.275  55.718  1.00  0.00     0.184 HD
HETATM   27  C   UNL     1       8.279  20.315  55.243  1.00  0.00     0.002 A 
HETATM   28  C   UNL     1       8.622  20.157  53.897  1.00  0.00     0.002 A 
ENDBRANCH  16  19
ENDBRANCH   1  15
BRANCH   1  29
HETATM   29  C   UNL     1       4.151  28.102  54.083  1.00  0.00     0.040 C 
BRANCH  29  30
HETATM   30  C   UNL     1       4.768  28.146  55.482  1.00  0.00     0.075 C 
BRANCH  30  31
HETATM   31  S   UNL     1       6.453  28.833  55.561  1.00  0.00    -0.173 SA
HETATM   32  C   UNL     1       7.299  27.468  56.406  1.00  0.00     0.089 C 
ENDBRANCH  30  31
ENDBRANCH  29  30
ENDBRANCH   1  29
TORSDOF 9
ENDMDL
MODEL 7
REMARK VINA RESULT:      -7.9      3.510      7.064
REMARK  9 active torsions:
REMARK  status: ('A' for Active; 'I' for Inactive)
REMARK    1  A    between atoms: O_2  and  C_3 
REMARK    2  A    between atoms: C_4  and  S_5 
REMARK    3  A    between atoms: S_5  and  N_6 
REMARK    4  A    between atoms: N_6  and  C_7 
REMARK    5  A    between atoms: C_7  and  C_8 
REMARK    6  A    between atoms: C_7  and  C_21 
REMARK       I    between atoms: C_8  and  N_9 
REMARK    7  A    between atoms: N_9  and  C_10 
REMARK    8  A    between atoms: C_21  and  C_22 
REMARK    9  A    between atoms: C_22  and  S_23 
ROOT
HETATM    1  C   UNL     1       6.137  28.094  55.713  1.00  0.00     0.165 C 
ENDROOT
BRANCH   1   2
HETATM    2  N   UNL     1       7.154  27.033  55.459  1.00  0.00    -0.202 NA
HETATM    3  H   UNL     1       7.257  26.819  54.457  1.00  0.00     0.141 HD
BRANCH   2   4
HETATM    4  S   UNL     1       7.028  25.580  56.316  1.00  0.00     0.245 S 
HETATM    5  O   UNL     1       5.625  25.390  56.615  1.00  0.00    -0.206 OA
HETATM    6  O   UNL     1       8.015  25.612  57.372  1.00  0.00    -0.206 OA
BRANCH   4   7
HETATM    7  C   UNL     1       7.524  24.329  55.161  1.00  0.00     0.107 A 
HETATM    8  C   UNL     1       7.035  24.335  53.847  1.00  0.00     0.091 A 
HETATM    9  C   UNL     1       7.491  23.351  52.961  1.00  0.00     0.038 A 
HETATM   10  C   UNL     1       8.404  22.380  53.383  1.00  0.00     0.003 A 
HETATM   11  C   UNL     1       8.876  22.380  54.693  1.00  0.00     0.002 A 
HETATM   12  C   UNL     1       8.438  23.355  55.586  1.00  0.00     0.028 A 
BRANCH   8  13
HETATM   13  O   UNL     1       6.132  25.309  53.515  1.00  0.00    -0.354 OA
HETATM   14  C   UNL     1       4.827  24.891  53.128  1.00  0.00     0.210 C 
ENDBRANCH   8  13
ENDBRANCH   4   7
ENDBRANCH   2   4
ENDBRANCH   1   2
BRANCH   1  15
HETATM   15  C   UNL     1       5.485  28.503  54.389  1.00  0.00     0.254 C 
HETATM   16  N   UNL     1       6.274  28.317  53.276  1.00  0.00    -0.156 N 
HETATM   17  H   UNL     1       7.166  27.830  53.317  1.00  0.00     0.187 HD
HETATM   18  O   UNL     1       4.332  28.940  54.350  1.00  0.00    -0.271 OA
BRANCH  16  19
HETATM   19  C   UNL     1       5.850  28.665  52.019  1.00  0.00     0.708 A 
HETATM   20  N   UNL     1       5.635  27.819  51.041  1.00  0.00    -0.062 NA
HETATM   21  C   UNL     1       5.217  28.590  49.978  1.00  0.00     0.103 A 
HETATM   22  C   UNL     1       5.218  29.941  50.311  1.00  0.00     0.078 A 
HETATM   23  C   UNL     1       4.817  28.206  48.690  1.00  0.00     0.034 A 
HETATM   24  N   UNL     1       5.609  29.956  51.623  1.00  0.00    -0.188 N 
HETATM   25  C   UNL     1       4.870  30.955  49.418  1.00  0.00     0.032 A 
HETATM   26  H   UNL     1       5.704  30.762  52.226  1.00  0.00     0.184 HD
HETATM   27  C   UNL     1       4.485  30.554  48.135  1.00  0.00     0.002 A 
HETATM   28  C   UNL     1       4.450  29.203  47.776  1.00  0.00     0.002 A 
ENDBRANCH  16  19
ENDBRANCH   1  15
BRANCH   1  29
HETATM   29  C   UNL     1       6.890  29.272  56.354  1.00  0.00     0.040 C 
BRANCH  29  30
HETATM   30  C   UNL     1       8.405  29.314  56.150  1.00  0.00     0.075 C 
BRANCH  30  31
HETATM   31  S   UNL     1       9.362  29.888  57.590  1.00  0.00    -0.173 SA
HETATM   32  C   UNL     1      11.043  29.678  56.942  1.00  0.00     0.089 C 
ENDBRANCH  30  31
ENDBRANCH  29  30
ENDBRANCH   1  29
TORSDOF 9
ENDMDL
MODEL 8
REMARK VINA RESULT:      -7.9      2.003      3.195
REMARK  9 active torsions:
REMARK  status: ('A' for Active; 'I' for Inactive)
REMARK    1  A    between atoms: O_2  and  C_3 
REMARK    2  A    between atoms: C_4  and  S_5 
REMARK    3  A    between atoms: S_5  and  N_6 
REMARK    4  A    between atoms: N_6  and  C_7 
REMARK    5  A    between atoms: C_7  and  C_8 
REMARK    6  A    between atoms: C_7  and  C_21 
REMARK       I    between atoms: C_8  and  N_9 
REMARK    7  A    between atoms: N_9  and  C_10 
REMARK    8  A    between atoms: C_21  and  C_22 
REMARK    9  A    between atoms: C_22  and  S_23 
ROOT
HETATM    1  C   UNL     1       5.126  27.952  53.657  1.00  0.00     0.165 C 
ENDROOT
BRANCH   1   2
HETATM    2  N   UNL     1       5.477  26.502  53.665  1.00  0.00    -0.202 NA
HETATM    3  H   UNL     1       5.412  26.088  54.606  1.00  0.00     0.141 HD
BRANCH   2   4
HETATM    4  S   UNL     1       6.941  26.028  52.962  1.00  0.00     0.245 S 
HETATM    5  O   UNL     1       7.945  26.973  53.403  1.00  0.00    -0.206 OA
HETATM    6  O   UNL     1       6.695  25.810  51.554  1.00  0.00    -0.206 OA
BRANCH   4   7
HETATM    7  C   UNL     1       7.305  24.452  53.690  1.00  0.00     0.107 A 
HETATM    8  C   UNL     1       7.167  24.255  55.071  1.00  0.00     0.091 A 
HETATM    9  C   UNL     1       7.424  22.981  55.591  1.00  0.00     0.038 A 
HETATM   10  C   UNL     1       7.817  21.934  54.752  1.00  0.00     0.003 A 
HETATM   11  C   UNL     1       7.957  22.145  53.383  1.00  0.00     0.002 A 
HETATM   12  C   UNL     1       7.700  23.405  52.847  1.00  0.00     0.028 A 
BRANCH   8  13
HETATM   13  O   UNL     1       6.794  25.333  55.828  1.00  0.00    -0.354 OA
HETATM   14  C   UNL     1       7.698  25.772  56.837  1.00  0.00     0.210 C 
ENDBRANCH   8  13
ENDBRANCH   4   7
ENDBRANCH   2   4
ENDBRANCH   1   2
BRANCH   1  15
HETATM   15  C   UNL     1       5.305  28.528  55.064  1.00  0.00     0.254 C 
HETATM   16  N   UNL     1       6.480  29.219  55.260  1.00  0.00    -0.156 N 
HETATM   17  H   UNL     1       7.116  29.435  54.497  1.00  0.00     0.187 HD
HETATM   18  O   UNL     1       4.436  28.390  55.928  1.00  0.00    -0.271 OA
BRANCH  16  19
HETATM   19  C   UNL     1       6.807  29.768  56.473  1.00  0.00     0.708 A 
HETATM   20  N   UNL     1       7.836  29.412  57.203  1.00  0.00    -0.062 NA
HETATM   21  C   UNL     1       7.788  30.219  58.318  1.00  0.00     0.103 A 
HETATM   22  C   UNL     1       6.677  31.056  58.280  1.00  0.00     0.078 A 
HETATM   23  C   UNL     1       8.662  30.296  59.413  1.00  0.00     0.034 A 
HETATM   24  N   UNL     1       6.081  30.759  57.085  1.00  0.00    -0.188 N 
HETATM   25  C   UNL     1       6.357  31.960  59.295  1.00  0.00     0.032 A 
HETATM   26  H   UNL     1       5.253  31.183  56.688  1.00  0.00     0.184 HD
HETATM   27  C   UNL     1       7.234  32.014  60.383  1.00  0.00     0.002 A 
HETATM   28  C   UNL     1       8.372  31.203  60.440  1.00  0.00     0.002 A 
ENDBRANCH  16  19
ENDBRANCH   1  15
BRANCH   1  29
HETATM   29  C   UNL     1       3.661  28.039  53.197  1.00  0.00     0.040 C 
BRANCH  29  30
HETATM   30  C   UNL     1       3.375  28.900  51.965  1.00  0.00     0.075 C 
BRANCH  30  31
HETATM   31  S   UNL     1       4.374  28.498  50.496  1.00  0.00    -0.173 SA
HETATM   32  C   UNL     1       5.481  29.936  50.478  1.00  0.00     0.089 C 
ENDBRANCH  30  31
ENDBRANCH  29  30
ENDBRANCH   1  29
TORSDOF 9
ENDMDL
MODEL 9
REMARK VINA RESULT:      -7.9      4.923      9.164
REMARK  9 active torsions:
REMARK  status: ('A' for Active; 'I' for Inactive)
REMARK    1  A    between atoms: O_2  and  C_3 
REMARK    2  A    between atoms: C_4  and  S_5 
REMARK    3  A    between atoms: S_5  and  N_6 
REMARK    4  A    between atoms: N_6  and  C_7 
REMARK    5  A    between atoms: C_7  and  C_8 
REMARK    6  A    between atoms: C_7  and  C_21 
REMARK       I    between atoms: C_8  and  N_9 
REMARK    7  A    between atoms: N_9  and  C_10 
REMARK    8  A    between atoms: C_21  and  C_22 
REMARK    9  A    between atoms: C_22  and  S_23 
ROOT
HETATM    1  C   UNL     1       4.894  27.105  52.384  1.00  0.00     0.165 C 
ENDROOT
BRANCH   1   2
HETATM    2  N   UNL     1       4.164  27.035  51.085  1.00  0.00    -0.202 NA
HETATM    3  H   UNL     1       4.308  26.137  50.601  1.00  0.00     0.141 HD
BRANCH   2   4
HETATM    4  S   UNL     1       4.383  28.292  49.974  1.00  0.00     0.245 S 
HETATM    5  O   UNL     1       5.575  27.980  49.215  1.00  0.00    -0.206 OA
HETATM    6  O   UNL     1       4.272  29.538  50.701  1.00  0.00    -0.206 OA
BRANCH   4   7
HETATM    7  C   UNL     1       2.987  28.184  48.886  1.00  0.00     0.107 A 
HETATM    8  C   UNL     1       2.603  26.952  48.338  1.00  0.00     0.091 A 
HETATM    9  C   UNL     1       1.467  26.912  47.520  1.00  0.00     0.038 A 
HETATM   10  C   UNL     1       0.742  28.076  47.250  1.00  0.00     0.003 A 
HETATM   11  C   UNL     1       1.138  29.294  47.794  1.00  0.00     0.002 A 
HETATM   12  C   UNL     1       2.262  29.352  48.615  1.00  0.00     0.028 A 
BRANCH   8  13
HETATM   13  O   UNL     1       3.374  25.861  48.637  1.00  0.00    -0.354 OA
HETATM   14  C   UNL     1       3.050  24.632  47.994  1.00  0.00     0.210 C 
ENDBRANCH   8  13
ENDBRANCH   4   7
ENDBRANCH   2   4
ENDBRANCH   1   2
BRANCH   1  15
HETATM   15  C   UNL     1       5.222  25.688  52.862  1.00  0.00     0.254 C 
HETATM   16  N   UNL     1       6.565  25.433  53.032  1.00  0.00    -0.156 N 
HETATM   17  H   UNL     1       7.269  26.164  52.967  1.00  0.00     0.187 HD
HETATM   18  O   UNL     1       4.331  24.867  53.092  1.00  0.00    -0.271 OA
BRANCH  16  19
HETATM   19  C   UNL     1       7.027  24.203  53.423  1.00  0.00     0.708 A 
HETATM   20  N   UNL     1       7.545  23.307  52.618  1.00  0.00    -0.062 NA
HETATM   21  C   UNL     1       7.878  22.242  53.425  1.00  0.00     0.103 A 
HETATM   22  C   UNL     1       7.515  22.484  54.746  1.00  0.00     0.078 A 
HETATM   23  C   UNL     1       8.497  21.025  53.102  1.00  0.00     0.034 A 
HETATM   24  N   UNL     1       6.992  23.749  54.717  1.00  0.00    -0.188 N 
HETATM   25  C   UNL     1       7.704  21.565  55.779  1.00  0.00     0.032 A 
HETATM   26  H   UNL     1       6.639  24.286  55.498  1.00  0.00     0.184 HD
HETATM   27  C   UNL     1       8.312  20.353  55.435  1.00  0.00     0.002 A 
HETATM   28  C   UNL     1       8.711  20.089  54.121  1.00  0.00     0.002 A 
ENDBRANCH  16  19
ENDBRANCH   1  15
BRANCH   1  29
HETATM   29  C   UNL     1       3.957  27.826  53.368  1.00  0.00     0.040 C 
BRANCH  29  30
HETATM   30  C   UNL     1       4.619  28.692  54.441  1.00  0.00     0.075 C 
BRANCH  30  31
HETATM   31  S   UNL     1       4.823  27.888  56.063  1.00  0.00    -0.173 SA
HETATM   32  C   UNL     1       6.595  27.506  55.993  1.00  0.00     0.089 C 
ENDBRANCH  30  31
ENDBRANCH  29  30
ENDBRANCH   1  29
TORSDOF 9
ENDMDL
MODEL 10
REMARK VINA RESULT:      -7.8      1.777      3.055
REMARK  9 active torsions:
REMARK  status: ('A' for Active; 'I' for Inactive)
REMARK    1  A    between atoms: O_2  and  C_3 
REMARK    2  A    between atoms: C_4  and  S_5 
REMARK    3  A    between atoms: S_5  and  N_6 
REMARK    4  A    between atoms: N_6  and  C_7 
REMARK    5  A    between atoms: C_7  and  C_8 
REMARK    6  A    between atoms: C_7  and  C_21 
REMARK       I    between atoms: C_8  and  N_9 
REMARK    7  A    between atoms: N_9  and  C_10 
REMARK    8  A    between atoms: C_21  and  C_22 
REMARK    9  A    between atoms: C_22  and  S_23 
ROOT
HETATM    1  C   UNL     1       6.545  27.164  54.624  1.00  0.00     0.165 C 
ENDROOT
BRANCH   1   2
HETATM    2  N   UNL     1       6.786  25.696  54.732  1.00  0.00    -0.202 NA
HETATM    3  H   UNL     1       7.490  25.466  55.447  1.00  0.00     0.141 HD
BRANCH   2   4
HETATM    4  S   UNL     1       7.143  24.837  53.320  1.00  0.00     0.245 S 
HETATM    5  O   UNL     1       8.233  25.532  52.669  1.00  0.00    -0.206 OA
HETATM    6  O   UNL     1       5.895  24.600  52.629  1.00  0.00    -0.206 OA
BRANCH   4   7
HETATM    7  C   UNL     1       7.746  23.267  53.884  1.00  0.00     0.107 A 
HETATM    8  C   UNL     1       8.320  23.139  55.157  1.00  0.00     0.091 A 
HETATM    9  C   UNL     1       8.740  21.870  55.573  1.00  0.00     0.038 A 
HETATM   10  C   UNL     1       8.599  20.761  54.734  1.00  0.00     0.003 A 
HETATM   11  C   UNL     1       8.034  20.903  53.469  1.00  0.00     0.002 A 
HETATM   12  C   UNL     1       7.605  22.157  53.041  1.00  0.00     0.028 A 
BRANCH   8  13
HETATM   13  O   UNL     1       8.438  24.274  55.913  1.00  0.00    -0.354 OA
HETATM   14  C   UNL     1       8.830  24.119  57.273  1.00  0.00     0.210 C 
ENDBRANCH   8  13
ENDBRANCH   4   7
ENDBRANCH   2   4
ENDBRANCH   1   2
BRANCH   1  15
HETATM   15  C   UNL     1       7.178  27.875  55.823  1.00  0.00     0.254 C 
HETATM   16  N   UNL     1       6.607  29.087  56.142  1.00  0.00    -0.156 N 
HETATM   17  H   UNL     1       5.755  29.420  55.697  1.00  0.00     0.187 HD
HETATM   18  O   UNL     1       8.110  27.367  56.450  1.00  0.00    -0.271 OA
BRANCH  16  19
HETATM   19  C   UNL     1       7.079  29.865  57.168  1.00  0.00     0.708 A 
HETATM   20  N   UNL     1       6.327  30.538  58.004  1.00  0.00    -0.062 NA
HETATM   21  C   UNL     1       7.205  31.160  58.864  1.00  0.00     0.103 A 
HETATM   22  C   UNL     1       8.523  30.887  58.514  1.00  0.00     0.078 A 
HETATM   23  C   UNL     1       6.951  31.978  59.975  1.00  0.00     0.034 A 
HETATM   24  N   UNL     1       8.412  30.045  57.441  1.00  0.00    -0.188 N 
HETATM   25  C   UNL     1       9.626  31.411  59.191  1.00  0.00     0.032 A 
HETATM   26  H   UNL     1       9.161  29.608  56.922  1.00  0.00     0.184 HD
HETATM   27  C   UNL     1       9.352  32.234  60.289  1.00  0.00     0.002 A 
HETATM   28  C   UNL     1       8.038  32.507  60.682  1.00  0.00     0.002 A 
ENDBRANCH  16  19
ENDBRANCH   1  15
BRANCH   1  29
HETATM   29  C   UNL     1       5.018  27.351  54.603  1.00  0.00     0.040 C 
BRANCH  29  30
HETATM   30  C   UNL     1       4.422  28.022  53.364  1.00  0.00     0.075 C 
BRANCH  30  31
HETATM   31  S   UNL     1       5.619  28.408  52.046  1.00  0.00    -0.173 SA
HETATM   32  C   UNL     1       4.976  27.340  50.728  1.00  0.00     0.089 C 
ENDBRANCH  30  31
ENDBRANCH  29  30
ENDBRANCH   1  29
TORSDOF 9
ENDMDL
