MODEL 1
REMARK VINA RESULT:     -10.3      0.000      0.000
REMARK  7 active torsions:
REMARK  status: ('A' for Active; 'I' for Inactive)
REMARK    1  A    between atoms: C_2  and  N_3 
REMARK    2  A    between atoms: N_3  and  N_4 
REMARK       I    between atoms: N_4  and  C_5 
REMARK    3  A    between atoms: C_5  and  C_6 
REMARK       I    between atoms: C_6  and  N_7 
REMARK    4  A    between atoms: N_7  and  C_8 
REMARK    5  A    between atoms: C_9  and  O_10 
REMARK    6  A    between atoms: C_18  and  C_19 
REMARK       I    between atoms: C_19  and  N_20 
REMARK    7  A    between atoms: N_20  and  C_21 
ROOT
HETATM    1  N   UNL     1       7.269  29.012  58.468  1.00  0.00    -0.302 N 
HETATM    2  H   UNL     1       6.501  29.043  59.149  1.00  0.00     0.186 HD
ENDROOT
BRANCH   1   3
HETATM    3  C   UNL     1       7.095  28.135  57.408  1.00  0.00     0.027 C 
HETATM    4  C   UNL     1       7.033  28.800  56.050  1.00  0.00     0.070 C 
HETATM    5  C   UNL     1       6.964  26.802  57.570  1.00  0.00     0.100 C 
BRANCH   5   6
HETATM    6  C   UNL     1       6.628  25.849  56.470  1.00  0.00     0.247 C 
HETATM    7  N   UNL     1       7.761  25.251  55.954  1.00  0.00    -0.323 N 
HETATM    8  H   UNL     1       8.641  25.552  56.344  1.00  0.00     0.169 HD
HETATM    9  O   UNL     1       5.467  25.657  56.137  1.00  0.00    -0.268 OA
BRANCH   7  10
HETATM   10  C   UNL     1       7.838  24.297  54.905  1.00  0.00     0.041 A 
HETATM   11  C   UNL     1       8.126  22.944  55.220  1.00  0.00    -0.025 A 
HETATM   12  C   UNL     1       8.282  22.003  54.172  1.00  0.00    -0.050 A 
HETATM   13  C   UNL     1       8.321  22.498  56.658  1.00  0.00     0.041 C 
HETATM   14  C   UNL     1       8.609  20.551  54.433  1.00  0.00     0.039 C 
HETATM   15  C   UNL     1       8.086  22.399  52.843  1.00  0.00     0.008 A 
HETATM   16  C   UNL     1       9.192  20.305  55.818  1.00  0.00     0.005 C 
HETATM   17  C   UNL     1       8.323  20.984  56.864  1.00  0.00     0.005 C 
HETATM   18  C   UNL     1       7.770  23.717  52.542  1.00  0.00     0.003 A 
HETATM   19  C   UNL     1       7.653  24.656  53.564  1.00  0.00     0.030 A 
ENDBRANCH   7  10
ENDBRANCH   5   6
ENDBRANCH   1   3
BRANCH   1  20
HETATM   20  N   UNL     1       7.979  30.217  58.379  1.00  0.00    -0.262 N 
HETATM   21  C   UNL     1       8.788  30.517  59.470  1.00  0.00     0.328 C 
HETATM   22  O   UNL     1       9.072  29.741  60.373  1.00  0.00    -0.261 OA
HETATM   23  H   UNL     1       7.502  31.002  57.942  1.00  0.00     0.190 HD
BRANCH  21  24
HETATM   24  C   UNL     1       9.209  31.988  59.512  1.00  0.00     0.315 C 
HETATM   25  N   UNL     1       8.501  32.884  60.272  1.00  0.00    -0.316 N 
HETATM   26  H   UNL     1       8.594  33.850  59.972  1.00  0.00     0.169 HD
HETATM   27  O   UNL     1      10.139  32.333  58.785  1.00  0.00    -0.262 OA
BRANCH  25  28
HETATM   28  C   UNL     1       7.640  32.692  61.371  1.00  0.00     0.068 A 
HETATM   29  C   UNL     1       6.269  32.518  61.090  1.00  0.00     0.095 A 
HETATM   30  C   UNL     1       5.346  32.401  62.132  1.00  0.00     0.039 A 
HETATM   31  C   UNL     1       5.782  32.438  63.456  1.00  0.00     0.003 A 
HETATM   32  C   UNL     1       7.136  32.605  63.739  1.00  0.00     0.002 A 
HETATM   33  C   UNL     1       8.063  32.739  62.701  1.00  0.00     0.032 A 
BRANCH  29  34
HETATM   34  O   UNL     1       5.913  32.503  59.760  1.00  0.00    -0.354 OA
HETATM   35  C   UNL     1       4.551  32.153  59.522  1.00  0.00     0.210 C 
ENDBRANCH  29  34
ENDBRANCH  25  28
ENDBRANCH  21  24
ENDBRANCH   1  20
TORSDOF 7
ENDMDL
MODEL 2
REMARK VINA RESULT:      -9.8      1.294      2.373
REMARK  7 active torsions:
REMARK  status: ('A' for Active; 'I' for Inactive)
REMARK    1  A    between atoms: C_2  and  N_3 
REMARK    2  A    between atoms: N_3  and  N_4 
REMARK       I    between atoms: N_4  and  C_5 
REMARK    3  A    between atoms: C_5  and  C_6 
REMARK       I    between atoms: C_6  and  N_7 
REMARK    4  A    between atoms: N_7  and  C_8 
REMARK    5  A    between atoms: C_9  and  O_10 
REMARK    6  A    between atoms: C_18  and  C_19 
REMARK       I    between atoms: C_19  and  N_20 
REMARK    7  A    between atoms: N_20  and  C_21 
ROOT
HETATM    1  N   UNL     1       7.220  29.012  56.474  1.00  0.00    -0.302 N 
HETATM    2  H   UNL     1       6.486  29.583  56.039  1.00  0.00     0.186 HD
ENDROOT
BRANCH   1   3
HETATM    3  C   UNL     1       7.159  27.653  56.205  1.00  0.00     0.027 C 
HETATM    4  C   UNL     1       7.236  27.304  54.733  1.00  0.00     0.070 C 
HETATM    5  C   UNL     1       7.018  26.717  57.166  1.00  0.00     0.100 C 
BRANCH   5   6
HETATM    6  C   UNL     1       6.801  25.264  56.901  1.00  0.00     0.247 C 
HETATM    7  N   UNL     1       7.997  24.576  56.836  1.00  0.00    -0.323 N 
HETATM    8  H   UNL     1       8.835  25.129  56.932  1.00  0.00     0.169 HD
HETATM    9  O   UNL     1       5.672  24.806  56.788  1.00  0.00    -0.268 OA
BRANCH   7  10
HETATM   10  C   UNL     1       8.190  23.190  56.600  1.00  0.00     0.041 A 
HETATM   11  C   UNL     1       8.155  22.703  55.267  1.00  0.00    -0.025 A 
HETATM   12  C   UNL     1       8.268  21.311  55.031  1.00  0.00    -0.050 A 
HETATM   13  C   UNL     1       7.946  23.643  54.094  1.00  0.00     0.041 C 
HETATM   14  C   UNL     1       8.219  20.720  53.641  1.00  0.00     0.039 C 
HETATM   15  C   UNL     1       8.479  20.435  56.104  1.00  0.00     0.008 A 
HETATM   16  C   UNL     1       7.596  21.655  52.613  1.00  0.00     0.005 C 
HETATM   17  C   UNL     1       8.231  23.031  52.724  1.00  0.00     0.005 C 
HETATM   18  C   UNL     1       8.548  20.920  57.403  1.00  0.00     0.003 A 
HETATM   19  C   UNL     1       8.399  22.284  57.647  1.00  0.00     0.030 A 
ENDBRANCH   7  10
ENDBRANCH   5   6
ENDBRANCH   1   3
BRANCH   1  20
HETATM   20  N   UNL     1       8.412  29.715  56.693  1.00  0.00    -0.262 N 
HETATM   21  C   UNL     1       8.783  29.866  58.025  1.00  0.00     0.328 C 
HETATM   22  O   UNL     1       8.275  29.278  58.970  1.00  0.00    -0.261 OA
HETATM   23  H   UNL     1       8.600  30.506  56.080  1.00  0.00     0.190 HD
BRANCH  21  24
HETATM   24  C   UNL     1       9.835  30.958  58.229  1.00  0.00     0.315 C 
HETATM   25  N   UNL     1       9.640  31.932  59.176  1.00  0.00    -0.316 N 
HETATM   26  H   UNL     1      10.160  32.788  59.006  1.00  0.00     0.169 HD
HETATM   27  O   UNL     1      10.800  30.967  57.466  1.00  0.00    -0.262 OA
BRANCH  25  28
HETATM   28  C   UNL     1       8.817  31.963  60.319  1.00  0.00     0.068 A 
HETATM   29  C   UNL     1       7.471  32.336  60.131  1.00  0.00     0.095 A 
HETATM   30  C   UNL     1       6.615  32.464  61.228  1.00  0.00     0.039 A 
HETATM   31  C   UNL     1       7.089  32.206  62.514  1.00  0.00     0.003 A 
HETATM   32  C   UNL     1       8.417  31.832  62.705  1.00  0.00     0.002 A 
HETATM   33  C   UNL     1       9.282  31.717  61.613  1.00  0.00     0.032 A 
BRANCH  29  34
HETATM   34  O   UNL     1       7.079  32.586  58.835  1.00  0.00    -0.354 OA
HETATM   35  C   UNL     1       5.854  31.959  58.461  1.00  0.00     0.210 C 
ENDBRANCH  29  34
ENDBRANCH  25  28
ENDBRANCH  21  24
ENDBRANCH   1  20
TORSDOF 7
ENDMDL
MODEL 3
REMARK VINA RESULT:      -9.7      1.796     10.682
REMARK  7 active torsions:
REMARK  status: ('A' for Active; 'I' for Inactive)
REMARK    1  A    between atoms: C_2  and  N_3 
REMARK    2  A    between atoms: N_3  and  N_4 
REMARK       I    between atoms: N_4  and  C_5 
REMARK    3  A    between atoms: C_5  and  C_6 
REMARK       I    between atoms: C_6  and  N_7 
REMARK    4  A    between atoms: N_7  and  C_8 
REMARK    5  A    between atoms: C_9  and  O_10 
REMARK    6  A    between atoms: C_18  and  C_19 
REMARK       I    between atoms: C_19  and  N_20 
REMARK    7  A    between atoms: N_20  and  C_21 
ROOT
HETATM    1  N   UNL     1       9.112  28.584  56.792  1.00  0.00    -0.302 N 
HETATM    2  H   UNL     1       9.376  28.718  55.809  1.00  0.00     0.186 HD
ENDROOT
BRANCH   1   3
HETATM    3  C   UNL     1       9.211  29.709  57.597  1.00  0.00     0.027 C 
HETATM    4  C   UNL     1      10.608  30.283  57.700  1.00  0.00     0.070 C 
HETATM    5  C   UNL     1       8.159  30.238  58.255  1.00  0.00     0.100 C 
BRANCH   5   6
HETATM    6  C   UNL     1       8.258  31.354  59.242  1.00  0.00     0.247 C 
HETATM    7  N   UNL     1       7.486  31.110  60.362  1.00  0.00    -0.323 N 
HETATM    8  H   UNL     1       6.945  30.260  60.353  1.00  0.00     0.169 HD
HETATM    9  O   UNL     1       8.971  32.324  59.026  1.00  0.00    -0.268 OA
BRANCH   7  10
HETATM   10  C   UNL     1       7.328  31.938  61.504  1.00  0.00     0.041 A 
HETATM   11  C   UNL     1       6.306  32.924  61.507  1.00  0.00    -0.025 A 
HETATM   12  C   UNL     1       6.194  33.805  62.611  1.00  0.00    -0.050 A 
HETATM   13  C   UNL     1       5.367  33.084  60.326  1.00  0.00     0.041 C 
HETATM   14  C   UNL     1       5.144  34.891  62.674  1.00  0.00     0.039 C 
HETATM   15  C   UNL     1       7.043  33.654  63.715  1.00  0.00     0.008 A 
HETATM   16  C   UNL     1       4.559  35.239  61.312  1.00  0.00     0.005 C 
HETATM   17  C   UNL     1       4.148  33.965  60.592  1.00  0.00     0.005 C 
HETATM   18  C   UNL     1       8.017  32.666  63.722  1.00  0.00     0.003 A 
HETATM   19  C   UNL     1       8.160  31.820  62.623  1.00  0.00     0.030 A 
ENDBRANCH   7  10
ENDBRANCH   5   6
ENDBRANCH   1   3
BRANCH   1  20
HETATM   20  N   UNL     1       8.165  27.568  56.978  1.00  0.00    -0.262 N 
HETATM   21  C   UNL     1       7.387  27.265  55.866  1.00  0.00     0.328 C 
HETATM   22  O   UNL     1       7.598  27.660  54.727  1.00  0.00    -0.261 OA
HETATM   23  H   UNL     1       7.695  27.535  57.880  1.00  0.00     0.190 HD
BRANCH  21  24
HETATM   24  C   UNL     1       6.131  26.466  56.219  1.00  0.00     0.315 C 
HETATM   25  N   UNL     1       5.903  25.247  55.632  1.00  0.00    -0.316 N 
HETATM   26  H   UNL     1       4.927  24.966  55.621  1.00  0.00     0.169 HD
HETATM   27  O   UNL     1       5.316  26.994  56.975  1.00  0.00    -0.262 OA
BRANCH  25  28
HETATM   28  C   UNL     1       6.782  24.339  55.008  1.00  0.00     0.068 A 
HETATM   29  C   UNL     1       6.732  24.260  53.602  1.00  0.00     0.095 A 
HETATM   30  C   UNL     1       7.518  23.327  52.920  1.00  0.00     0.039 A 
HETATM   31  C   UNL     1       8.368  22.481  53.632  1.00  0.00     0.003 A 
HETATM   32  C   UNL     1       8.425  22.559  55.022  1.00  0.00     0.002 A 
HETATM   33  C   UNL     1       7.630  23.480  55.710  1.00  0.00     0.032 A 
BRANCH  29  34
HETATM   34  O   UNL     1       5.861  25.118  52.969  1.00  0.00    -0.354 OA
HETATM   35  C   UNL     1       6.375  25.702  51.774  1.00  0.00     0.210 C 
ENDBRANCH  29  34
ENDBRANCH  25  28
ENDBRANCH  21  24
ENDBRANCH   1  20
TORSDOF 7
ENDMDL
MODEL 4
REMARK VINA RESULT:      -9.5      2.140      3.954
REMARK  7 active torsions:
REMARK  status: ('A' for Active; 'I' for Inactive)
REMARK    1  A    between atoms: C_2  and  N_3 
REMARK    2  A    between atoms: N_3  and  N_4 
REMARK       I    between atoms: N_4  and  C_5 
REMARK    3  A    between atoms: C_5  and  C_6 
REMARK       I    between atoms: C_6  and  N_7 
REMARK    4  A    between atoms: N_7  and  C_8 
REMARK    5  A    between atoms: C_9  and  O_10 
REMARK    6  A    between atoms: C_18  and  C_19 
REMARK       I    between atoms: C_19  and  N_20 
REMARK    7  A    between atoms: N_20  and  C_21 
ROOT
HETATM    1  N   UNL     1       6.197  31.249  58.128  1.00  0.00    -0.302 N 
HETATM    2  H   UNL     1       6.687  32.152  58.134  1.00  0.00     0.186 HD
ENDROOT
BRANCH   1   3
HETATM    3  C   UNL     1       6.996  30.137  57.909  1.00  0.00     0.027 C 
HETATM    4  C   UNL     1       8.089  29.940  58.938  1.00  0.00     0.070 C 
HETATM    5  C   UNL     1       6.834  29.310  56.855  1.00  0.00     0.100 C 
BRANCH   5   6
HETATM    6  C   UNL     1       7.765  28.195  56.509  1.00  0.00     0.247 C 
HETATM    7  N   UNL     1       7.124  26.972  56.543  1.00  0.00    -0.323 N 
HETATM    8  H   UNL     1       6.156  26.983  56.826  1.00  0.00     0.169 HD
HETATM    9  O   UNL     1       8.932  28.417  56.219  1.00  0.00    -0.268 OA
BRANCH   7  10
HETATM   10  C   UNL     1       7.680  25.693  56.275  1.00  0.00     0.041 A 
HETATM   11  C   UNL     1       7.697  25.213  54.939  1.00  0.00    -0.025 A 
HETATM   12  C   UNL     1       8.176  23.906  54.676  1.00  0.00    -0.050 A 
HETATM   13  C   UNL     1       7.161  26.054  53.796  1.00  0.00     0.041 C 
HETATM   14  C   UNL     1       8.206  23.321  53.283  1.00  0.00     0.039 C 
HETATM   15  C   UNL     1       8.691  23.127  55.721  1.00  0.00     0.008 A 
HETATM   16  C   UNL     1       7.283  24.043  52.310  1.00  0.00     0.005 C 
HETATM   17  C   UNL     1       7.516  25.542  52.402  1.00  0.00     0.005 C 
HETATM   18  C   UNL     1       8.705  23.615  57.020  1.00  0.00     0.003 A 
HETATM   19  C   UNL     1       8.198  24.884  57.293  1.00  0.00     0.030 A 
ENDBRANCH   7  10
ENDBRANCH   5   6
ENDBRANCH   1   3
BRANCH   1  20
HETATM   20  N   UNL     1       5.042  31.240  58.922  1.00  0.00    -0.262 N 
HETATM   21  C   UNL     1       4.849  32.369  59.711  1.00  0.00     0.328 C 
HETATM   22  O   UNL     1       5.479  33.414  59.614  1.00  0.00    -0.261 OA
HETATM   23  H   UNL     1       4.773  30.349  59.335  1.00  0.00     0.190 HD
BRANCH  21  24
HETATM   24  C   UNL     1       3.831  32.145  60.830  1.00  0.00     0.315 C 
HETATM   25  N   UNL     1       4.259  31.877  62.106  1.00  0.00    -0.316 N 
HETATM   26  H   UNL     1       3.577  31.390  62.681  1.00  0.00     0.169 HD
HETATM   27  O   UNL     1       2.640  32.138  60.521  1.00  0.00    -0.262 OA
BRANCH  25  28
HETATM   28  C   UNL     1       5.491  32.124  62.742  1.00  0.00     0.068 A 
HETATM   29  C   UNL     1       5.468  32.943  63.890  1.00  0.00     0.095 A 
HETATM   30  C   UNL     1       6.661  33.296  64.527  1.00  0.00     0.039 A 
HETATM   31  C   UNL     1       7.878  32.821  64.038  1.00  0.00     0.003 A 
HETATM   32  C   UNL     1       7.905  32.008  62.908  1.00  0.00     0.002 A 
HETATM   33  C   UNL     1       6.717  31.664  62.257  1.00  0.00     0.032 A 
BRANCH  29  34
HETATM   34  O   UNL     1       4.232  33.382  64.306  1.00  0.00    -0.354 OA
HETATM   35  C   UNL     1       4.241  34.062  65.559  1.00  0.00     0.210 C 
ENDBRANCH  29  34
ENDBRANCH  25  28
ENDBRANCH  21  24
ENDBRANCH   1  20
TORSDOF 7
ENDMDL
MODEL 5
REMARK VINA RESULT:      -9.5      2.168      3.328
REMARK  7 active torsions:
REMARK  status: ('A' for Active; 'I' for Inactive)
REMARK    1  A    between atoms: C_2  and  N_3 
REMARK    2  A    between atoms: N_3  and  N_4 
REMARK       I    between atoms: N_4  and  C_5 
REMARK    3  A    between atoms: C_5  and  C_6 
REMARK       I    between atoms: C_6  and  N_7 
REMARK    4  A    between atoms: N_7  and  C_8 
REMARK    5  A    between atoms: C_9  and  O_10 
REMARK    6  A    between atoms: C_18  and  C_19 
REMARK       I    between atoms: C_19  and  N_20 
REMARK    7  A    between atoms: N_20  and  C_21 
ROOT
HETATM    1  N   UNL     1       6.823  30.806  58.175  1.00  0.00    -0.302 N 
HETATM    2  H   UNL     1       7.598  31.258  58.676  1.00  0.00     0.186 HD
ENDROOT
BRANCH   1   3
HETATM    3  C   UNL     1       7.176  29.744  57.358  1.00  0.00     0.027 C 
HETATM    4  C   UNL     1       8.331  28.914  57.877  1.00  0.00     0.070 C 
HETATM    5  C   UNL     1       6.564  29.482  56.185  1.00  0.00     0.100 C 
BRANCH   5   6
HETATM    6  C   UNL     1       7.015  28.441  55.214  1.00  0.00     0.247 C 
HETATM    7  N   UNL     1       6.208  27.320  55.262  1.00  0.00    -0.323 N 
HETATM    8  H   UNL     1       5.470  27.331  55.948  1.00  0.00     0.169 HD
HETATM    9  O   UNL     1       7.975  28.636  54.482  1.00  0.00    -0.268 OA
BRANCH   7  10
HETATM   10  C   UNL     1       6.325  26.133  54.492  1.00  0.00     0.041 A 
HETATM   11  C   UNL     1       7.087  25.050  55.003  1.00  0.00    -0.025 A 
HETATM   12  C   UNL     1       7.274  23.893  54.206  1.00  0.00    -0.050 A 
HETATM   13  C   UNL     1       7.750  25.130  56.366  1.00  0.00     0.041 C 
HETATM   14  C   UNL     1       8.089  22.711  54.677  1.00  0.00     0.039 C 
HETATM   15  C   UNL     1       6.652  23.799  52.954  1.00  0.00     0.008 A 
HETATM   16  C   UNL     1       9.032  23.050  55.823  1.00  0.00     0.005 C 
HETATM   17  C   UNL     1       8.272  23.800  56.904  1.00  0.00     0.005 C 
HETATM   18  C   UNL     1       5.879  24.847  52.474  1.00  0.00     0.003 A 
HETATM   19  C   UNL     1       5.723  26.004  53.235  1.00  0.00     0.030 A 
ENDBRANCH   7  10
ENDBRANCH   5   6
ENDBRANCH   1   3
BRANCH   1  20
HETATM   20  N   UNL     1       5.598  30.903  58.850  1.00  0.00    -0.262 N 
HETATM   21  C   UNL     1       5.275  32.169  59.327  1.00  0.00     0.328 C 
HETATM   22  O   UNL     1       5.859  33.203  59.034  1.00  0.00    -0.261 OA
HETATM   23  H   UNL     1       5.334  30.117  59.441  1.00  0.00     0.190 HD
BRANCH  21  24
HETATM   24  C   UNL     1       4.164  32.142  60.379  1.00  0.00     0.315 C 
HETATM   25  N   UNL     1       4.478  31.984  61.705  1.00  0.00    -0.316 N 
HETATM   26  H   UNL     1       3.720  31.613  62.271  1.00  0.00     0.169 HD
HETATM   27  O   UNL     1       3.002  32.187  59.979  1.00  0.00    -0.262 OA
BRANCH  25  28
HETATM   28  C   UNL     1       5.678  32.209  62.408  1.00  0.00     0.068 A 
HETATM   29  C   UNL     1       5.588  32.930  63.617  1.00  0.00     0.095 A 
HETATM   30  C   UNL     1       6.746  33.259  64.328  1.00  0.00     0.039 A 
HETATM   31  C   UNL     1       7.993  32.857  63.851  1.00  0.00     0.003 A 
HETATM   32  C   UNL     1       8.086  32.140  62.661  1.00  0.00     0.002 A 
HETATM   33  C   UNL     1       6.934  31.821  61.936  1.00  0.00     0.032 A 
BRANCH  29  34
HETATM   34  O   UNL     1       4.325  33.302  64.017  1.00  0.00    -0.354 OA
HETATM   35  C   UNL     1       4.270  33.889  65.316  1.00  0.00     0.210 C 
ENDBRANCH  29  34
ENDBRANCH  25  28
ENDBRANCH  21  24
ENDBRANCH   1  20
TORSDOF 7
ENDMDL
MODEL 6
REMARK VINA RESULT:      -9.5      1.874     10.668
REMARK  7 active torsions:
REMARK  status: ('A' for Active; 'I' for Inactive)
REMARK    1  A    between atoms: C_2  and  N_3 
REMARK    2  A    between atoms: N_3  and  N_4 
REMARK       I    between atoms: N_4  and  C_5 
REMARK    3  A    between atoms: C_5  and  C_6 
REMARK       I    between atoms: C_6  and  N_7 
REMARK    4  A    between atoms: N_7  and  C_8 
REMARK    5  A    between atoms: C_9  and  O_10 
REMARK    6  A    between atoms: C_18  and  C_19 
REMARK       I    between atoms: C_19  and  N_20 
REMARK    7  A    between atoms: N_20  and  C_21 
ROOT
HETATM    1  N   UNL     1       7.254  29.316  56.406  1.00  0.00    -0.302 N 
HETATM    2  H   UNL     1       6.511  29.421  55.704  1.00  0.00     0.186 HD
ENDROOT
BRANCH   1   3
HETATM    3  C   UNL     1       7.240  30.244  57.436  1.00  0.00     0.027 C 
HETATM    4  C   UNL     1       6.009  31.126  57.466  1.00  0.00     0.070 C 
HETATM    5  C   UNL     1       8.246  30.372  58.325  1.00  0.00     0.100 C 
BRANCH   5   6
HETATM    6  C   UNL     1       8.330  31.454  59.351  1.00  0.00     0.247 C 
HETATM    7  N   UNL     1       7.507  31.195  60.430  1.00  0.00    -0.323 N 
HETATM    8  H   UNL     1       6.946  30.359  60.371  1.00  0.00     0.169 HD
HETATM    9  O   UNL     1       9.076  32.411  59.196  1.00  0.00    -0.268 OA
BRANCH   7  10
HETATM   10  C   UNL     1       7.321  31.991  61.591  1.00  0.00     0.041 A 
HETATM   11  C   UNL     1       6.291  32.967  61.602  1.00  0.00    -0.025 A 
HETATM   12  C   UNL     1       6.150  33.817  62.726  1.00  0.00    -0.050 A 
HETATM   13  C   UNL     1       5.370  33.150  60.409  1.00  0.00     0.041 C 
HETATM   14  C   UNL     1       5.090  34.891  62.800  1.00  0.00     0.039 C 
HETATM   15  C   UNL     1       6.982  33.645  63.841  1.00  0.00     0.008 A 
HETATM   16  C   UNL     1       4.524  35.270  61.438  1.00  0.00     0.005 C 
HETATM   17  C   UNL     1       4.138  34.012  60.678  1.00  0.00     0.005 C 
HETATM   18  C   UNL     1       7.966  32.666  63.839  1.00  0.00     0.003 A 
HETATM   19  C   UNL     1       8.135  31.851  62.721  1.00  0.00     0.030 A 
ENDBRANCH   7  10
ENDBRANCH   5   6
ENDBRANCH   1   3
BRANCH   1  20
HETATM   20  N   UNL     1       7.698  27.994  56.547  1.00  0.00    -0.262 N 
HETATM   21  C   UNL     1       6.746  27.088  57.001  1.00  0.00     0.328 C 
HETATM   22  O   UNL     1       5.545  27.309  57.086  1.00  0.00    -0.261 OA
HETATM   23  H   UNL     1       8.647  27.861  56.890  1.00  0.00     0.190 HD
BRANCH  21  24
HETATM   24  C   UNL     1       7.362  25.786  57.518  1.00  0.00     0.315 C 
HETATM   25  N   UNL     1       7.258  24.635  56.778  1.00  0.00    -0.316 N 
HETATM   26  H   UNL     1       7.347  23.781  57.321  1.00  0.00     0.169 HD
HETATM   27  O   UNL     1       7.872  25.805  58.637  1.00  0.00    -0.262 OA
BRANCH  25  28
HETATM   28  C   UNL     1       7.010  24.433  55.406  1.00  0.00     0.068 A 
HETATM   29  C   UNL     1       7.990  23.733  54.673  1.00  0.00     0.095 A 
HETATM   30  C   UNL     1       7.850  23.563  53.292  1.00  0.00     0.039 A 
HETATM   31  C   UNL     1       6.728  24.073  52.639  1.00  0.00     0.003 A 
HETATM   32  C   UNL     1       5.754  24.761  53.360  1.00  0.00     0.002 A 
HETATM   33  C   UNL     1       5.896  24.947  54.738  1.00  0.00     0.032 A 
BRANCH  29  34
HETATM   34  O   UNL     1       9.074  23.270  55.384  1.00  0.00    -0.354 OA
HETATM   35  C   UNL     1       9.112  21.854  55.541  1.00  0.00     0.210 C 
ENDBRANCH  29  34
ENDBRANCH  25  28
ENDBRANCH  21  24
ENDBRANCH   1  20
TORSDOF 7
ENDMDL
MODEL 7
REMARK VINA RESULT:      -9.4      2.381      3.354
REMARK  7 active torsions:
REMARK  status: ('A' for Active; 'I' for Inactive)
REMARK    1  A    between atoms: C_2  and  N_3 
REMARK    2  A    between atoms: N_3  and  N_4 
REMARK       I    between atoms: N_4  and  C_5 
REMARK    3  A    between atoms: C_5  and  C_6 
REMARK       I    between atoms: C_6  and  N_7 
REMARK    4  A    between atoms: N_7  and  C_8 
REMARK    5  A    between atoms: C_9  and  O_10 
REMARK    6  A    between atoms: C_18  and  C_19 
REMARK       I    between atoms: C_19  and  N_20 
REMARK    7  A    between atoms: N_20  and  C_21 
ROOT
HETATM    1  N   UNL     1       4.610  29.854  58.127  1.00  0.00    -0.302 N 
HETATM    2  H   UNL     1       3.681  29.422  58.197  1.00  0.00     0.186 HD
ENDROOT
BRANCH   1   3
HETATM    3  C   UNL     1       5.399  29.410  57.076  1.00  0.00     0.027 C 
HETATM    4  C   UNL     1       5.104  30.077  55.749  1.00  0.00     0.070 C 
HETATM    5  C   UNL     1       6.334  28.448  57.213  1.00  0.00     0.100 C 
BRANCH   5   6
HETATM    6  C   UNL     1       7.093  27.844  56.078  1.00  0.00     0.247 C 
HETATM    7  N   UNL     1       6.425  26.760  55.541  1.00  0.00    -0.323 N 
HETATM    8  H   UNL     1       5.561  26.500  55.992  1.00  0.00     0.169 HD
HETATM    9  O   UNL     1       8.158  28.318  55.710  1.00  0.00    -0.268 OA
BRANCH   7  10
HETATM   10  C   UNL     1       6.834  25.937  54.459  1.00  0.00     0.041 A 
HETATM   11  C   UNL     1       7.439  24.683  54.734  1.00  0.00    -0.025 A 
HETATM   12  C   UNL     1       7.921  23.893  53.661  1.00  0.00    -0.050 A 
HETATM   13  C   UNL     1       7.626  24.198  56.159  1.00  0.00     0.041 C 
HETATM   14  C   UNL     1       8.593  22.557  53.880  1.00  0.00     0.039 C 
HETATM   15  C   UNL     1       7.737  24.322  52.339  1.00  0.00     0.008 A 
HETATM   16  C   UNL     1       9.104  22.368  55.301  1.00  0.00     0.005 C 
HETATM   17  C   UNL     1       8.007  22.725  56.290  1.00  0.00     0.005 C 
HETATM   18  C   UNL     1       7.113  25.533  52.074  1.00  0.00     0.003 A 
HETATM   19  C   UNL     1       6.671  26.334  53.126  1.00  0.00     0.030 A 
ENDBRANCH   7  10
ENDBRANCH   5   6
ENDBRANCH   1   3
BRANCH   1  20
HETATM   20  N   UNL     1       4.656  31.155  58.645  1.00  0.00    -0.262 N 
HETATM   21  C   UNL     1       3.584  31.515  59.456  1.00  0.00     0.328 C 
HETATM   22  O   UNL     1       2.743  30.743  59.897  1.00  0.00    -0.261 OA
HETATM   23  H   UNL     1       5.024  31.883  58.035  1.00  0.00     0.190 HD
BRANCH  21  24
HETATM   24  C   UNL     1       3.471  33.027  59.656  1.00  0.00     0.315 C 
HETATM   25  N   UNL     1       4.100  33.629  60.717  1.00  0.00    -0.316 N 
HETATM   26  H   UNL     1       3.695  34.519  60.992  1.00  0.00     0.169 HD
HETATM   27  O   UNL     1       2.741  33.649  58.886  1.00  0.00    -0.262 OA
BRANCH  25  28
HETATM   28  C   UNL     1       5.184  33.208  61.513  1.00  0.00     0.068 A 
HETATM   29  C   UNL     1       4.944  33.051  62.893  1.00  0.00     0.095 A 
HETATM   30  C   UNL     1       5.990  32.712  63.756  1.00  0.00     0.039 A 
HETATM   31  C   UNL     1       7.274  32.511  63.248  1.00  0.00     0.003 A 
HETATM   32  C   UNL     1       7.515  32.661  61.884  1.00  0.00     0.002 A 
HETATM   33  C   UNL     1       6.476  33.014  61.018  1.00  0.00     0.032 A 
BRANCH  29  34
HETATM   34  O   UNL     1       3.656  33.277  63.322  1.00  0.00    -0.354 OA
HETATM   35  C   UNL     1       3.535  34.303  64.305  1.00  0.00     0.210 C 
ENDBRANCH  29  34
ENDBRANCH  25  28
ENDBRANCH  21  24
ENDBRANCH   1  20
TORSDOF 7
ENDMDL
MODEL 8
REMARK VINA RESULT:      -9.4      6.693      9.945
REMARK  7 active torsions:
REMARK  status: ('A' for Active; 'I' for Inactive)
REMARK    1  A    between atoms: C_2  and  N_3 
REMARK    2  A    between atoms: N_3  and  N_4 
REMARK       I    between atoms: N_4  and  C_5 
REMARK    3  A    between atoms: C_5  and  C_6 
REMARK       I    between atoms: C_6  and  N_7 
REMARK    4  A    between atoms: N_7  and  C_8 
REMARK    5  A    between atoms: C_9  and  O_10 
REMARK    6  A    between atoms: C_18  and  C_19 
REMARK       I    between atoms: C_19  and  N_20 
REMARK    7  A    between atoms: N_20  and  C_21 
ROOT
HETATM    1  N   UNL     1       5.176  26.918  49.922  1.00  0.00    -0.302 N 
HETATM    2  H   UNL     1       5.840  27.623  49.579  1.00  0.00     0.186 HD
ENDROOT
BRANCH   1   3
HETATM    3  C   UNL     1       5.320  26.560  51.254  1.00  0.00     0.027 C 
HETATM    4  C   UNL     1       5.701  27.703  52.171  1.00  0.00     0.070 C 
HETATM    5  C   UNL     1       5.159  25.297  51.699  1.00  0.00     0.100 C 
BRANCH   5   6
HETATM    6  C   UNL     1       5.450  24.851  53.094  1.00  0.00     0.247 C 
HETATM    7  N   UNL     1       6.787  24.543  53.259  1.00  0.00    -0.323 N 
HETATM    8  H   UNL     1       7.366  24.617  52.437  1.00  0.00     0.169 HD
HETATM    9  O   UNL     1       4.567  24.811  53.939  1.00  0.00    -0.268 OA
BRANCH   7  10
HETATM   10  C   UNL     1       7.433  24.087  54.437  1.00  0.00     0.041 A 
HETATM   11  C   UNL     1       7.961  22.769  54.471  1.00  0.00    -0.025 A 
HETATM   12  C   UNL     1       8.537  22.281  55.670  1.00  0.00    -0.050 A 
HETATM   13  C   UNL     1       7.871  21.857  53.261  1.00  0.00     0.041 C 
HETATM   14  C   UNL     1       9.099  20.883  55.784  1.00  0.00     0.039 C 
HETATM   15  C   UNL     1       8.642  23.120  56.787  1.00  0.00     0.008 A 
HETATM   16  C   UNL     1       8.590  19.940  54.703  1.00  0.00     0.005 C 
HETATM   17  C   UNL     1       8.735  20.600  53.342  1.00  0.00     0.005 C 
HETATM   18  C   UNL     1       8.156  24.419  56.738  1.00  0.00     0.003 A 
HETATM   19  C   UNL     1       7.553  24.894  55.575  1.00  0.00     0.030 A 
ENDBRANCH   7  10
ENDBRANCH   5   6
ENDBRANCH   1   3
BRANCH   1  20
HETATM   20  N   UNL     1       3.951  26.934  49.242  1.00  0.00    -0.262 N 
HETATM   21  C   UNL     1       4.032  26.829  47.858  1.00  0.00     0.328 C 
HETATM   22  O   UNL     1       5.040  26.530  47.231  1.00  0.00    -0.261 OA
HETATM   23  H   UNL     1       3.229  27.553  49.606  1.00  0.00     0.190 HD
BRANCH  21  24
HETATM   24  C   UNL     1       2.743  27.253  47.152  1.00  0.00     0.315 C 
HETATM   25  N   UNL     1       2.348  28.567  47.172  1.00  0.00    -0.316 N 
HETATM   26  H   UNL     1       1.353  28.705  47.024  1.00  0.00     0.169 HD
HETATM   27  O   UNL     1       2.053  26.366  46.649  1.00  0.00    -0.262 OA
BRANCH  25  28
HETATM   28  C   UNL     1       3.077  29.751  47.399  1.00  0.00     0.068 A 
HETATM   29  C   UNL     1       2.983  30.326  48.683  1.00  0.00     0.095 A 
HETATM   30  C   UNL     1       3.615  31.542  48.958  1.00  0.00     0.039 A 
HETATM   31  C   UNL     1       4.357  32.181  47.964  1.00  0.00     0.003 A 
HETATM   32  C   UNL     1       4.457  31.614  46.696  1.00  0.00     0.002 A 
HETATM   33  C   UNL     1       3.814  30.406  46.410  1.00  0.00     0.032 A 
BRANCH  29  34
HETATM   34  O   UNL     1       2.224  29.644  49.607  1.00  0.00    -0.354 OA
HETATM   35  C   UNL     1       2.698  29.750  50.948  1.00  0.00     0.210 C 
ENDBRANCH  29  34
ENDBRANCH  25  28
ENDBRANCH  21  24
ENDBRANCH   1  20
TORSDOF 7
ENDMDL
MODEL 9
REMARK VINA RESULT:      -9.4      1.432      2.447
REMARK  7 active torsions:
REMARK  status: ('A' for Active; 'I' for Inactive)
REMARK    1  A    between atoms: C_2  and  N_3 
REMARK    2  A    between atoms: N_3  and  N_4 
REMARK       I    between atoms: N_4  and  C_5 
REMARK    3  A    between atoms: C_5  and  C_6 
REMARK       I    between atoms: C_6  and  N_7 
REMARK    4  A    between atoms: N_7  and  C_8 
REMARK    5  A    between atoms: C_9  and  O_10 
REMARK    6  A    between atoms: C_18  and  C_19 
REMARK       I    between atoms: C_19  and  N_20 
REMARK    7  A    between atoms: N_20  and  C_21 
ROOT
HETATM    1  N   UNL     1       5.941  28.843  57.779  1.00  0.00    -0.302 N 
HETATM    2  H   UNL     1       4.932  28.707  57.650  1.00  0.00     0.186 HD
ENDROOT
BRANCH   1   3
HETATM    3  C   UNL     1       6.759  28.000  57.042  1.00  0.00     0.027 C 
HETATM    4  C   UNL     1       7.270  28.600  55.749  1.00  0.00     0.070 C 
HETATM    5  C   UNL     1       7.056  26.742  57.426  1.00  0.00     0.100 C 
BRANCH   5   6
HETATM    6  C   UNL     1       7.807  25.761  56.587  1.00  0.00     0.247 C 
HETATM    7  N   UNL     1       6.964  25.063  55.745  1.00  0.00    -0.323 N 
HETATM    8  H   UNL     1       5.980  25.270  55.829  1.00  0.00     0.169 HD
HETATM    9  O   UNL     1       9.023  25.659  56.675  1.00  0.00    -0.268 OA
BRANCH   7  10
HETATM   10  C   UNL     1       7.311  24.055  54.809  1.00  0.00     0.041 A 
HETATM   11  C   UNL     1       7.790  22.806  55.284  1.00  0.00    -0.025 A 
HETATM   12  C   UNL     1       8.213  21.824  54.354  1.00  0.00    -0.050 A 
HETATM   13  C   UNL     1       7.907  22.524  56.770  1.00  0.00     0.041 C 
HETATM   14  C   UNL     1       8.753  20.480  54.788  1.00  0.00     0.039 C 
HETATM   15  C   UNL     1       8.093  22.065  52.979  1.00  0.00     0.008 A 
HETATM   16  C   UNL     1       9.221  20.460  56.237  1.00  0.00     0.005 C 
HETATM   17  C   UNL     1       8.145  21.058  57.128  1.00  0.00     0.005 C 
HETATM   18  C   UNL     1       7.590  23.275  52.520  1.00  0.00     0.003 A 
HETATM   19  C   UNL     1       7.209  24.261  53.428  1.00  0.00     0.030 A 
ENDBRANCH   7  10
ENDBRANCH   5   6
ENDBRANCH   1   3
BRANCH   1  20
HETATM   20  N   UNL     1       6.282  30.158  58.128  1.00  0.00    -0.262 N 
HETATM   21  C   UNL     1       5.211  31.029  58.296  1.00  0.00     0.328 C 
HETATM   22  O   UNL     1       4.034  30.697  58.361  1.00  0.00    -0.261 OA
HETATM   23  H   UNL     1       7.117  30.548  57.697  1.00  0.00     0.190 HD
BRANCH  21  24
HETATM   24  C   UNL     1       5.631  32.500  58.271  1.00  0.00     0.315 C 
HETATM   25  N   UNL     1       6.185  33.076  59.387  1.00  0.00    -0.316 N 
HETATM   26  H   UNL     1       6.093  34.086  59.424  1.00  0.00     0.169 HD
HETATM   27  O   UNL     1       5.380  33.145  57.254  1.00  0.00    -0.262 OA
BRANCH  25  28
HETATM   28  C   UNL     1       6.825  32.505  60.505  1.00  0.00     0.068 A 
HETATM   29  C   UNL     1       8.192  32.188  60.371  1.00  0.00     0.095 A 
HETATM   30  C   UNL     1       8.872  31.549  61.411  1.00  0.00     0.039 A 
HETATM   31  C   UNL     1       8.201  31.238  62.594  1.00  0.00     0.003 A 
HETATM   32  C   UNL     1       6.852  31.552  62.733  1.00  0.00     0.002 A 
HETATM   33  C   UNL     1       6.162  32.179  61.690  1.00  0.00     0.032 A 
BRANCH  29  34
HETATM   34  O   UNL     1       8.783  32.516  59.172  1.00  0.00    -0.354 OA
HETATM   35  C   UNL     1       9.814  31.620  58.762  1.00  0.00     0.210 C 
ENDBRANCH  29  34
ENDBRANCH  25  28
ENDBRANCH  21  24
ENDBRANCH   1  20
TORSDOF 7
ENDMDL
MODEL 10
REMARK VINA RESULT:      -9.3      5.874      9.144
REMARK  7 active torsions:
REMARK  status: ('A' for Active; 'I' for Inactive)
REMARK    1  A    between atoms: C_2  and  N_3 
REMARK    2  A    between atoms: N_3  and  N_4 
REMARK       I    between atoms: N_4  and  C_5 
REMARK    3  A    between atoms: C_5  and  C_6 
REMARK       I    between atoms: C_6  and  N_7 
REMARK    4  A    between atoms: N_7  and  C_8 
REMARK    5  A    between atoms: C_9  and  O_10 
REMARK    6  A    between atoms: C_18  and  C_19 
REMARK       I    between atoms: C_19  and  N_20 
REMARK    7  A    between atoms: N_20  and  C_21 
ROOT
HETATM    1  N   UNL     1       4.938  28.308  53.166  1.00  0.00    -0.302 N 
HETATM    2  H   UNL     1       3.942  28.559  53.133  1.00  0.00     0.186 HD
ENDROOT
BRANCH   1   3
HETATM    3  C   UNL     1       5.226  27.076  53.733  1.00  0.00     0.027 C 
HETATM    4  C   UNL     1       4.871  25.890  52.862  1.00  0.00     0.070 C 
HETATM    5  C   UNL     1       5.755  26.939  54.966  1.00  0.00     0.100 C 
BRANCH   5   6
HETATM    6  C   UNL     1       5.938  25.631  55.663  1.00  0.00     0.247 C 
HETATM    7  N   UNL     1       7.145  25.046  55.333  1.00  0.00    -0.323 N 
HETATM    8  H   UNL     1       7.710  25.539  54.658  1.00  0.00     0.169 HD
HETATM    9  O   UNL     1       5.091  25.204  56.434  1.00  0.00    -0.268 OA
BRANCH   7  10
HETATM   10  C   UNL     1       7.665  23.808  55.793  1.00  0.00     0.041 A 
HETATM   11  C   UNL     1       7.858  22.751  54.865  1.00  0.00    -0.025 A 
HETATM   12  C   UNL     1       8.300  21.488  55.331  1.00  0.00    -0.050 A 
HETATM   13  C   UNL     1       7.547  22.934  53.391  1.00  0.00     0.041 C 
HETATM   14  C   UNL     1       8.508  20.313  54.405  1.00  0.00     0.039 C 
HETATM   15  C   UNL     1       8.608  21.312  56.687  1.00  0.00     0.008 A 
HETATM   16  C   UNL     1       7.784  20.462  53.074  1.00  0.00     0.005 C 
HETATM   17  C   UNL     1       8.081  21.830  52.482  1.00  0.00     0.005 C 
HETATM   18  C   UNL     1       8.452  22.359  57.585  1.00  0.00     0.003 A 
HETATM   19  C   UNL     1       7.979  23.593  57.140  1.00  0.00     0.030 A 
ENDBRANCH   7  10
ENDBRANCH   5   6
ENDBRANCH   1   3
BRANCH   1  20
HETATM   20  N   UNL     1       5.690  28.894  52.139  1.00  0.00    -0.262 N 
HETATM   21  C   UNL     1       4.959  29.588  51.181  1.00  0.00     0.328 C 
HETATM   22  O   UNL     1       3.776  29.888  51.277  1.00  0.00    -0.261 OA
HETATM   23  H   UNL     1       6.494  28.369  51.799  1.00  0.00     0.190 HD
BRANCH  21  24
HETATM   24  C   UNL     1       5.753  29.850  49.900  1.00  0.00     0.315 C 
HETATM   25  N   UNL     1       5.690  28.960  48.858  1.00  0.00    -0.316 N 
HETATM   26  H   UNL     1       6.488  28.996  48.231  1.00  0.00     0.169 HD
HETATM   27  O   UNL     1       6.495  30.832  49.883  1.00  0.00    -0.262 OA
BRANCH  25  28
HETATM   28  C   UNL     1       4.730  27.982  48.531  1.00  0.00     0.068 A 
HETATM   29  C   UNL     1       3.693  28.367  47.656  1.00  0.00     0.095 A 
HETATM   30  C   UNL     1       2.663  27.473  47.349  1.00  0.00     0.039 A 
HETATM   31  C   UNL     1       2.670  26.190  47.894  1.00  0.00     0.003 A 
HETATM   32  C   UNL     1       3.694  25.803  48.754  1.00  0.00     0.002 A 
HETATM   33  C   UNL     1       4.720  26.697  49.078  1.00  0.00     0.032 A 
BRANCH  29  34
HETATM   34  O   UNL     1       3.748  29.652  47.167  1.00  0.00    -0.354 OA
HETATM   35  C   UNL     1       2.561  30.079  46.504  1.00  0.00     0.210 C 
ENDBRANCH  29  34
ENDBRANCH  25  28
ENDBRANCH  21  24
ENDBRANCH   1  20
TORSDOF 7
ENDMDL
