MODEL 1
REMARK VINA RESULT:      -9.8      0.000      0.000
REMARK  7 active torsions:
REMARK  status: ('A' for Active; 'I' for Inactive)
REMARK    1  A    between atoms: C_4  and  N_5 
REMARK       I    between atoms: N_5  and  C_6 
REMARK    2  A    between atoms: C_6  and  C_7 
REMARK    3  A    between atoms: C_7  and  N_8 
REMARK    4  A    between atoms: N_8  and  C_9 
REMARK    5  A    between atoms: C_10  and  C_11 
REMARK    6  A    between atoms: C_16  and  N_17 
REMARK       I    between atoms: N_17  and  C_18 
REMARK    7  A    between atoms: C_18  and  C_19 
ROOT
HETATM    1  C   UNL     1       6.660  29.773  56.321  1.00  0.00     0.024 A 
HETATM    2  C   UNL     1       7.815  29.568  57.109  1.00  0.00     0.071 A 
HETATM    3  C   UNL     1       7.920  30.153  58.395  1.00  0.00     0.047 A 
HETATM    4  C   UNL     1       6.905  30.950  58.914  1.00  0.00     0.035 A 
HETATM    5  C   UNL     1       5.779  31.176  58.128  1.00  0.00     0.031 A 
HETATM    6  C   UNL     1       5.671  30.614  56.849  1.00  0.00     0.026 A 
ENDROOT
BRANCH   1   7
HETATM    7  N   UNL     1       6.608  29.300  55.007  1.00  0.00    -0.284 NA
HETATM    8  H   UNL     1       7.536  29.243  54.573  1.00  0.00     0.128 HD
BRANCH   7   9
HETATM    9  C   UNL     1       5.820  28.105  54.620  1.00  0.00     0.195 C 
BRANCH   9  10
HETATM   10  C   UNL     1       6.758  26.921  54.323  1.00  0.00     0.235 C 
HETATM   11  N   UNL     1       6.445  25.817  55.095  1.00  0.00    -0.326 N 
HETATM   12  H   UNL     1       5.623  25.955  55.682  1.00  0.00     0.169 HD
HETATM   13  O   UNL     1       7.682  27.028  53.522  1.00  0.00    -0.272 OA
BRANCH  11  14
HETATM   14  C   UNL     1       7.091  24.573  55.162  1.00  0.00     0.035 A 
HETATM   15  C   UNL     1       7.171  23.680  54.092  1.00  0.00     0.036 A 
HETATM   16  C   UNL     1       7.851  22.458  54.228  1.00  0.00    -0.060 A 
HETATM   17  C   UNL     1       7.906  21.491  53.081  1.00  0.00     0.048 C 
HETATM   18  C   UNL     1       8.426  22.126  55.459  1.00  0.00     0.007 A 
HETATM   19  C   UNL     1       8.348  23.011  56.531  1.00  0.00     0.003 A 
HETATM   20  C   UNL     1       7.686  24.231  56.382  1.00  0.00     0.029 A 
ENDBRANCH  11  14
ENDBRANCH   9  10
ENDBRANCH   7   9
ENDBRANCH   1   7
BRANCH   2  21
HETATM   21  C   UNL     1       8.998  28.772  56.612  1.00  0.00     0.419 C 
HETATM   22  F   UNL     1       9.341  29.064  55.321  1.00  0.00    -0.166 F 
HETATM   23  F   UNL     1      10.123  28.993  57.348  1.00  0.00    -0.166 F 
HETATM   24  F   UNL     1       8.795  27.424  56.632  1.00  0.00    -0.166 F 
ENDBRANCH   2  21
BRANCH   4  25
HETATM   25  N   UNL     1       6.942  31.559  60.179  1.00  0.00    -0.321 N 
HETATM   26  C   UNL     1       7.869  32.458  60.677  1.00  0.00     0.279 C 
HETATM   27  O   UNL     1       8.833  32.898  60.060  1.00  0.00    -0.265 OA
HETATM   28  H   UNL     1       6.198  31.325  60.829  1.00  0.00     0.169 HD
BRANCH  26  29
HETATM   29  C   UNL     1       7.584  32.849  62.047  1.00  0.00     0.142 A 
HETATM   30  O   UNL     1       6.594  33.768  62.294  1.00  0.00    -0.317 OA
HETATM   31  C   UNL     1       6.535  33.941  63.640  1.00  0.00     0.143 A 
HETATM   32  C   UNL     1       7.470  33.153  64.269  1.00  0.00     0.027 A 
HETATM   33  C   UNL     1       8.148  32.450  63.244  1.00  0.00     0.045 A 
ENDBRANCH  26  29
ENDBRANCH   4  25
TORSDOF 7
ENDMDL
MODEL 2
REMARK VINA RESULT:      -9.6      1.910      2.657
REMARK  7 active torsions:
REMARK  status: ('A' for Active; 'I' for Inactive)
REMARK    1  A    between atoms: C_4  and  N_5 
REMARK       I    between atoms: N_5  and  C_6 
REMARK    2  A    between atoms: C_6  and  C_7 
REMARK    3  A    between atoms: C_7  and  N_8 
REMARK    4  A    between atoms: N_8  and  C_9 
REMARK    5  A    between atoms: C_10  and  C_11 
REMARK    6  A    between atoms: C_16  and  N_17 
REMARK       I    between atoms: N_17  and  C_18 
REMARK    7  A    between atoms: C_18  and  C_19 
ROOT
HETATM    1  C   UNL     1       7.399  27.918  55.683  1.00  0.00     0.024 A 
HETATM    2  C   UNL     1       7.487  27.346  56.972  1.00  0.00     0.071 A 
HETATM    3  C   UNL     1       7.435  28.164  58.127  1.00  0.00     0.047 A 
HETATM    4  C   UNL     1       7.311  29.546  58.030  1.00  0.00     0.035 A 
HETATM    5  C   UNL     1       7.252  30.114  56.762  1.00  0.00     0.031 A 
HETATM    6  C   UNL     1       7.316  29.316  55.612  1.00  0.00     0.026 A 
ENDROOT
BRANCH   1   7
HETATM    7  N   UNL     1       7.573  27.127  54.545  1.00  0.00    -0.284 NA
HETATM    8  H   UNL     1       8.145  26.295  54.728  1.00  0.00     0.128 HD
BRANCH   7   9
HETATM    9  C   UNL     1       6.447  26.751  53.655  1.00  0.00     0.195 C 
BRANCH   9  10
HETATM   10  C   UNL     1       6.232  25.227  53.682  1.00  0.00     0.235 C 
HETATM   11  N   UNL     1       7.409  24.552  53.948  1.00  0.00    -0.326 N 
HETATM   12  H   UNL     1       8.197  25.171  54.133  1.00  0.00     0.169 HD
HETATM   13  O   UNL     1       5.133  24.736  53.438  1.00  0.00    -0.272 OA
BRANCH  11  14
HETATM   14  C   UNL     1       7.643  23.169  54.000  1.00  0.00     0.035 A 
HETATM   15  C   UNL     1       7.663  22.428  55.184  1.00  0.00     0.036 A 
HETATM   16  C   UNL     1       7.885  21.041  55.157  1.00  0.00    -0.060 A 
HETATM   17  C   UNL     1       7.934  20.258  56.436  1.00  0.00     0.048 C 
HETATM   18  C   UNL     1       8.118  20.407  53.932  1.00  0.00     0.007 A 
HETATM   19  C   UNL     1       8.101  21.140  52.748  1.00  0.00     0.003 A 
HETATM   20  C   UNL     1       7.861  22.514  52.783  1.00  0.00     0.029 A 
ENDBRANCH  11  14
ENDBRANCH   9  10
ENDBRANCH   7   9
ENDBRANCH   1   7
BRANCH   2  21
HETATM   21  C   UNL     1       7.687  25.863  57.183  1.00  0.00     0.419 C 
HETATM   22  F   UNL     1       7.930  25.532  58.488  1.00  0.00    -0.166 F 
HETATM   23  F   UNL     1       6.598  25.132  56.817  1.00  0.00    -0.166 F 
HETATM   24  F   UNL     1       8.737  25.350  56.482  1.00  0.00    -0.166 F 
ENDBRANCH   2  21
BRANCH   4  25
HETATM   25  N   UNL     1       7.252  30.417  59.131  1.00  0.00    -0.321 N 
HETATM   26  C   UNL     1       8.220  30.661  60.090  1.00  0.00     0.279 C 
HETATM   27  O   UNL     1       9.335  30.150  60.119  1.00  0.00    -0.265 OA
HETATM   28  H   UNL     1       6.397  30.949  59.257  1.00  0.00     0.169 HD
BRANCH  26  29
HETATM   29  C   UNL     1       7.781  31.616  61.093  1.00  0.00     0.142 A 
HETATM   30  O   UNL     1       6.522  32.158  61.003  1.00  0.00    -0.317 OA
HETATM   31  C   UNL     1       6.373  33.000  62.059  1.00  0.00     0.143 A 
HETATM   32  C   UNL     1       7.512  33.015  62.829  1.00  0.00     0.027 A 
HETATM   33  C   UNL     1       8.421  32.125  62.207  1.00  0.00     0.045 A 
ENDBRANCH  26  29
ENDBRANCH   4  25
TORSDOF 7
ENDMDL
MODEL 3
REMARK VINA RESULT:      -9.6      2.314     10.019
REMARK  7 active torsions:
REMARK  status: ('A' for Active; 'I' for Inactive)
REMARK    1  A    between atoms: C_4  and  N_5 
REMARK       I    between atoms: N_5  and  C_6 
REMARK    2  A    between atoms: C_6  and  C_7 
REMARK    3  A    between atoms: C_7  and  N_8 
REMARK    4  A    between atoms: N_8  and  C_9 
REMARK    5  A    between atoms: C_10  and  C_11 
REMARK    6  A    between atoms: C_16  and  N_17 
REMARK       I    between atoms: N_17  and  C_18 
REMARK    7  A    between atoms: C_18  and  C_19 
ROOT
HETATM    1  C   UNL     1       6.796  28.161  57.450  1.00  0.00     0.024 A 
HETATM    2  C   UNL     1       5.966  27.791  56.368  1.00  0.00     0.071 A 
HETATM    3  C   UNL     1       6.129  26.536  55.734  1.00  0.00     0.047 A 
HETATM    4  C   UNL     1       7.112  25.639  56.143  1.00  0.00     0.035 A 
HETATM    5  C   UNL     1       7.948  26.013  57.190  1.00  0.00     0.031 A 
HETATM    6  C   UNL     1       7.804  27.258  57.816  1.00  0.00     0.026 A 
ENDROOT
BRANCH   1   7
HETATM    7  N   UNL     1       6.717  29.445  57.995  1.00  0.00    -0.284 NA
HETATM    8  H   UNL     1       5.914  29.556  58.625  1.00  0.00     0.128 HD
BRANCH   7   9
HETATM    9  C   UNL     1       7.890  30.136  58.582  1.00  0.00     0.195 C 
BRANCH   9  10
HETATM   10  C   UNL     1       7.432  31.324  59.447  1.00  0.00     0.235 C 
HETATM   11  N   UNL     1       7.544  31.044  60.797  1.00  0.00    -0.326 N 
HETATM   12  H   UNL     1       7.956  30.132  60.987  1.00  0.00     0.169 HD
HETATM   13  O   UNL     1       6.986  32.347  58.936  1.00  0.00    -0.272 OA
BRANCH  11  14
HETATM   14  C   UNL     1       7.179  31.835  61.897  1.00  0.00     0.035 A 
HETATM   15  C   UNL     1       5.891  32.329  62.108  1.00  0.00     0.036 A 
HETATM   16  C   UNL     1       5.596  33.100  63.245  1.00  0.00    -0.060 A 
HETATM   17  C   UNL     1       4.214  33.651  63.447  1.00  0.00     0.048 C 
HETATM   18  C   UNL     1       6.615  33.398  64.155  1.00  0.00     0.007 A 
HETATM   19  C   UNL     1       7.903  32.911  63.951  1.00  0.00     0.003 A 
HETATM   20  C   UNL     1       8.183  32.130  62.828  1.00  0.00     0.029 A 
ENDBRANCH  11  14
ENDBRANCH   9  10
ENDBRANCH   7   9
ENDBRANCH   1   7
BRANCH   2  21
HETATM   21  C   UNL     1       4.913  28.717  55.808  1.00  0.00     0.419 C 
HETATM   22  F   UNL     1       4.181  28.154  54.799  1.00  0.00    -0.166 F 
HETATM   23  F   UNL     1       4.005  29.105  56.746  1.00  0.00    -0.166 F 
HETATM   24  F   UNL     1       5.423  29.867  55.281  1.00  0.00    -0.166 F 
ENDBRANCH   2  21
BRANCH   4  25
HETATM   25  N   UNL     1       7.329  24.379  55.562  1.00  0.00    -0.321 N 
HETATM   26  C   UNL     1       7.729  24.083  54.270  1.00  0.00     0.279 C 
HETATM   27  O   UNL     1       7.986  24.908  53.400  1.00  0.00    -0.265 OA
HETATM   28  H   UNL     1       7.182  23.565  56.150  1.00  0.00     0.169 HD
BRANCH  26  29
HETATM   29  C   UNL     1       7.822  22.653  54.032  1.00  0.00     0.142 A 
HETATM   30  O   UNL     1       7.674  21.782  55.083  1.00  0.00    -0.317 OA
HETATM   31  C   UNL     1       7.797  20.525  54.582  1.00  0.00     0.143 A 
HETATM   32  C   UNL     1       8.025  20.566  53.226  1.00  0.00     0.027 A 
HETATM   33  C   UNL     1       8.043  21.936  52.870  1.00  0.00     0.045 A 
ENDBRANCH  26  29
ENDBRANCH   4  25
TORSDOF 7
ENDMDL
MODEL 4
REMARK VINA RESULT:      -9.5      2.713      3.590
REMARK  7 active torsions:
REMARK  status: ('A' for Active; 'I' for Inactive)
REMARK    1  A    between atoms: C_4  and  N_5 
REMARK       I    between atoms: N_5  and  C_6 
REMARK    2  A    between atoms: C_6  and  C_7 
REMARK    3  A    between atoms: C_7  and  N_8 
REMARK    4  A    between atoms: N_8  and  C_9 
REMARK    5  A    between atoms: C_10  and  C_11 
REMARK    6  A    between atoms: C_16  and  N_17 
REMARK       I    between atoms: N_17  and  C_18 
REMARK    7  A    between atoms: C_18  and  C_19 
ROOT
HETATM    1  C   UNL     1       6.276  27.228  55.040  1.00  0.00     0.024 A 
HETATM    2  C   UNL     1       6.121  26.705  56.344  1.00  0.00     0.071 A 
HETATM    3  C   UNL     1       6.665  27.386  57.460  1.00  0.00     0.047 A 
HETATM    4  C   UNL     1       7.374  28.574  57.310  1.00  0.00     0.035 A 
HETATM    5  C   UNL     1       7.552  29.075  56.024  1.00  0.00     0.031 A 
HETATM    6  C   UNL     1       7.031  28.403  54.911  1.00  0.00     0.026 A 
ENDROOT
BRANCH   1   7
HETATM    7  N   UNL     1       5.848  26.496  53.929  1.00  0.00    -0.284 NA
HETATM    8  H   UNL     1       4.867  26.680  53.692  1.00  0.00     0.128 HD
BRANCH   7   9
HETATM    9  C   UNL     1       6.639  26.409  52.678  1.00  0.00     0.195 C 
BRANCH   9  10
HETATM   10  C   UNL     1       7.497  25.132  52.677  1.00  0.00     0.235 C 
HETATM   11  N   UNL     1       6.968  24.163  53.511  1.00  0.00    -0.326 N 
HETATM   12  H   UNL     1       6.083  24.436  53.936  1.00  0.00     0.169 HD
HETATM   13  O   UNL     1       8.539  25.066  52.031  1.00  0.00    -0.272 OA
BRANCH  11  14
HETATM   14  C   UNL     1       7.478  22.894  53.827  1.00  0.00     0.035 A 
HETATM   15  C   UNL     1       7.757  22.469  55.127  1.00  0.00     0.036 A 
HETATM   16  C   UNL     1       8.248  21.175  55.369  1.00  0.00    -0.060 A 
HETATM   17  C   UNL     1       8.574  20.738  56.767  1.00  0.00     0.048 C 
HETATM   18  C   UNL     1       8.486  20.319  54.289  1.00  0.00     0.007 A 
HETATM   19  C   UNL     1       8.211  20.736  52.989  1.00  0.00     0.003 A 
HETATM   20  C   UNL     1       7.706  22.017  52.760  1.00  0.00     0.029 A 
ENDBRANCH  11  14
ENDBRANCH   9  10
ENDBRANCH   7   9
ENDBRANCH   1   7
BRANCH   2  21
HETATM   21  C   UNL     1       5.423  25.392  56.607  1.00  0.00     0.419 C 
HETATM   22  F   UNL     1       4.796  24.884  55.503  1.00  0.00    -0.166 F 
HETATM   23  F   UNL     1       6.281  24.418  57.020  1.00  0.00    -0.166 F 
HETATM   24  F   UNL     1       4.455  25.471  57.563  1.00  0.00    -0.166 F 
ENDBRANCH   2  21
BRANCH   4  25
HETATM   25  N   UNL     1       7.938  29.301  58.371  1.00  0.00    -0.321 N 
HETATM   26  C   UNL     1       7.638  30.585  58.792  1.00  0.00     0.279 C 
HETATM   27  O   UNL     1       6.784  31.313  58.297  1.00  0.00    -0.265 OA
HETATM   28  H   UNL     1       8.661  28.842  58.916  1.00  0.00     0.169 HD
BRANCH  26  29
HETATM   29  C   UNL     1       8.456  31.006  59.916  1.00  0.00     0.142 A 
HETATM   30  O   UNL     1       8.846  30.080  60.852  1.00  0.00    -0.317 OA
HETATM   31  C   UNL     1       9.597  30.735  61.775  1.00  0.00     0.143 A 
HETATM   32  C   UNL     1       9.699  32.069  61.456  1.00  0.00     0.027 A 
HETATM   33  C   UNL     1       8.963  32.246  60.260  1.00  0.00     0.045 A 
ENDBRANCH  26  29
ENDBRANCH   4  25
TORSDOF 7
ENDMDL
MODEL 5
REMARK VINA RESULT:      -9.4      2.083      9.636
REMARK  7 active torsions:
REMARK  status: ('A' for Active; 'I' for Inactive)
REMARK    1  A    between atoms: C_4  and  N_5 
REMARK       I    between atoms: N_5  and  C_6 
REMARK    2  A    between atoms: C_6  and  C_7 
REMARK    3  A    between atoms: C_7  and  N_8 
REMARK    4  A    between atoms: N_8  and  C_9 
REMARK    5  A    between atoms: C_10  and  C_11 
REMARK    6  A    between atoms: C_16  and  N_17 
REMARK       I    between atoms: N_17  and  C_18 
REMARK    7  A    between atoms: C_18  and  C_19 
ROOT
HETATM    1  C   UNL     1       5.923  28.259  57.185  1.00  0.00     0.024 A 
HETATM    2  C   UNL     1       7.291  27.940  57.043  1.00  0.00     0.071 A 
HETATM    3  C   UNL     1       7.687  26.686  56.517  1.00  0.00     0.047 A 
HETATM    4  C   UNL     1       6.749  25.730  56.139  1.00  0.00     0.035 A 
HETATM    5  C   UNL     1       5.400  26.031  56.305  1.00  0.00     0.031 A 
HETATM    6  C   UNL     1       4.998  27.263  56.837  1.00  0.00     0.026 A 
ENDROOT
BRANCH   1   7
HETATM    7  N   UNL     1       5.534  29.443  57.816  1.00  0.00    -0.284 NA
HETATM    8  H   UNL     1       6.103  29.652  58.644  1.00  0.00     0.128 HD
BRANCH   7   9
HETATM    9  C   UNL     1       5.286  30.701  57.070  1.00  0.00     0.195 C 
BRANCH   9  10
HETATM   10  C   UNL     1       5.578  31.918  57.965  1.00  0.00     0.235 C 
HETATM   11  N   UNL     1       5.696  31.555  59.295  1.00  0.00    -0.326 N 
HETATM   12  H   UNL     1       5.626  30.550  59.447  1.00  0.00     0.169 HD
HETATM   13  O   UNL     1       5.636  33.051  57.498  1.00  0.00    -0.272 OA
BRANCH  11  14
HETATM   14  C   UNL     1       5.901  32.370  60.419  1.00  0.00     0.035 A 
HETATM   15  C   UNL     1       6.878  32.128  61.387  1.00  0.00     0.036 A 
HETATM   16  C   UNL     1       7.038  32.999  62.478  1.00  0.00    -0.060 A 
HETATM   17  C   UNL     1       8.071  32.715  63.528  1.00  0.00     0.048 C 
HETATM   18  C   UNL     1       6.187  34.102  62.605  1.00  0.00     0.007 A 
HETATM   19  C   UNL     1       5.209  34.349  61.644  1.00  0.00     0.003 A 
HETATM   20  C   UNL     1       5.070  33.488  60.555  1.00  0.00     0.029 A 
ENDBRANCH  11  14
ENDBRANCH   9  10
ENDBRANCH   7   9
ENDBRANCH   1   7
BRANCH   2  21
HETATM   21  C   UNL     1       8.387  28.883  57.481  1.00  0.00     0.419 C 
HETATM   22  F   UNL     1       8.304  29.230  58.802  1.00  0.00    -0.166 F 
HETATM   23  F   UNL     1       9.630  28.350  57.321  1.00  0.00    -0.166 F 
HETATM   24  F   UNL     1       8.395  30.065  56.802  1.00  0.00    -0.166 F 
ENDBRANCH   2  21
BRANCH   4  25
HETATM   25  N   UNL     1       7.069  24.469  55.610  1.00  0.00    -0.321 N 
HETATM   26  C   UNL     1       7.479  24.152  54.327  1.00  0.00     0.279 C 
HETATM   27  O   UNL     1       7.654  24.956  53.417  1.00  0.00    -0.265 OA
HETATM   28  H   UNL     1       7.000  23.673  56.235  1.00  0.00     0.169 HD
BRANCH  26  29
HETATM   29  C   UNL     1       7.695  22.726  54.150  1.00  0.00     0.142 A 
HETATM   30  O   UNL     1       7.656  21.896  55.243  1.00  0.00    -0.317 OA
HETATM   31  C   UNL     1       7.879  20.633  54.795  1.00  0.00     0.143 A 
HETATM   32  C   UNL     1       8.064  20.630  53.433  1.00  0.00     0.027 A 
HETATM   33  C   UNL     1       7.948  21.977  53.015  1.00  0.00     0.045 A 
ENDBRANCH  26  29
ENDBRANCH   4  25
TORSDOF 7
ENDMDL
MODEL 6
REMARK VINA RESULT:      -9.3      4.104      9.908
REMARK  7 active torsions:
REMARK  status: ('A' for Active; 'I' for Inactive)
REMARK    1  A    between atoms: C_4  and  N_5 
REMARK       I    between atoms: N_5  and  C_6 
REMARK    2  A    between atoms: C_6  and  C_7 
REMARK    3  A    between atoms: C_7  and  N_8 
REMARK    4  A    between atoms: N_8  and  C_9 
REMARK    5  A    between atoms: C_10  and  C_11 
REMARK    6  A    between atoms: C_16  and  N_17 
REMARK       I    between atoms: N_17  and  C_18 
REMARK    7  A    between atoms: C_18  and  C_19 
ROOT
HETATM    1  C   UNL     1       6.398  24.975  54.827  1.00  0.00     0.024 A 
HETATM    2  C   UNL     1       6.669  24.069  53.777  1.00  0.00     0.071 A 
HETATM    3  C   UNL     1       6.098  24.262  52.496  1.00  0.00     0.047 A 
HETATM    4  C   UNL     1       5.249  25.333  52.235  1.00  0.00     0.035 A 
HETATM    5  C   UNL     1       4.958  26.211  53.275  1.00  0.00     0.031 A 
HETATM    6  C   UNL     1       5.507  26.022  54.550  1.00  0.00     0.026 A 
ENDROOT
BRANCH   1   7
HETATM    7  N   UNL     1       6.861  24.718  56.120  1.00  0.00    -0.284 NA
HETATM    8  H   UNL     1       6.656  23.761  56.428  1.00  0.00     0.128 HD
BRANCH   7   9
HETATM    9  C   UNL     1       8.227  25.086  56.566  1.00  0.00     0.195 C 
BRANCH   9  10
HETATM   10  C   UNL     1       8.177  26.332  57.467  1.00  0.00     0.235 C 
HETATM   11  N   UNL     1       8.799  27.415  56.873  1.00  0.00    -0.326 N 
HETATM   12  H   UNL     1       9.132  27.222  55.930  1.00  0.00     0.169 HD
HETATM   13  O   UNL     1       7.674  26.287  58.587  1.00  0.00    -0.272 OA
BRANCH  11  14
HETATM   14  C   UNL     1       9.013  28.704  57.387  1.00  0.00     0.035 A 
HETATM   15  C   UNL     1       8.084  29.394  58.167  1.00  0.00     0.036 A 
HETATM   16  C   UNL     1       8.376  30.676  58.663  1.00  0.00    -0.060 A 
HETATM   17  C   UNL     1       7.359  31.423  59.476  1.00  0.00     0.048 C 
HETATM   18  C   UNL     1       9.601  31.273  58.344  1.00  0.00     0.007 A 
HETATM   19  C   UNL     1      10.532  30.590  57.565  1.00  0.00     0.003 A 
HETATM   20  C   UNL     1      10.240  29.309  57.092  1.00  0.00     0.029 A 
ENDBRANCH  11  14
ENDBRANCH   9  10
ENDBRANCH   7   9
ENDBRANCH   1   7
BRANCH   2  21
HETATM   21  C   UNL     1       7.526  22.841  53.975  1.00  0.00     0.419 C 
HETATM   22  F   UNL     1       8.854  23.130  54.135  1.00  0.00    -0.166 F 
HETATM   23  F   UNL     1       7.171  22.128  55.079  1.00  0.00    -0.166 F 
HETATM   24  F   UNL     1       7.475  21.967  52.930  1.00  0.00    -0.166 F 
ENDBRANCH   2  21
BRANCH   4  25
HETATM   25  N   UNL     1       4.649  25.586  50.990  1.00  0.00    -0.321 N 
HETATM   26  C   UNL     1       4.819  26.678  50.157  1.00  0.00     0.279 C 
HETATM   27  O   UNL     1       5.564  27.628  50.374  1.00  0.00    -0.265 OA
HETATM   28  H   UNL     1       4.006  24.886  50.634  1.00  0.00     0.169 HD
BRANCH  26  29
HETATM   29  C   UNL     1       4.005  26.593  48.957  1.00  0.00     0.142 A 
HETATM   30  O   UNL     1       3.441  25.391  48.608  1.00  0.00    -0.317 OA
HETATM   31  C   UNL     1       2.736  25.597  47.465  1.00  0.00     0.143 A 
HETATM   32  C   UNL     1       2.835  26.909  47.066  1.00  0.00     0.027 A 
HETATM   33  C   UNL     1       3.653  27.552  48.025  1.00  0.00     0.045 A 
ENDBRANCH  26  29
ENDBRANCH   4  25
TORSDOF 7
ENDMDL
MODEL 7
REMARK VINA RESULT:      -9.2      2.308      3.179
REMARK  7 active torsions:
REMARK  status: ('A' for Active; 'I' for Inactive)
REMARK    1  A    between atoms: C_4  and  N_5 
REMARK       I    between atoms: N_5  and  C_6 
REMARK    2  A    between atoms: C_6  and  C_7 
REMARK    3  A    between atoms: C_7  and  N_8 
REMARK    4  A    between atoms: N_8  and  C_9 
REMARK    5  A    between atoms: C_10  and  C_11 
REMARK    6  A    between atoms: C_16  and  N_17 
REMARK       I    between atoms: N_17  and  C_18 
REMARK    7  A    between atoms: C_18  and  C_19 
ROOT
HETATM    1  C   UNL     1       6.798  27.671  55.516  1.00  0.00     0.024 A 
HETATM    2  C   UNL     1       5.978  28.794  55.766  1.00  0.00     0.071 A 
HETATM    3  C   UNL     1       6.149  29.562  56.944  1.00  0.00     0.047 A 
HETATM    4  C   UNL     1       7.114  29.231  57.891  1.00  0.00     0.035 A 
HETATM    5  C   UNL     1       7.904  28.109  57.660  1.00  0.00     0.031 A 
HETATM    6  C   UNL     1       7.734  27.334  56.505  1.00  0.00     0.026 A 
ENDROOT
BRANCH   1   7
HETATM    7  N   UNL     1       6.549  26.844  54.419  1.00  0.00    -0.284 NA
HETATM    8  H   UNL     1       5.593  26.943  54.060  1.00  0.00     0.128 HD
BRANCH   7   9
HETATM    9  C   UNL     1       7.485  26.735  53.273  1.00  0.00     0.195 C 
BRANCH   9  10
HETATM   10  C   UNL     1       7.729  25.256  52.923  1.00  0.00     0.235 C 
HETATM   11  N   UNL     1       7.694  24.454  54.049  1.00  0.00    -0.326 N 
HETATM   12  H   UNL     1       7.460  24.964  54.900  1.00  0.00     0.169 HD
HETATM   13  O   UNL     1       7.970  24.907  51.771  1.00  0.00    -0.272 OA
BRANCH  11  14
HETATM   14  C   UNL     1       7.923  23.074  54.160  1.00  0.00     0.035 A 
HETATM   15  C   UNL     1       8.263  22.435  55.354  1.00  0.00     0.036 A 
HETATM   16  C   UNL     1       8.460  21.044  55.392  1.00  0.00    -0.060 A 
HETATM   17  C   UNL     1       8.853  20.371  56.673  1.00  0.00     0.048 C 
HETATM   18  C   UNL     1       8.342  20.302  54.212  1.00  0.00     0.007 A 
HETATM   19  C   UNL     1       8.005  20.933  53.017  1.00  0.00     0.003 A 
HETATM   20  C   UNL     1       7.793  22.313  52.992  1.00  0.00     0.029 A 
ENDBRANCH  11  14
ENDBRANCH   9  10
ENDBRANCH   7   9
ENDBRANCH   1   7
BRANCH   2  21
HETATM   21  C   UNL     1       4.862  29.199  54.833  1.00  0.00     0.419 C 
HETATM   22  F   UNL     1       3.830  28.302  54.805  1.00  0.00    -0.166 F 
HETATM   23  F   UNL     1       4.301  30.392  55.176  1.00  0.00    -0.166 F 
HETATM   24  F   UNL     1       5.257  29.330  53.535  1.00  0.00    -0.166 F 
ENDBRANCH   2  21
BRANCH   4  25
HETATM   25  N   UNL     1       7.340  29.947  59.078  1.00  0.00    -0.321 N 
HETATM   26  C   UNL     1       8.431  30.727  59.420  1.00  0.00     0.279 C 
HETATM   27  O   UNL     1       9.403  30.941  58.704  1.00  0.00    -0.265 OA
HETATM   28  H   UNL     1       6.619  29.903  59.791  1.00  0.00     0.169 HD
BRANCH  26  29
HETATM   29  C   UNL     1       8.313  31.293  60.753  1.00  0.00     0.142 A 
HETATM   30  O   UNL     1       7.080  31.348  61.356  1.00  0.00    -0.317 OA
HETATM   31  C   UNL     1       7.259  31.908  62.581  1.00  0.00     0.143 A 
HETATM   32  C   UNL     1       8.584  32.218  62.781  1.00  0.00     0.027 A 
HETATM   33  C   UNL     1       9.264  31.824  61.604  1.00  0.00     0.045 A 
ENDBRANCH  26  29
ENDBRANCH   4  25
TORSDOF 7
ENDMDL
MODEL 8
REMARK VINA RESULT:      -8.9      2.262      2.806
REMARK  7 active torsions:
REMARK  status: ('A' for Active; 'I' for Inactive)
REMARK    1  A    between atoms: C_4  and  N_5 
REMARK       I    between atoms: N_5  and  C_6 
REMARK    2  A    between atoms: C_6  and  C_7 
REMARK    3  A    between atoms: C_7  and  N_8 
REMARK    4  A    between atoms: N_8  and  C_9 
REMARK    5  A    between atoms: C_10  and  C_11 
REMARK    6  A    between atoms: C_16  and  N_17 
REMARK       I    between atoms: N_17  and  C_18 
REMARK    7  A    between atoms: C_18  and  C_19 
ROOT
HETATM    1  C   UNL     1       7.055  28.641  56.010  1.00  0.00     0.024 A 
HETATM    2  C   UNL     1       7.857  29.371  56.914  1.00  0.00     0.071 A 
HETATM    3  C   UNL     1       7.263  30.246  57.856  1.00  0.00     0.047 A 
HETATM    4  C   UNL     1       5.884  30.423  57.912  1.00  0.00     0.035 A 
HETATM    5  C   UNL     1       5.094  29.725  57.003  1.00  0.00     0.031 A 
HETATM    6  C   UNL     1       5.672  28.868  56.058  1.00  0.00     0.026 A 
ENDROOT
BRANCH   1   7
HETATM    7  N   UNL     1       7.645  27.874  55.002  1.00  0.00    -0.284 NA
HETATM    8  H   UNL     1       8.377  27.250  55.360  1.00  0.00     0.128 HD
BRANCH   7   9
HETATM    9  C   UNL     1       6.850  27.148  53.982  1.00  0.00     0.195 C 
BRANCH   9  10
HETATM   10  C   UNL     1       6.636  25.686  54.413  1.00  0.00     0.235 C 
HETATM   11  N   UNL     1       7.659  24.869  53.967  1.00  0.00    -0.326 N 
HETATM   12  H   UNL     1       8.398  25.376  53.483  1.00  0.00     0.169 HD
HETATM   13  O   UNL     1       5.632  25.347  55.033  1.00  0.00    -0.272 OA
BRANCH  11  14
HETATM   14  C   UNL     1       7.804  23.480  54.102  1.00  0.00     0.035 A 
HETATM   15  C   UNL     1       7.926  22.826  55.329  1.00  0.00     0.036 A 
HETATM   16  C   UNL     1       8.050  21.427  55.387  1.00  0.00    -0.060 A 
HETATM   17  C   UNL     1       8.211  20.736  56.709  1.00  0.00     0.048 C 
HETATM   18  C   UNL     1       8.078  20.691  54.198  1.00  0.00     0.007 A 
HETATM   19  C   UNL     1       7.957  21.337  52.970  1.00  0.00     0.003 A 
HETATM   20  C   UNL     1       7.817  22.725  52.923  1.00  0.00     0.029 A 
ENDBRANCH  11  14
ENDBRANCH   9  10
ENDBRANCH   7   9
ENDBRANCH   1   7
BRANCH   2  21
HETATM   21  C   UNL     1       9.365  29.299  56.893  1.00  0.00     0.419 C 
HETATM   22  F   UNL     1       9.847  28.028  57.053  1.00  0.00    -0.166 F 
HETATM   23  F   UNL     1       9.894  29.745  55.720  1.00  0.00    -0.166 F 
HETATM   24  F   UNL     1       9.961  30.032  57.877  1.00  0.00    -0.166 F 
ENDBRANCH   2  21
BRANCH   4  25
HETATM   25  N   UNL     1       5.228  31.271  58.820  1.00  0.00    -0.321 N 
HETATM   26  C   UNL     1       5.080  32.646  58.762  1.00  0.00     0.279 C 
HETATM   27  O   UNL     1       5.498  33.368  57.863  1.00  0.00    -0.265 OA
HETATM   28  H   UNL     1       4.796  30.839  59.630  1.00  0.00     0.169 HD
BRANCH  26  29
HETATM   29  C   UNL     1       4.355  33.175  59.904  1.00  0.00     0.142 A 
HETATM   30  O   UNL     1       4.158  32.380  61.006  1.00  0.00    -0.317 OA
HETATM   31  C   UNL     1       3.469  33.119  61.914  1.00  0.00     0.143 A 
HETATM   32  C   UNL     1       3.214  34.377  61.420  1.00  0.00     0.027 A 
HETATM   33  C   UNL     1       3.783  34.414  60.125  1.00  0.00     0.045 A 
ENDBRANCH  26  29
ENDBRANCH   4  25
TORSDOF 7
ENDMDL
MODEL 9
REMARK VINA RESULT:      -8.8      5.666      9.208
REMARK  7 active torsions:
REMARK  status: ('A' for Active; 'I' for Inactive)
REMARK    1  A    between atoms: C_4  and  N_5 
REMARK       I    between atoms: N_5  and  C_6 
REMARK    2  A    between atoms: C_6  and  C_7 
REMARK    3  A    between atoms: C_7  and  N_8 
REMARK    4  A    between atoms: N_8  and  C_9 
REMARK    5  A    between atoms: C_10  and  C_11 
REMARK    6  A    between atoms: C_16  and  N_17 
REMARK       I    between atoms: N_17  and  C_18 
REMARK    7  A    between atoms: C_18  and  C_19 
ROOT
HETATM    1  C   UNL     1       6.458  27.358  53.087  1.00  0.00     0.024 A 
HETATM    2  C   UNL     1       6.380  26.344  52.107  1.00  0.00     0.071 A 
HETATM    3  C   UNL     1       5.420  26.422  51.068  1.00  0.00     0.047 A 
HETATM    4  C   UNL     1       4.524  27.483  50.987  1.00  0.00     0.035 A 
HETATM    5  C   UNL     1       4.581  28.468  51.968  1.00  0.00     0.031 A 
HETATM    6  C   UNL     1       5.517  28.394  53.008  1.00  0.00     0.026 A 
ENDROOT
BRANCH   1   7
HETATM    7  N   UNL     1       7.320  27.221  54.179  1.00  0.00    -0.284 NA
HETATM    8  H   UNL     1       8.004  27.983  54.238  1.00  0.00     0.128 HD
BRANCH   7   9
HETATM    9  C   UNL     1       6.833  26.902  55.543  1.00  0.00     0.195 C 
BRANCH   9  10
HETATM   10  C   UNL     1       6.619  25.385  55.692  1.00  0.00     0.235 C 
HETATM   11  N   UNL     1       7.821  24.700  55.695  1.00  0.00    -0.326 N 
HETATM   12  H   UNL     1       8.634  25.311  55.655  1.00  0.00     0.169 HD
HETATM   13  O   UNL     1       5.491  24.905  55.746  1.00  0.00    -0.272 OA
BRANCH  11  14
HETATM   14  C   UNL     1       8.049  23.316  55.754  1.00  0.00     0.035 A 
HETATM   15  C   UNL     1       8.119  22.491  54.630  1.00  0.00     0.036 A 
HETATM   16  C   UNL     1       8.370  21.115  54.765  1.00  0.00    -0.060 A 
HETATM   17  C   UNL     1       8.415  20.232  53.553  1.00  0.00     0.048 C 
HETATM   18  C   UNL     1       8.521  20.568  56.043  1.00  0.00     0.007 A 
HETATM   19  C   UNL     1       8.451  21.384  57.169  1.00  0.00     0.003 A 
HETATM   20  C   UNL     1       8.219  22.753  57.024  1.00  0.00     0.029 A 
ENDBRANCH  11  14
ENDBRANCH   9  10
ENDBRANCH   7   9
ENDBRANCH   1   7
BRANCH   2  21
HETATM   21  C   UNL     1       7.264  25.120  52.141  1.00  0.00     0.419 C 
HETATM   22  F   UNL     1       6.675  24.046  52.750  1.00  0.00    -0.166 F 
HETATM   23  F   UNL     1       7.610  24.690  50.896  1.00  0.00    -0.166 F 
HETATM   24  F   UNL     1       8.436  25.313  52.811  1.00  0.00    -0.166 F 
ENDBRANCH   2  21
BRANCH   4  25
HETATM   25  N   UNL     1       3.549  27.625  49.986  1.00  0.00    -0.321 N 
HETATM   26  C   UNL     1       3.731  27.799  48.625  1.00  0.00     0.279 C 
HETATM   27  O   UNL     1       4.814  27.840  48.052  1.00  0.00    -0.265 OA
HETATM   28  H   UNL     1       2.577  27.595  50.276  1.00  0.00     0.169 HD
BRANCH  26  29
HETATM   29  C   UNL     1       2.473  27.931  47.909  1.00  0.00     0.142 A 
HETATM   30  O   UNL     1       2.265  29.026  47.107  1.00  0.00    -0.317 OA
HETATM   31  C   UNL     1       1.028  28.893  46.561  1.00  0.00     0.143 A 
HETATM   32  C   UNL     1       0.431  27.733  46.996  1.00  0.00     0.027 A 
HETATM   33  C   UNL     1       1.360  27.113  47.866  1.00  0.00     0.045 A 
ENDBRANCH  26  29
ENDBRANCH   4  25
TORSDOF 7
ENDMDL
MODEL 10
REMARK VINA RESULT:      -8.7      1.930      2.431
REMARK  7 active torsions:
REMARK  status: ('A' for Active; 'I' for Inactive)
REMARK    1  A    between atoms: C_4  and  N_5 
REMARK       I    between atoms: N_5  and  C_6 
REMARK    2  A    between atoms: C_6  and  C_7 
REMARK    3  A    between atoms: C_7  and  N_8 
REMARK    4  A    between atoms: N_8  and  C_9 
REMARK    5  A    between atoms: C_10  and  C_11 
REMARK    6  A    between atoms: C_16  and  N_17 
REMARK       I    between atoms: N_17  and  C_18 
REMARK    7  A    between atoms: C_18  and  C_19 
ROOT
HETATM    1  C   UNL     1       5.407  28.638  54.835  1.00  0.00     0.024 A 
HETATM    2  C   UNL     1       6.514  28.833  55.691  1.00  0.00     0.071 A 
HETATM    3  C   UNL     1       6.367  29.547  56.905  1.00  0.00     0.047 A 
HETATM    4  C   UNL     1       5.141  30.085  57.285  1.00  0.00     0.035 A 
HETATM    5  C   UNL     1       4.056  29.918  56.431  1.00  0.00     0.031 A 
HETATM    6  C   UNL     1       4.194  29.225  55.221  1.00  0.00     0.026 A 
ENDROOT
BRANCH   1   7
HETATM    7  N   UNL     1       5.578  28.042  53.583  1.00  0.00    -0.284 NA
HETATM    8  H   UNL     1       6.529  28.162  53.217  1.00  0.00     0.128 HD
BRANCH   7   9
HETATM    9  C   UNL     1       5.117  26.664  53.285  1.00  0.00     0.195 C 
BRANCH   9  10
HETATM   10  C   UNL     1       6.321  25.717  53.146  1.00  0.00     0.235 C 
HETATM   11  N   UNL     1       6.244  24.662  54.036  1.00  0.00    -0.326 N 
HETATM   12  H   UNL     1       5.387  24.660  54.587  1.00  0.00     0.169 HD
HETATM   13  O   UNL     1       7.230  25.956  52.356  1.00  0.00    -0.272 OA
BRANCH  11  14
HETATM   14  C   UNL     1       7.163  23.625  54.261  1.00  0.00     0.035 A 
HETATM   15  C   UNL     1       7.363  22.559  53.382  1.00  0.00     0.036 A 
HETATM   16  C   UNL     1       8.315  21.565  53.665  1.00  0.00    -0.060 A 
HETATM   17  C   UNL     1       8.502  20.407  52.729  1.00  0.00     0.048 C 
HETATM   18  C   UNL     1       9.047  21.635  54.855  1.00  0.00     0.007 A 
HETATM   19  C   UNL     1       8.852  22.695  55.737  1.00  0.00     0.003 A 
HETATM   20  C   UNL     1       7.916  23.687  55.439  1.00  0.00     0.029 A 
ENDBRANCH  11  14
ENDBRANCH   9  10
ENDBRANCH   7   9
ENDBRANCH   1   7
BRANCH   2  21
HETATM   21  C   UNL     1       7.899  28.344  55.340  1.00  0.00     0.419 C 
HETATM   22  F   UNL     1       8.047  26.992  55.486  1.00  0.00    -0.166 F 
HETATM   23  F   UNL     1       8.236  28.611  54.047  1.00  0.00    -0.166 F 
HETATM   24  F   UNL     1       8.883  28.896  56.106  1.00  0.00    -0.166 F 
ENDBRANCH   2  21
BRANCH   4  25
HETATM   25  N   UNL     1       4.923  30.801  58.474  1.00  0.00    -0.321 N 
HETATM   26  C   UNL     1       5.338  32.081  58.798  1.00  0.00     0.279 C 
HETATM   27  O   UNL     1       5.972  32.830  58.061  1.00  0.00    -0.265 OA
HETATM   28  H   UNL     1       4.390  30.339  59.203  1.00  0.00     0.169 HD
BRANCH  26  29
HETATM   29  C   UNL     1       4.939  32.472  60.138  1.00  0.00     0.142 A 
HETATM   30  O   UNL     1       3.604  32.606  60.433  1.00  0.00    -0.317 OA
HETATM   31  C   UNL     1       3.517  32.967  61.740  1.00  0.00     0.143 A 
HETATM   32  C   UNL     1       4.770  33.072  62.296  1.00  0.00     0.027 A 
HETATM   33  C   UNL     1       5.687  32.756  61.266  1.00  0.00     0.045 A 
ENDBRANCH  26  29
ENDBRANCH   4  25
TORSDOF 7
ENDMDL
