MODEL 1
REMARK VINA RESULT:     -10.4      0.000      0.000
REMARK  7 active torsions:
REMARK  status: ('A' for Active; 'I' for Inactive)
REMARK    1  A    between atoms: O_2  and  C_3 
REMARK    2  A    between atoms: C_6  and  C_7 
REMARK    3  A    between atoms: C_11  and  C_12 
REMARK       I    between atoms: C_12  and  N_13 
REMARK    4  A    between atoms: N_13  and  N_14 
REMARK       I    between atoms: N_14  and  C_15 
REMARK    5  A    between atoms: C_15  and  C_16 
REMARK    6  A    between atoms: C_16  and  C_17 
REMARK    7  A    between atoms: C_17  and  C_18 
ROOT
HETATM    1  C   UNL     1       9.039  29.594  57.869  1.00  0.00     0.288 C 
HETATM    2  N   UNL     1       7.995  28.701  57.761  1.00  0.00    -0.262 N 
HETATM    3  O   UNL     1      10.028  29.526  57.140  1.00  0.00    -0.264 OA
HETATM    4  H   UNL     1       7.182  28.694  58.372  1.00  0.00     0.190 HD
ENDROOT
BRANCH   1   5
HETATM    5  C   UNL     1       8.885  30.606  58.875  1.00  0.00     0.121 A 
HETATM    6  N   UNL     1       9.585  31.780  58.831  1.00  0.00    -0.272 N 
HETATM    7  N   UNL     1       9.312  32.619  59.840  1.00  0.00    -0.174 NA
HETATM    8  H   UNL     1      10.266  32.059  58.131  1.00  0.00     0.189 HD
HETATM    9  C   UNL     1       8.368  31.993  60.559  1.00  0.00     0.089 A 
HETATM   10  C   UNL     1       8.090  30.714  59.997  1.00  0.00     0.071 A 
BRANCH   9  11
HETATM   11  C   UNL     1       7.760  32.605  61.742  1.00  0.00    -0.005 A 
HETATM   12  C   UNL     1       8.292  32.390  63.020  1.00  0.00     0.016 A 
HETATM   13  C   UNL     1       7.710  32.990  64.141  1.00  0.00     0.037 A 
HETATM   14  C   UNL     1       6.597  33.820  64.007  1.00  0.00     0.068 A 
HETATM   15  C   UNL     1       6.046  34.023  62.743  1.00  0.00     0.037 A 
HETATM   16  C   UNL     1       6.625  33.418  61.619  1.00  0.00     0.016 A 
BRANCH  14  17
HETATM   17  O   UNL     1       6.137  34.355  65.178  1.00  0.00    -0.356 OA
HETATM   18  C   UNL     1       4.920  33.821  65.685  1.00  0.00     0.210 C 
ENDBRANCH  14  17
ENDBRANCH   9  11
ENDBRANCH   1   5
BRANCH   2  19
HETATM   19  N   UNL     1       8.032  27.733  56.754  1.00  0.00    -0.267 N 
HETATM   20  C   UNL     1       7.877  26.414  57.116  1.00  0.00     0.236 C 
HETATM   21  O   UNL     1       7.797  26.062  58.292  1.00  0.00    -0.272 OA
HETATM   22  H   UNL     1       7.970  28.077  55.797  1.00  0.00     0.190 HD
BRANCH  20  23
HETATM   23  C   UNL     1       7.720  25.442  55.966  1.00  0.00     0.109 C 
BRANCH  23  24
HETATM   24  C   UNL     1       7.633  23.984  56.414  1.00  0.00     0.048 C 
BRANCH  24  25
HETATM   25  C   UNL     1       7.753  22.948  55.317  1.00  0.00    -0.055 A 
HETATM   26  C   UNL     1       8.098  21.634  55.672  1.00  0.00     0.049 A 
HETATM   27  C   UNL     1       8.263  20.659  54.692  1.00  0.00     0.116 A 
HETATM   28  F   UNL     1       8.592  19.411  55.052  1.00  0.00    -0.206 F 
HETATM   29  C   UNL     1       8.100  20.962  53.347  1.00  0.00     0.042 A 
HETATM   30  C   UNL     1       7.771  22.262  52.977  1.00  0.00     0.003 A 
HETATM   31  C   UNL     1       7.604  23.251  53.955  1.00  0.00     0.007 A 
ENDBRANCH  24  25
ENDBRANCH  23  24
ENDBRANCH  20  23
ENDBRANCH   2  19
TORSDOF 7
ENDMDL
MODEL 2
REMARK VINA RESULT:     -10.1      4.122     11.493
REMARK  7 active torsions:
REMARK  status: ('A' for Active; 'I' for Inactive)
REMARK    1  A    between atoms: O_2  and  C_3 
REMARK    2  A    between atoms: C_6  and  C_7 
REMARK    3  A    between atoms: C_11  and  C_12 
REMARK       I    between atoms: C_12  and  N_13 
REMARK    4  A    between atoms: N_13  and  N_14 
REMARK       I    between atoms: N_14  and  C_15 
REMARK    5  A    between atoms: C_15  and  C_16 
REMARK    6  A    between atoms: C_16  and  C_17 
REMARK    7  A    between atoms: C_17  and  C_18 
ROOT
HETATM    1  C   UNL     1       7.082  29.429  57.638  1.00  0.00     0.288 C 
HETATM    2  N   UNL     1       8.082  29.327  58.582  1.00  0.00    -0.262 N 
HETATM    3  O   UNL     1       6.187  30.268  57.730  1.00  0.00    -0.264 OA
HETATM    4  H   UNL     1       8.812  28.619  58.569  1.00  0.00     0.190 HD
ENDROOT
BRANCH   1   5
HETATM    5  C   UNL     1       7.168  28.503  56.545  1.00  0.00     0.121 A 
HETATM    6  N   UNL     1       7.295  28.923  55.250  1.00  0.00    -0.272 N 
HETATM    7  N   UNL     1       7.374  27.929  54.356  1.00  0.00    -0.174 NA
HETATM    8  H   UNL     1       7.331  29.883  54.922  1.00  0.00     0.189 HD
HETATM    9  C   UNL     1       7.336  26.806  55.090  1.00  0.00     0.089 A 
HETATM   10  C   UNL     1       7.183  27.125  56.469  1.00  0.00     0.071 A 
BRANCH   9  11
HETATM   11  C   UNL     1       7.442  25.478  54.482  1.00  0.00    -0.005 A 
HETATM   12  C   UNL     1       7.228  24.319  55.238  1.00  0.00     0.016 A 
HETATM   13  C   UNL     1       7.320  23.057  54.643  1.00  0.00     0.037 A 
HETATM   14  C   UNL     1       7.617  22.928  53.286  1.00  0.00     0.068 A 
HETATM   15  C   UNL     1       7.853  24.074  52.529  1.00  0.00     0.037 A 
HETATM   16  C   UNL     1       7.767  25.340  53.125  1.00  0.00     0.016 A 
BRANCH  14  17
HETATM   17  O   UNL     1       7.661  21.640  52.828  1.00  0.00    -0.356 OA
HETATM   18  C   UNL     1       8.291  20.688  53.675  1.00  0.00     0.210 C 
ENDBRANCH  14  17
ENDBRANCH   9  11
ENDBRANCH   1   5
BRANCH   2  19
HETATM   19  N   UNL     1       8.114  30.243  59.637  1.00  0.00    -0.267 N 
HETATM   20  C   UNL     1       8.983  31.307  59.545  1.00  0.00     0.236 C 
HETATM   21  O   UNL     1       9.781  31.424  58.616  1.00  0.00    -0.272 OA
HETATM   22  H   UNL     1       7.355  30.178  60.313  1.00  0.00     0.190 HD
BRANCH  20  23
HETATM   23  C   UNL     1       8.822  32.367  60.614  1.00  0.00     0.109 C 
BRANCH  23  24
HETATM   24  C   UNL     1       8.733  31.792  62.027  1.00  0.00     0.048 C 
BRANCH  24  25
HETATM   25  C   UNL     1       7.599  32.315  62.883  1.00  0.00    -0.055 A 
HETATM   26  C   UNL     1       7.913  32.973  64.082  1.00  0.00     0.049 A 
HETATM   27  C   UNL     1       6.902  33.430  64.921  1.00  0.00     0.116 A 
HETATM   28  F   UNL     1       7.223  34.057  66.061  1.00  0.00    -0.206 F 
HETATM   29  C   UNL     1       5.565  33.240  64.600  1.00  0.00     0.042 A 
HETATM   30  C   UNL     1       5.235  32.577  63.422  1.00  0.00     0.003 A 
HETATM   31  C   UNL     1       6.246  32.112  62.571  1.00  0.00     0.007 A 
ENDBRANCH  24  25
ENDBRANCH  23  24
ENDBRANCH  20  23
ENDBRANCH   2  19
TORSDOF 7
ENDMDL
MODEL 3
REMARK VINA RESULT:      -9.9      1.122      1.737
REMARK  7 active torsions:
REMARK  status: ('A' for Active; 'I' for Inactive)
REMARK    1  A    between atoms: O_2  and  C_3 
REMARK    2  A    between atoms: C_6  and  C_7 
REMARK    3  A    between atoms: C_11  and  C_12 
REMARK       I    between atoms: C_12  and  N_13 
REMARK    4  A    between atoms: N_13  and  N_14 
REMARK       I    between atoms: N_14  and  C_15 
REMARK    5  A    between atoms: C_15  and  C_16 
REMARK    6  A    between atoms: C_16  and  C_17 
REMARK    7  A    between atoms: C_17  and  C_18 
ROOT
HETATM    1  C   UNL     1       9.107  29.394  56.951  1.00  0.00     0.288 C 
HETATM    2  N   UNL     1       7.974  28.668  56.651  1.00  0.00    -0.262 N 
HETATM    3  O   UNL     1      10.144  29.275  56.300  1.00  0.00    -0.264 OA
HETATM    4  H   UNL     1       7.112  28.702  57.190  1.00  0.00     0.190 HD
ENDROOT
BRANCH   1   5
HETATM    5  C   UNL     1       8.986  30.297  58.059  1.00  0.00     0.121 A 
HETATM    6  N   UNL     1       9.778  31.405  58.178  1.00  0.00    -0.272 N 
HETATM    7  N   UNL     1       9.525  32.147  59.265  1.00  0.00    -0.174 NA
HETATM    8  H   UNL     1      10.511  31.702  57.541  1.00  0.00     0.189 HD
HETATM    9  C   UNL     1       8.501  31.526  59.871  1.00  0.00     0.089 A 
HETATM   10  C   UNL     1       8.149  30.346  59.156  1.00  0.00     0.071 A 
BRANCH   9  11
HETATM   11  C   UNL     1       7.888  32.052  61.092  1.00  0.00    -0.005 A 
HETATM   12  C   UNL     1       6.568  32.522  61.093  1.00  0.00     0.016 A 
HETATM   13  C   UNL     1       5.990  33.010  62.269  1.00  0.00     0.037 A 
HETATM   14  C   UNL     1       6.711  33.031  63.463  1.00  0.00     0.068 A 
HETATM   15  C   UNL     1       8.032  32.587  63.468  1.00  0.00     0.037 A 
HETATM   16  C   UNL     1       8.616  32.102  62.290  1.00  0.00     0.016 A 
BRANCH  14  17
HETATM   17  O   UNL     1       6.024  33.518  64.540  1.00  0.00    -0.356 OA
HETATM   18  C   UNL     1       6.785  33.780  65.712  1.00  0.00     0.210 C 
ENDBRANCH  14  17
ENDBRANCH   9  11
ENDBRANCH   1   5
BRANCH   2  19
HETATM   19  N   UNL     1       7.984  27.824  55.537  1.00  0.00    -0.267 N 
HETATM   20  C   UNL     1       7.611  26.511  55.715  1.00  0.00     0.236 C 
HETATM   21  O   UNL     1       7.357  26.046  56.825  1.00  0.00    -0.272 OA
HETATM   22  H   UNL     1       8.074  28.278  54.629  1.00  0.00     0.190 HD
BRANCH  20  23
HETATM   23  C   UNL     1       7.445  25.709  54.442  1.00  0.00     0.109 C 
BRANCH  23  24
HETATM   24  C   UNL     1       6.562  24.474  54.616  1.00  0.00     0.048 C 
BRANCH  24  25
HETATM   25  C   UNL     1       7.285  23.145  54.666  1.00  0.00    -0.055 A 
HETATM   26  C   UNL     1       7.484  22.445  53.465  1.00  0.00     0.049 A 
HETATM   27  C   UNL     1       8.106  21.200  53.470  1.00  0.00     0.116 A 
HETATM   28  F   UNL     1       8.286  20.549  52.313  1.00  0.00    -0.206 F 
HETATM   29  C   UNL     1       8.533  20.618  54.655  1.00  0.00     0.042 A 
HETATM   30  C   UNL     1       8.331  21.292  55.856  1.00  0.00     0.003 A 
HETATM   31  C   UNL     1       7.706  22.545  55.862  1.00  0.00     0.007 A 
ENDBRANCH  24  25
ENDBRANCH  23  24
ENDBRANCH  20  23
ENDBRANCH   2  19
TORSDOF 7
ENDMDL
MODEL 4
REMARK VINA RESULT:      -9.3      4.076     11.704
REMARK  7 active torsions:
REMARK  status: ('A' for Active; 'I' for Inactive)
REMARK    1  A    between atoms: O_2  and  C_3 
REMARK    2  A    between atoms: C_6  and  C_7 
REMARK    3  A    between atoms: C_11  and  C_12 
REMARK       I    between atoms: C_12  and  N_13 
REMARK    4  A    between atoms: N_13  and  N_14 
REMARK       I    between atoms: N_14  and  C_15 
REMARK    5  A    between atoms: C_15  and  C_16 
REMARK    6  A    between atoms: C_16  and  C_17 
REMARK    7  A    between atoms: C_17  and  C_18 
ROOT
HETATM    1  C   UNL     1       7.677  29.192  58.074  1.00  0.00     0.288 C 
HETATM    2  N   UNL     1       6.617  30.067  58.172  1.00  0.00    -0.262 N 
HETATM    3  O   UNL     1       8.693  29.324  58.756  1.00  0.00    -0.264 OA
HETATM    4  H   UNL     1       5.781  30.021  57.596  1.00  0.00     0.190 HD
ENDROOT
BRANCH   1   5
HETATM    5  C   UNL     1       7.507  28.118  57.137  1.00  0.00     0.121 A 
HETATM    6  N   UNL     1       7.015  28.328  55.879  1.00  0.00    -0.272 N 
HETATM    7  N   UNL     1       6.932  27.220  55.130  1.00  0.00    -0.174 NA
HETATM    8  H   UNL     1       6.718  29.214  55.480  1.00  0.00     0.189 HD
HETATM    9  C   UNL     1       7.422  26.244  55.910  1.00  0.00     0.089 A 
HETATM   10  C   UNL     1       7.772  26.765  57.188  1.00  0.00     0.071 A 
BRANCH   9  11
HETATM   11  C   UNL     1       7.546  24.863  55.438  1.00  0.00    -0.005 A 
HETATM   12  C   UNL     1       7.710  23.804  56.340  1.00  0.00     0.016 A 
HETATM   13  C   UNL     1       7.815  22.489  55.878  1.00  0.00     0.037 A 
HETATM   14  C   UNL     1       7.750  22.205  54.514  1.00  0.00     0.068 A 
HETATM   15  C   UNL     1       7.609  23.253  53.607  1.00  0.00     0.037 A 
HETATM   16  C   UNL     1       7.509  24.573  54.067  1.00  0.00     0.016 A 
BRANCH  14  17
HETATM   17  O   UNL     1       7.850  20.878  54.199  1.00  0.00    -0.356 OA
HETATM   18  C   UNL     1       8.182  20.570  52.852  1.00  0.00     0.210 C 
ENDBRANCH  14  17
ENDBRANCH   9  11
ENDBRANCH   1   5
BRANCH   2  19
HETATM   19  N   UNL     1       6.672  31.095  59.119  1.00  0.00    -0.267 N 
HETATM   20  C   UNL     1       5.561  31.892  59.275  1.00  0.00     0.236 C 
HETATM   21  O   UNL     1       4.569  31.783  58.556  1.00  0.00    -0.272 OA
HETATM   22  H   UNL     1       7.454  31.064  59.771  1.00  0.00     0.190 HD
BRANCH  20  23
HETATM   23  C   UNL     1       5.610  32.845  60.451  1.00  0.00     0.109 C 
BRANCH  23  24
HETATM   24  C   UNL     1       6.766  32.563  61.410  1.00  0.00     0.048 C 
BRANCH  24  25
HETATM   25  C   UNL     1       6.539  32.959  62.853  1.00  0.00    -0.055 A 
HETATM   26  C   UNL     1       5.227  33.226  63.275  1.00  0.00     0.049 A 
HETATM   27  C   UNL     1       4.976  33.636  64.581  1.00  0.00     0.116 A 
HETATM   28  F   UNL     1       3.716  33.884  64.964  1.00  0.00    -0.206 F 
HETATM   29  C   UNL     1       6.012  33.799  65.491  1.00  0.00     0.042 A 
HETATM   30  C   UNL     1       7.320  33.552  65.085  1.00  0.00     0.003 A 
HETATM   31  C   UNL     1       7.583  33.141  63.773  1.00  0.00     0.007 A 
ENDBRANCH  24  25
ENDBRANCH  23  24
ENDBRANCH  20  23
ENDBRANCH   2  19
TORSDOF 7
ENDMDL
MODEL 5
REMARK VINA RESULT:      -9.1      8.597     12.525
REMARK  7 active torsions:
REMARK  status: ('A' for Active; 'I' for Inactive)
REMARK    1  A    between atoms: O_2  and  C_3 
REMARK    2  A    between atoms: C_6  and  C_7 
REMARK    3  A    between atoms: C_11  and  C_12 
REMARK       I    between atoms: C_12  and  N_13 
REMARK    4  A    between atoms: N_13  and  N_14 
REMARK       I    between atoms: N_14  and  C_15 
REMARK    5  A    between atoms: C_15  and  C_16 
REMARK    6  A    between atoms: C_16  and  C_17 
REMARK    7  A    between atoms: C_17  and  C_18 
ROOT
HETATM    1  C   UNL     1       5.057  27.205  50.096  1.00  0.00     0.288 C 
HETATM    2  N   UNL     1       5.439  25.972  50.581  1.00  0.00    -0.262 N 
HETATM    3  O   UNL     1       5.625  28.240  50.440  1.00  0.00    -0.264 OA
HETATM    4  H   UNL     1       4.968  25.098  50.358  1.00  0.00     0.190 HD
ENDROOT
BRANCH   1   5
HETATM    5  C   UNL     1       3.969  27.191  49.160  1.00  0.00     0.121 A 
HETATM    6  N   UNL     1       3.378  26.026  48.756  1.00  0.00    -0.272 N 
HETATM    7  N   UNL     1       2.370  26.194  47.890  1.00  0.00    -0.174 NA
HETATM    8  H   UNL     1       3.628  25.085  49.043  1.00  0.00     0.189 HD
HETATM    9  C   UNL     1       2.265  27.524  47.743  1.00  0.00     0.089 A 
HETATM   10  C   UNL     1       3.269  28.184  48.507  1.00  0.00     0.071 A 
BRANCH   9  11
HETATM   11  C   UNL     1       1.236  28.131  46.896  1.00  0.00    -0.005 A 
HETATM   12  C   UNL     1       1.163  29.521  46.733  1.00  0.00     0.016 A 
HETATM   13  C   UNL     1       0.184  30.088  45.912  1.00  0.00     0.037 A 
HETATM   14  C   UNL     1      -0.732  29.283  45.234  1.00  0.00     0.068 A 
HETATM   15  C   UNL     1      -0.682  27.902  45.406  1.00  0.00     0.037 A 
HETATM   16  C   UNL     1       0.295  27.331  46.233  1.00  0.00     0.016 A 
BRANCH  14  17
HETATM   17  O   UNL     1      -1.625  29.964  44.453  1.00  0.00    -0.356 OA
HETATM   18  C   UNL     1      -1.180  31.202  43.913  1.00  0.00     0.210 C 
ENDBRANCH  14  17
ENDBRANCH   9  11
ENDBRANCH   1   5
BRANCH   2  19
HETATM   19  N   UNL     1       6.542  25.891  51.436  1.00  0.00    -0.267 N 
HETATM   20  C   UNL     1       6.307  25.746  52.784  1.00  0.00     0.236 C 
HETATM   21  O   UNL     1       5.173  25.773  53.260  1.00  0.00    -0.272 OA
HETATM   22  H   UNL     1       7.446  25.744  50.990  1.00  0.00     0.190 HD
BRANCH  20  23
HETATM   23  C   UNL     1       7.532  25.458  53.625  1.00  0.00     0.109 C 
BRANCH  23  24
HETATM   24  C   UNL     1       7.263  24.485  54.773  1.00  0.00     0.048 C 
BRANCH  24  25
HETATM   25  C   UNL     1       7.557  23.028  54.488  1.00  0.00    -0.055 A 
HETATM   26  C   UNL     1       7.591  22.128  55.565  1.00  0.00     0.049 A 
HETATM   27  C   UNL     1       7.901  20.788  55.354  1.00  0.00     0.116 A 
HETATM   28  F   UNL     1       7.928  19.945  56.395  1.00  0.00    -0.206 F 
HETATM   29  C   UNL     1       8.192  20.312  54.083  1.00  0.00     0.042 A 
HETATM   30  C   UNL     1       8.176  21.193  53.006  1.00  0.00     0.003 A 
HETATM   31  C   UNL     1       7.867  22.544  53.207  1.00  0.00     0.007 A 
ENDBRANCH  24  25
ENDBRANCH  23  24
ENDBRANCH  20  23
ENDBRANCH   2  19
TORSDOF 7
ENDMDL
MODEL 6
REMARK VINA RESULT:      -9.0      4.332     11.865
REMARK  7 active torsions:
REMARK  status: ('A' for Active; 'I' for Inactive)
REMARK    1  A    between atoms: O_2  and  C_3 
REMARK    2  A    between atoms: C_6  and  C_7 
REMARK    3  A    between atoms: C_11  and  C_12 
REMARK       I    between atoms: C_12  and  N_13 
REMARK    4  A    between atoms: N_13  and  N_14 
REMARK       I    between atoms: N_14  and  C_15 
REMARK    5  A    between atoms: C_15  and  C_16 
REMARK    6  A    between atoms: C_16  and  C_17 
REMARK    7  A    between atoms: C_17  and  C_18 
ROOT
HETATM    1  C   UNL     1       8.073  31.254  59.015  1.00  0.00     0.288 C 
HETATM    2  N   UNL     1       6.880  31.300  59.704  1.00  0.00    -0.262 N 
HETATM    3  O   UNL     1       8.881  32.182  59.057  1.00  0.00    -0.264 OA
HETATM    4  H   UNL     1       6.166  30.577  59.660  1.00  0.00     0.190 HD
ENDROOT
BRANCH   1   5
HETATM    5  C   UNL     1       8.309  30.054  58.265  1.00  0.00     0.121 A 
HETATM    6  N   UNL     1       9.509  29.804  57.660  1.00  0.00    -0.272 N 
HETATM    7  N   UNL     1       9.562  28.632  57.011  1.00  0.00    -0.174 NA
HETATM    8  H   UNL     1      10.328  30.404  57.658  1.00  0.00     0.189 HD
HETATM    9  C   UNL     1       8.364  28.068  57.226  1.00  0.00     0.089 A 
HETATM   10  C   UNL     1       7.539  28.942  57.990  1.00  0.00     0.071 A 
BRANCH   9  11
HETATM   11  C   UNL     1       8.029  26.739  56.712  1.00  0.00    -0.005 A 
HETATM   12  C   UNL     1       7.385  26.583  55.478  1.00  0.00     0.016 A 
HETATM   13  C   UNL     1       7.081  25.307  54.992  1.00  0.00     0.037 A 
HETATM   14  C   UNL     1       7.422  24.167  55.721  1.00  0.00     0.068 A 
HETATM   15  C   UNL     1       8.043  24.312  56.960  1.00  0.00     0.037 A 
HETATM   16  C   UNL     1       8.343  25.589  57.451  1.00  0.00     0.016 A 
BRANCH  14  17
HETATM   17  O   UNL     1       7.083  22.984  55.126  1.00  0.00    -0.356 OA
HETATM   18  C   UNL     1       7.723  21.817  55.625  1.00  0.00     0.210 C 
ENDBRANCH  14  17
ENDBRANCH   9  11
ENDBRANCH   1   5
BRANCH   2  19
HETATM   19  N   UNL     1       6.610  32.400  60.522  1.00  0.00    -0.267 N 
HETATM   20  C   UNL     1       6.903  32.299  61.863  1.00  0.00     0.236 C 
HETATM   21  O   UNL     1       7.307  31.253  62.369  1.00  0.00    -0.272 OA
HETATM   22  H   UNL     1       6.402  33.275  60.044  1.00  0.00     0.190 HD
BRANCH  20  23
HETATM   23  C   UNL     1       6.783  33.586  62.650  1.00  0.00     0.109 C 
BRANCH  23  24
HETATM   24  C   UNL     1       7.199  33.442  64.114  1.00  0.00     0.048 C 
BRANCH  24  25
HETATM   25  C   UNL     1       6.333  34.169  65.121  1.00  0.00    -0.055 A 
HETATM   26  C   UNL     1       6.554  33.933  66.487  1.00  0.00     0.049 A 
HETATM   27  C   UNL     1       5.754  34.545  67.446  1.00  0.00     0.116 A 
HETATM   28  F   UNL     1       5.982  34.307  68.745  1.00  0.00    -0.206 F 
HETATM   29  C   UNL     1       4.717  35.391  67.079  1.00  0.00     0.042 A 
HETATM   30  C   UNL     1       4.475  35.626  65.729  1.00  0.00     0.003 A 
HETATM   31  C   UNL     1       5.274  35.013  64.755  1.00  0.00     0.007 A 
ENDBRANCH  24  25
ENDBRANCH  23  24
ENDBRANCH  20  23
ENDBRANCH   2  19
TORSDOF 7
ENDMDL
MODEL 7
REMARK VINA RESULT:      -9.0      9.071     12.678
REMARK  7 active torsions:
REMARK  status: ('A' for Active; 'I' for Inactive)
REMARK    1  A    between atoms: O_2  and  C_3 
REMARK    2  A    between atoms: C_6  and  C_7 
REMARK    3  A    between atoms: C_11  and  C_12 
REMARK       I    between atoms: C_12  and  N_13 
REMARK    4  A    between atoms: N_13  and  N_14 
REMARK       I    between atoms: N_14  and  C_15 
REMARK    5  A    between atoms: C_15  and  C_16 
REMARK    6  A    between atoms: C_16  and  C_17 
REMARK    7  A    between atoms: C_17  and  C_18 
ROOT
HETATM    1  C   UNL     1       4.644  27.307  49.565  1.00  0.00     0.288 C 
HETATM    2  N   UNL     1       4.771  26.166  50.328  1.00  0.00    -0.262 N 
HETATM    3  O   UNL     1       5.517  28.175  49.548  1.00  0.00    -0.264 OA
HETATM    4  H   UNL     1       4.055  25.448  50.406  1.00  0.00     0.190 HD
ENDROOT
BRANCH   1   5
HETATM    5  C   UNL     1       3.440  27.403  48.791  1.00  0.00     0.121 A 
HETATM    6  N   UNL     1       2.682  26.305  48.495  1.00  0.00    -0.272 N 
HETATM    7  N   UNL     1       1.585  26.573  47.774  1.00  0.00    -0.174 NA
HETATM    8  H   UNL     1       2.871  25.343  48.762  1.00  0.00     0.189 HD
HETATM    9  C   UNL     1       1.597  27.906  47.618  1.00  0.00     0.089 A 
HETATM   10  C   UNL     1       2.761  28.461  48.222  1.00  0.00     0.071 A 
BRANCH   9  11
HETATM   11  C   UNL     1       0.527  28.614  46.911  1.00  0.00    -0.005 A 
HETATM   12  C   UNL     1      -0.360  27.929  46.071  1.00  0.00     0.016 A 
HETATM   13  C   UNL     1      -1.385  28.614  45.412  1.00  0.00     0.037 A 
HETATM   14  C   UNL     1      -1.549  29.989  45.585  1.00  0.00     0.068 A 
HETATM   15  C   UNL     1      -0.659  30.684  46.401  1.00  0.00     0.037 A 
HETATM   16  C   UNL     1       0.373  30.000  47.059  1.00  0.00     0.016 A 
BRANCH  14  17
HETATM   17  O   UNL     1      -2.598  30.531  44.896  1.00  0.00    -0.356 OA
HETATM   18  C   UNL     1      -2.703  31.949  44.915  1.00  0.00     0.210 C 
ENDBRANCH  14  17
ENDBRANCH   9  11
ENDBRANCH   1   5
BRANCH   2  19
HETATM   19  N   UNL     1       5.949  25.959  51.050  1.00  0.00    -0.267 N 
HETATM   20  C   UNL     1       5.881  25.210  52.203  1.00  0.00     0.236 C 
HETATM   21  O   UNL     1       4.813  24.798  52.655  1.00  0.00    -0.272 OA
HETATM   22  H   UNL     1       6.816  26.206  50.575  1.00  0.00     0.190 HD
BRANCH  20  23
HETATM   23  C   UNL     1       7.215  24.852  52.821  1.00  0.00     0.109 C 
BRANCH  23  24
HETATM   24  C   UNL     1       7.094  24.278  54.232  1.00  0.00     0.048 C 
BRANCH  24  25
HETATM   25  C   UNL     1       7.548  22.844  54.403  1.00  0.00    -0.055 A 
HETATM   26  C   UNL     1       7.835  22.091  53.253  1.00  0.00     0.049 A 
HETATM   27  C   UNL     1       8.213  20.756  53.361  1.00  0.00     0.116 A 
HETATM   28  F   UNL     1       8.483  20.056  52.251  1.00  0.00    -0.206 F 
HETATM   29  C   UNL     1       8.305  20.136  54.599  1.00  0.00     0.042 A 
HETATM   30  C   UNL     1       8.011  20.864  55.748  1.00  0.00     0.003 A 
HETATM   31  C   UNL     1       7.629  22.208  55.650  1.00  0.00     0.007 A 
ENDBRANCH  24  25
ENDBRANCH  23  24
ENDBRANCH  20  23
ENDBRANCH   2  19
TORSDOF 7
ENDMDL
MODEL 8
REMARK VINA RESULT:      -8.9      1.891      2.624
REMARK  7 active torsions:
REMARK  status: ('A' for Active; 'I' for Inactive)
REMARK    1  A    between atoms: O_2  and  C_3 
REMARK    2  A    between atoms: C_6  and  C_7 
REMARK    3  A    between atoms: C_11  and  C_12 
REMARK       I    between atoms: C_12  and  N_13 
REMARK    4  A    between atoms: N_13  and  N_14 
REMARK       I    between atoms: N_14  and  C_15 
REMARK    5  A    between atoms: C_15  and  C_16 
REMARK    6  A    between atoms: C_16  and  C_17 
REMARK    7  A    between atoms: C_17  and  C_18 
ROOT
HETATM    1  C   UNL     1       8.214  30.167  58.626  1.00  0.00     0.288 C 
HETATM    2  N   UNL     1       7.032  29.950  57.950  1.00  0.00    -0.262 N 
HETATM    3  O   UNL     1       9.305  29.893  58.128  1.00  0.00    -0.264 OA
HETATM    4  H   UNL     1       6.109  30.119  58.342  1.00  0.00     0.190 HD
ENDROOT
BRANCH   1   5
HETATM    5  C   UNL     1       8.081  30.742  59.934  1.00  0.00     0.121 A 
HETATM    6  N   UNL     1       8.868  30.347  60.980  1.00  0.00    -0.272 N 
HETATM    7  N   UNL     1       8.621  30.995  62.127  1.00  0.00    -0.174 NA
HETATM    8  H   UNL     1       9.592  29.635  60.964  1.00  0.00     0.189 HD
HETATM    9  C   UNL     1       7.659  31.878  61.820  1.00  0.00     0.089 A 
HETATM   10  C   UNL     1       7.275  31.734  60.456  1.00  0.00     0.071 A 
BRANCH   9  11
HETATM   11  C   UNL     1       7.130  32.823  62.806  1.00  0.00    -0.005 A 
HETATM   12  C   UNL     1       6.083  33.695  62.481  1.00  0.00     0.016 A 
HETATM   13  C   UNL     1       5.578  34.584  63.434  1.00  0.00     0.037 A 
HETATM   14  C   UNL     1       6.100  34.614  64.728  1.00  0.00     0.068 A 
HETATM   15  C   UNL     1       7.156  33.766  65.056  1.00  0.00     0.037 A 
HETATM   16  C   UNL     1       7.667  32.878  64.100  1.00  0.00     0.016 A 
BRANCH  14  17
HETATM   17  O   UNL     1       5.506  35.517  65.565  1.00  0.00    -0.356 OA
HETATM   18  C   UNL     1       4.113  35.732  65.380  1.00  0.00     0.210 C 
ENDBRANCH  14  17
ENDBRANCH   9  11
ENDBRANCH   1   5
BRANCH   2  19
HETATM   19  N   UNL     1       7.079  29.466  56.640  1.00  0.00    -0.267 N 
HETATM   20  C   UNL     1       6.304  28.373  56.324  1.00  0.00     0.236 C 
HETATM   21  O   UNL     1       5.650  27.766  57.171  1.00  0.00    -0.272 OA
HETATM   22  H   UNL     1       7.527  30.071  55.953  1.00  0.00     0.190 HD
BRANCH  20  23
HETATM   23  C   UNL     1       6.242  28.029  54.851  1.00  0.00     0.109 C 
BRANCH  23  24
HETATM   24  C   UNL     1       7.502  27.333  54.338  1.00  0.00     0.048 C 
BRANCH  24  25
HETATM   25  C   UNL     1       7.490  25.820  54.394  1.00  0.00    -0.055 A 
HETATM   26  C   UNL     1       7.766  25.105  53.218  1.00  0.00     0.049 A 
HETATM   27  C   UNL     1       7.723  23.714  53.213  1.00  0.00     0.116 A 
HETATM   28  F   UNL     1       7.991  23.050  52.080  1.00  0.00    -0.206 F 
HETATM   29  C   UNL     1       7.397  23.004  54.360  1.00  0.00     0.042 A 
HETATM   30  C   UNL     1       7.106  23.697  55.531  1.00  0.00     0.003 A 
HETATM   31  C   UNL     1       7.146  25.097  55.546  1.00  0.00     0.007 A 
ENDBRANCH  24  25
ENDBRANCH  23  24
ENDBRANCH  20  23
ENDBRANCH   2  19
TORSDOF 7
ENDMDL
MODEL 9
REMARK VINA RESULT:      -8.9      2.294      2.882
REMARK  7 active torsions:
REMARK  status: ('A' for Active; 'I' for Inactive)
REMARK    1  A    between atoms: O_2  and  C_3 
REMARK    2  A    between atoms: C_6  and  C_7 
REMARK    3  A    between atoms: C_11  and  C_12 
REMARK       I    between atoms: C_12  and  N_13 
REMARK    4  A    between atoms: N_13  and  N_14 
REMARK       I    between atoms: N_14  and  C_15 
REMARK    5  A    between atoms: C_15  and  C_16 
REMARK    6  A    between atoms: C_16  and  C_17 
REMARK    7  A    between atoms: C_17  and  C_18 
ROOT
HETATM    1  C   UNL     1       6.034  31.326  58.268  1.00  0.00     0.288 C 
HETATM    2  N   UNL     1       6.745  30.146  58.305  1.00  0.00    -0.262 N 
HETATM    3  O   UNL     1       5.671  31.830  57.206  1.00  0.00    -0.264 OA
HETATM    4  H   UNL     1       7.104  29.720  59.156  1.00  0.00     0.190 HD
ENDROOT
BRANCH   1   5
HETATM    5  C   UNL     1       5.741  31.912  59.544  1.00  0.00     0.121 A 
HETATM    6  N   UNL     1       4.492  32.368  59.860  1.00  0.00    -0.272 N 
HETATM    7  N   UNL     1       4.389  32.873  61.098  1.00  0.00    -0.174 NA
HETATM    8  H   UNL     1       3.670  32.359  59.264  1.00  0.00     0.189 HD
HETATM    9  C   UNL     1       5.607  32.711  61.635  1.00  0.00     0.089 A 
HETATM   10  C   UNL     1       6.492  32.132  60.681  1.00  0.00     0.071 A 
BRANCH   9  11
HETATM   11  C   UNL     1       5.905  33.102  63.014  1.00  0.00    -0.005 A 
HETATM   12  C   UNL     1       4.880  33.445  63.905  1.00  0.00     0.016 A 
HETATM   13  C   UNL     1       5.176  33.804  65.223  1.00  0.00     0.037 A 
HETATM   14  C   UNL     1       6.495  33.819  65.679  1.00  0.00     0.068 A 
HETATM   15  C   UNL     1       7.524  33.501  64.795  1.00  0.00     0.037 A 
HETATM   16  C   UNL     1       7.230  33.146  63.472  1.00  0.00     0.016 A 
BRANCH  14  17
HETATM   17  O   UNL     1       6.643  34.173  66.991  1.00  0.00    -0.356 OA
HETATM   18  C   UNL     1       5.447  34.367  67.735  1.00  0.00     0.210 C 
ENDBRANCH  14  17
ENDBRANCH   9  11
ENDBRANCH   1   5
BRANCH   2  19
HETATM   19  N   UNL     1       7.003  29.471  57.108  1.00  0.00    -0.267 N 
HETATM   20  C   UNL     1       7.471  28.179  57.180  1.00  0.00     0.236 C 
HETATM   21  O   UNL     1       7.747  27.640  58.251  1.00  0.00    -0.272 OA
HETATM   22  H   UNL     1       6.641  29.905  56.260  1.00  0.00     0.190 HD
BRANCH  20  23
HETATM   23  C   UNL     1       7.531  27.439  55.861  1.00  0.00     0.109 C 
BRANCH  23  24
HETATM   24  C   UNL     1       7.164  25.960  55.978  1.00  0.00     0.048 C 
BRANCH  24  25
HETATM   25  C   UNL     1       7.373  25.127  54.732  1.00  0.00    -0.055 A 
HETATM   26  C   UNL     1       7.301  23.729  54.842  1.00  0.00     0.049 A 
HETATM   27  C   UNL     1       7.530  22.922  53.732  1.00  0.00     0.116 A 
HETATM   28  F   UNL     1       7.455  21.590  53.858  1.00  0.00    -0.206 F 
HETATM   29  C   UNL     1       7.842  23.474  52.498  1.00  0.00     0.042 A 
HETATM   30  C   UNL     1       7.932  24.858  52.374  1.00  0.00     0.003 A 
HETATM   31  C   UNL     1       7.704  25.679  53.486  1.00  0.00     0.007 A 
ENDBRANCH  24  25
ENDBRANCH  23  24
ENDBRANCH  20  23
ENDBRANCH   2  19
TORSDOF 7
ENDMDL
MODEL 10
REMARK VINA RESULT:      -8.9      8.827     12.729
REMARK  7 active torsions:
REMARK  status: ('A' for Active; 'I' for Inactive)
REMARK    1  A    between atoms: O_2  and  C_3 
REMARK    2  A    between atoms: C_6  and  C_7 
REMARK    3  A    between atoms: C_11  and  C_12 
REMARK       I    between atoms: C_12  and  N_13 
REMARK    4  A    between atoms: N_13  and  N_14 
REMARK       I    between atoms: N_14  and  C_15 
REMARK    5  A    between atoms: C_15  and  C_16 
REMARK    6  A    between atoms: C_16  and  C_17 
REMARK    7  A    between atoms: C_17  and  C_18 
ROOT
HETATM    1  C   UNL     1       4.694  27.022  49.942  1.00  0.00     0.288 C 
HETATM    2  N   UNL     1       4.815  25.826  50.617  1.00  0.00    -0.262 N 
HETATM    3  O   UNL     1       5.497  27.940  50.102  1.00  0.00    -0.264 OA
HETATM    4  H   UNL     1       4.149  25.060  50.549  1.00  0.00     0.190 HD
ENDROOT
BRANCH   1   5
HETATM    5  C   UNL     1       3.583  27.112  49.038  1.00  0.00     0.121 A 
HETATM    6  N   UNL     1       2.907  26.003  48.612  1.00  0.00    -0.272 N 
HETATM    7  N   UNL     1       1.889  26.266  47.781  1.00  0.00    -0.174 NA
HETATM    8  H   UNL     1       3.101  25.037  48.859  1.00  0.00     0.189 HD
HETATM    9  C   UNL     1       1.868  27.604  47.682  1.00  0.00     0.089 A 
HETATM   10  C   UNL     1       2.932  28.171  48.439  1.00  0.00     0.071 A 
BRANCH   9  11
HETATM   11  C   UNL     1       0.859  28.307  46.886  1.00  0.00    -0.005 A 
HETATM   12  C   UNL     1       0.069  27.622  45.953  1.00  0.00     0.016 A 
HETATM   13  C   UNL     1      -0.899  28.302  45.208  1.00  0.00     0.037 A 
HETATM   14  C   UNL     1      -1.104  29.670  45.385  1.00  0.00     0.068 A 
HETATM   15  C   UNL     1      -0.309  30.366  46.295  1.00  0.00     0.037 A 
HETATM   16  C   UNL     1       0.666  29.687  47.039  1.00  0.00     0.016 A 
BRANCH  14  17
HETATM   17  O   UNL     1      -2.091  30.208  44.607  1.00  0.00    -0.356 OA
HETATM   18  C   UNL     1      -2.358  29.547  43.376  1.00  0.00     0.210 C 
ENDBRANCH  14  17
ENDBRANCH   9  11
ENDBRANCH   1   5
BRANCH   2  19
HETATM   19  N   UNL     1       5.914  25.629  51.457  1.00  0.00    -0.267 N 
HETATM   20  C   UNL     1       5.688  25.541  52.812  1.00  0.00     0.236 C 
HETATM   21  O   UNL     1       4.574  25.715  53.304  1.00  0.00    -0.272 OA
HETATM   22  H   UNL     1       6.786  25.364  51.001  1.00  0.00     0.190 HD
BRANCH  20  23
HETATM   23  C   UNL     1       6.884  25.123  53.641  1.00  0.00     0.109 C 
BRANCH  23  24
HETATM   24  C   UNL     1       7.755  24.069  52.958  1.00  0.00     0.048 C 
BRANCH  24  25
HETATM   25  C   UNL     1       7.891  22.750  53.687  1.00  0.00    -0.055 A 
HETATM   26  C   UNL     1       7.994  22.767  55.087  1.00  0.00     0.049 A 
HETATM   27  C   UNL     1       8.164  21.581  55.796  1.00  0.00     0.116 A 
HETATM   28  F   UNL     1       8.260  21.620  57.132  1.00  0.00    -0.206 F 
HETATM   29  C   UNL     1       8.246  20.361  55.140  1.00  0.00     0.042 A 
HETATM   30  C   UNL     1       8.160  20.327  53.751  1.00  0.00     0.003 A 
HETATM   31  C   UNL     1       7.989  21.515  53.029  1.00  0.00     0.007 A 
ENDBRANCH  24  25
ENDBRANCH  23  24
ENDBRANCH  20  23
ENDBRANCH   2  19
TORSDOF 7
ENDMDL
