MODEL 1
REMARK VINA RESULT:     -10.7      0.000      0.000
REMARK  7 active torsions:
REMARK  status: ('A' for Active; 'I' for Inactive)
REMARK    1  A    between atoms: C_7  and  C_8 
REMARK    2  A    between atoms: C_8  and  C_9 
REMARK    3  A    between atoms: C_9  and  N_10 
REMARK    4  A    between atoms: N_10  and  C_11 
REMARK    5  A    between atoms: C_11  and  N_12 
REMARK    6  A    between atoms: N_12  and  C_13 
REMARK    7  A    between atoms: C_30  and  C_31 
ROOT
HETATM    1  C   UNL     1       6.132  29.792  56.294  1.00  0.00     0.123 C 
HETATM    2  C   UNL     1       5.231  30.817  56.399  1.00  0.00     0.144 C 
HETATM    3  C   UNL     1       4.363  31.197  55.254  1.00  0.00     0.270 C 
HETATM    4  O   UNL     1       4.574  30.795  54.109  1.00  0.00    -0.267 OA
HETATM    5  N   UNL     1       3.316  32.049  55.553  1.00  0.00    -0.270 N 
HETATM    6  C   UNL     1       2.343  32.305  54.505  1.00  0.00     0.164 C 
HETATM    7  C   UNL     1       3.261  32.862  56.671  1.00  0.00     0.333 C 
HETATM    8  O   UNL     1       2.386  33.721  56.800  1.00  0.00    -0.246 OA
HETATM    9  N   UNL     1       4.235  32.664  57.633  1.00  0.00    -0.270 N 
HETATM   10  C   UNL     1       4.169  33.490  58.827  1.00  0.00     0.164 C 
HETATM   11  C   UNL     1       5.093  31.581  57.667  1.00  0.00     0.270 C 
HETATM   12  O   UNL     1       5.683  31.245  58.697  1.00  0.00    -0.267 OA
ENDROOT
BRANCH   1  13
HETATM   13  N   UNL     1       6.200  29.003  55.140  1.00  0.00    -0.375 N 
HETATM   14  H   UNL     1       5.761  29.439  54.322  1.00  0.00     0.161 HD
BRANCH  13  15
HETATM   15  C   UNL     1       6.106  27.541  55.156  1.00  0.00     0.126 C 
BRANCH  15  16
HETATM   16  C   UNL     1       7.420  26.873  54.728  1.00  0.00     0.061 C 
BRANCH  16  17
HETATM   17  C   UNL     1       7.578  25.469  55.246  1.00  0.00    -0.022 A 
HETATM   18  C   UNL     1       7.640  25.085  56.577  1.00  0.00     0.013 A 
HETATM   19  C   UNL     1       7.577  25.887  57.827  1.00  0.00     0.068 C 
HETATM   20  N   UNL     1       7.780  23.721  56.612  1.00  0.00    -0.358 N 
HETATM   21  H   UNL     1       7.850  23.167  57.458  1.00  0.00     0.166 HD
HETATM   22  C   UNL     1       7.834  23.201  55.338  1.00  0.00     0.058 A 
HETATM   23  C   UNL     1       7.722  24.278  54.459  1.00  0.00    -0.000 A 
HETATM   24  C   UNL     1       7.980  21.864  54.911  1.00  0.00     0.075 A 
HETATM   25  C   UNL     1       7.767  24.021  53.075  1.00  0.00     0.014 A 
HETATM   26  C   UNL     1       7.910  22.710  52.616  1.00  0.00     0.002 A 
HETATM   27  C   UNL     1       8.010  21.653  53.517  1.00  0.00     0.018 A 
BRANCH  24  28
HETATM   28  C   UNL     1       8.083  20.686  55.846  1.00  0.00     0.419 C 
HETATM   29  F   UNL     1       6.884  20.316  56.384  1.00  0.00    -0.166 F 
HETATM   30  F   UNL     1       8.570  19.573  55.230  1.00  0.00    -0.166 F 
HETATM   31  F   UNL     1       8.908  20.919  56.904  1.00  0.00    -0.166 F 
ENDBRANCH  24  28
ENDBRANCH  16  17
ENDBRANCH  15  16
ENDBRANCH  13  15
ENDBRANCH   1  13
BRANCH   1  32
HETATM   32  N   UNL     1       6.976  29.455  57.359  1.00  0.00    -0.342 N 
HETATM   33  H   UNL     1       6.540  29.632  58.273  1.00  0.00     0.167 HD
BRANCH  32  34
HETATM   34  C   UNL     1       8.352  29.798  57.459  1.00  0.00     0.033 A 
HETATM   35  C   UNL     1       8.838  30.862  58.227  1.00  0.00     0.029 A 
HETATM   36  C   UNL     1      10.203  31.164  58.256  1.00  0.00     0.002 A 
HETATM   37  C   UNL     1      11.102  30.411  57.505  1.00  0.00     0.000 A 
HETATM   38  C   UNL     1      10.637  29.360  56.721  1.00  0.00     0.002 A 
HETATM   39  C   UNL     1       9.271  29.060  56.695  1.00  0.00     0.029 A 
ENDBRANCH  32  34
ENDBRANCH   1  32
TORSDOF 7
ENDMDL
MODEL 2
REMARK VINA RESULT:     -10.5      4.763      8.151
REMARK  7 active torsions:
REMARK  status: ('A' for Active; 'I' for Inactive)
REMARK    1  A    between atoms: C_7  and  C_8 
REMARK    2  A    between atoms: C_8  and  C_9 
REMARK    3  A    between atoms: C_9  and  N_10 
REMARK    4  A    between atoms: N_10  and  C_11 
REMARK    5  A    between atoms: C_11  and  N_12 
REMARK    6  A    between atoms: N_12  and  C_13 
REMARK    7  A    between atoms: C_30  and  C_31 
ROOT
HETATM    1  C   UNL     1       5.602  27.044  52.769  1.00  0.00     0.123 C 
HETATM    2  C   UNL     1       5.341  27.467  51.493  1.00  0.00     0.144 C 
HETATM    3  C   UNL     1       5.570  28.879  51.091  1.00  0.00     0.270 C 
HETATM    4  O   UNL     1       5.757  29.774  51.916  1.00  0.00    -0.267 OA
HETATM    5  N   UNL     1       5.537  29.128  49.731  1.00  0.00    -0.270 N 
HETATM    6  C   UNL     1       5.927  30.453  49.284  1.00  0.00     0.164 C 
HETATM    7  C   UNL     1       4.928  28.307  48.798  1.00  0.00     0.333 C 
HETATM    8  O   UNL     1       4.783  28.660  47.626  1.00  0.00    -0.246 OA
HETATM    9  N   UNL     1       4.491  27.073  49.246  1.00  0.00    -0.270 N 
HETATM   10  C   UNL     1       3.880  26.188  48.269  1.00  0.00     0.164 C 
HETATM   11  C   UNL     1       4.823  26.521  50.469  1.00  0.00     0.270 C 
HETATM   12  O   UNL     1       4.730  25.311  50.689  1.00  0.00    -0.267 OA
ENDROOT
BRANCH   1  13
HETATM   13  N   UNL     1       6.183  27.900  53.711  1.00  0.00    -0.375 N 
HETATM   14  H   UNL     1       5.744  28.826  53.745  1.00  0.00     0.161 HD
BRANCH  13  15
HETATM   15  C   UNL     1       7.615  27.909  54.016  1.00  0.00     0.126 C 
BRANCH  15  16
HETATM   16  C   UNL     1       7.911  27.365  55.421  1.00  0.00     0.061 C 
BRANCH  16  17
HETATM   17  C   UNL     1       7.723  28.382  56.513  1.00  0.00    -0.022 A 
HETATM   18  C   UNL     1       6.558  28.618  57.227  1.00  0.00     0.013 A 
HETATM   19  C   UNL     1       5.217  27.982  57.141  1.00  0.00     0.068 C 
HETATM   20  N   UNL     1       6.815  29.618  58.129  1.00  0.00    -0.358 N 
HETATM   21  H   UNL     1       6.141  29.995  58.785  1.00  0.00     0.166 HD
HETATM   22  C   UNL     1       8.113  30.063  58.011  1.00  0.00     0.058 A 
HETATM   23  C   UNL     1       8.703  29.313  56.994  1.00  0.00    -0.000 A 
HETATM   24  C   UNL     1       8.793  31.073  58.724  1.00  0.00     0.075 A 
HETATM   25  C   UNL     1      10.044  29.582  56.655  1.00  0.00     0.014 A 
HETATM   26  C   UNL     1      10.748  30.574  57.340  1.00  0.00     0.002 A 
HETATM   27  C   UNL     1      10.135  31.301  58.357  1.00  0.00     0.018 A 
BRANCH  24  28
HETATM   28  C   UNL     1       8.177  31.880  59.838  1.00  0.00     0.419 C 
HETATM   29  F   UNL     1       9.002  32.857  60.318  1.00  0.00    -0.166 F 
HETATM   30  F   UNL     1       7.037  32.517  59.452  1.00  0.00    -0.166 F 
HETATM   31  F   UNL     1       7.835  31.121  60.916  1.00  0.00    -0.166 F 
ENDBRANCH  24  28
ENDBRANCH  16  17
ENDBRANCH  15  16
ENDBRANCH  13  15
ENDBRANCH   1  13
BRANCH   1  32
HETATM   32  N   UNL     1       5.354  25.722  53.160  1.00  0.00    -0.342 N 
HETATM   33  H   UNL     1       4.596  25.656  53.852  1.00  0.00     0.167 HD
BRANCH  32  34
HETATM   34  C   UNL     1       6.347  24.767  53.509  1.00  0.00     0.033 A 
HETATM   35  C   UNL     1       7.297  24.266  52.612  1.00  0.00     0.029 A 
HETATM   36  C   UNL     1       8.228  23.302  53.015  1.00  0.00     0.002 A 
HETATM   37  C   UNL     1       8.213  22.817  54.319  1.00  0.00     0.000 A 
HETATM   38  C   UNL     1       7.265  23.290  55.221  1.00  0.00     0.002 A 
HETATM   39  C   UNL     1       6.336  24.253  54.816  1.00  0.00     0.029 A 
ENDBRANCH  32  34
ENDBRANCH   1  32
TORSDOF 7
ENDMDL
MODEL 3
REMARK VINA RESULT:     -10.3      3.685      6.067
REMARK  7 active torsions:
REMARK  status: ('A' for Active; 'I' for Inactive)
REMARK    1  A    between atoms: C_7  and  C_8 
REMARK    2  A    between atoms: C_8  and  C_9 
REMARK    3  A    between atoms: C_9  and  N_10 
REMARK    4  A    between atoms: N_10  and  C_11 
REMARK    5  A    between atoms: C_11  and  N_12 
REMARK    6  A    between atoms: N_12  and  C_13 
REMARK    7  A    between atoms: C_30  and  C_31 
ROOT
HETATM    1  C   UNL     1       4.910  27.433  51.439  1.00  0.00     0.123 C 
HETATM    2  C   UNL     1       4.652  28.433  52.338  1.00  0.00     0.144 C 
HETATM    3  C   UNL     1       4.546  28.149  53.793  1.00  0.00     0.270 C 
HETATM    4  O   UNL     1       4.435  27.003  54.231  1.00  0.00    -0.267 OA
HETATM    5  N   UNL     1       4.557  29.255  54.622  1.00  0.00    -0.270 N 
HETATM    6  C   UNL     1       4.632  29.018  56.052  1.00  0.00     0.164 C 
HETATM    7  C   UNL     1       4.252  30.543  54.216  1.00  0.00     0.333 C 
HETATM    8  O   UNL     1       4.114  31.459  55.029  1.00  0.00    -0.246 OA
HETATM    9  N   UNL     1       4.108  30.749  52.856  1.00  0.00    -0.270 N 
HETATM   10  C   UNL     1       3.820  32.103  52.414  1.00  0.00     0.164 C 
HETATM   11  C   UNL     1       4.472  29.837  51.882  1.00  0.00     0.270 C 
HETATM   12  O   UNL     1       4.672  30.173  50.712  1.00  0.00    -0.267 OA
ENDROOT
BRANCH   1  13
HETATM   13  N   UNL     1       5.180  26.128  51.866  1.00  0.00    -0.375 N 
HETATM   14  H   UNL     1       4.665  25.862  52.711  1.00  0.00     0.161 HD
BRANCH  13  15
HETATM   15  C   UNL     1       6.496  25.497  51.748  1.00  0.00     0.126 C 
BRANCH  15  16
HETATM   16  C   UNL     1       7.452  25.941  52.865  1.00  0.00     0.061 C 
BRANCH  16  17
HETATM   17  C   UNL     1       7.631  24.913  53.948  1.00  0.00    -0.022 A 
HETATM   18  C   UNL     1       7.618  25.147  55.315  1.00  0.00     0.013 A 
HETATM   19  C   UNL     1       7.438  26.404  56.087  1.00  0.00     0.068 C 
HETATM   20  N   UNL     1       7.809  23.944  55.947  1.00  0.00    -0.358 N 
HETATM   21  H   UNL     1       7.844  23.816  56.951  1.00  0.00     0.166 HD
HETATM   22  C   UNL     1       7.970  22.929  55.030  1.00  0.00     0.058 A 
HETATM   23  C   UNL     1       7.875  23.511  53.766  1.00  0.00    -0.000 A 
HETATM   24  C   UNL     1       8.198  21.552  55.234  1.00  0.00     0.075 A 
HETATM   25  C   UNL     1       8.023  22.684  52.635  1.00  0.00     0.014 A 
HETATM   26  C   UNL     1       8.249  21.316  52.799  1.00  0.00     0.002 A 
HETATM   27  C   UNL     1       8.330  20.762  54.074  1.00  0.00     0.018 A 
BRANCH  24  28
HETATM   28  C   UNL     1       8.284  20.903  56.592  1.00  0.00     0.419 C 
HETATM   29  F   UNL     1       8.249  21.798  57.622  1.00  0.00    -0.166 F 
HETATM   30  F   UNL     1       7.260  20.036  56.822  1.00  0.00    -0.166 F 
HETATM   31  F   UNL     1       9.429  20.185  56.765  1.00  0.00    -0.166 F 
ENDBRANCH  24  28
ENDBRANCH  16  17
ENDBRANCH  15  16
ENDBRANCH  13  15
ENDBRANCH   1  13
BRANCH   1  32
HETATM   32  N   UNL     1       4.976  27.692  50.064  1.00  0.00    -0.342 N 
HETATM   33  H   UNL     1       5.131  28.688  49.862  1.00  0.00     0.167 HD
BRANCH  32  34
HETATM   34  C   UNL     1       4.076  27.184  49.088  1.00  0.00     0.033 A 
HETATM   35  C   UNL     1       3.982  25.831  48.741  1.00  0.00     0.029 A 
HETATM   36  C   UNL     1       3.096  25.403  47.747  1.00  0.00     0.002 A 
HETATM   37  C   UNL     1       2.299  26.326  47.076  1.00  0.00     0.000 A 
HETATM   38  C   UNL     1       2.390  27.678  47.394  1.00  0.00     0.002 A 
HETATM   39  C   UNL     1       3.277  28.103  48.388  1.00  0.00     0.029 A 
ENDBRANCH  32  34
ENDBRANCH   1  32
TORSDOF 7
ENDMDL
MODEL 4
REMARK VINA RESULT:     -10.2      2.089      4.655
REMARK  7 active torsions:
REMARK  status: ('A' for Active; 'I' for Inactive)
REMARK    1  A    between atoms: C_7  and  C_8 
REMARK    2  A    between atoms: C_8  and  C_9 
REMARK    3  A    between atoms: C_9  and  N_10 
REMARK    4  A    between atoms: N_10  and  C_11 
REMARK    5  A    between atoms: C_11  and  N_12 
REMARK    6  A    between atoms: N_12  and  C_13 
REMARK    7  A    between atoms: C_30  and  C_31 
ROOT
HETATM    1  C   UNL     1       6.482  29.225  56.445  1.00  0.00     0.123 C 
HETATM    2  C   UNL     1       7.051  30.068  57.362  1.00  0.00     0.144 C 
HETATM    3  C   UNL     1       8.516  30.059  57.608  1.00  0.00     0.270 C 
HETATM    4  O   UNL     1       9.243  29.151  57.204  1.00  0.00    -0.267 OA
HETATM    5  N   UNL     1       9.007  31.124  58.340  1.00  0.00    -0.270 N 
HETATM    6  C   UNL     1      10.450  31.247  58.455  1.00  0.00     0.164 C 
HETATM    7  C   UNL     1       8.243  31.925  59.170  1.00  0.00     0.333 C 
HETATM    8  O   UNL     1       8.761  32.750  59.925  1.00  0.00    -0.246 OA
HETATM    9  N   UNL     1       6.871  31.751  59.112  1.00  0.00    -0.270 N 
HETATM   10  C   UNL     1       6.055  32.608  59.955  1.00  0.00     0.164 C 
HETATM   11  C   UNL     1       6.215  31.023  58.137  1.00  0.00     0.270 C 
HETATM   12  O   UNL     1       5.015  31.181  57.899  1.00  0.00    -0.267 OA
ENDROOT
BRANCH   1  13
HETATM   13  N   UNL     1       7.269  28.394  55.640  1.00  0.00    -0.375 N 
HETATM   14  H   UNL     1       7.238  28.643  54.646  1.00  0.00     0.161 HD
BRANCH  13  15
HETATM   15  C   UNL     1       7.446  26.962  55.890  1.00  0.00     0.126 C 
BRANCH  15  16
HETATM   16  C   UNL     1       6.285  26.130  55.326  1.00  0.00     0.061 C 
BRANCH  16  17
HETATM   17  C   UNL     1       6.725  24.851  54.668  1.00  0.00    -0.022 A 
HETATM   18  C   UNL     1       6.558  24.512  53.334  1.00  0.00     0.013 A 
HETATM   19  C   UNL     1       5.931  25.256  52.210  1.00  0.00     0.068 C 
HETATM   20  N   UNL     1       7.105  23.268  53.146  1.00  0.00    -0.358 N 
HETATM   21  H   UNL     1       7.125  22.770  52.264  1.00  0.00     0.166 HD
HETATM   22  C   UNL     1       7.606  22.770  54.329  1.00  0.00     0.058 A 
HETATM   23  C   UNL     1       7.370  23.738  55.304  1.00  0.00    -0.000 A 
HETATM   24  C   UNL     1       8.239  21.538  54.596  1.00  0.00     0.075 A 
HETATM   25  C   UNL     1       7.776  23.470  56.626  1.00  0.00     0.014 A 
HETATM   26  C   UNL     1       8.406  22.261  56.928  1.00  0.00     0.002 A 
HETATM   27  C   UNL     1       8.637  21.317  55.931  1.00  0.00     0.018 A 
BRANCH  24  28
HETATM   28  C   UNL     1       8.520  20.488  53.551  1.00  0.00     0.419 C 
HETATM   29  F   UNL     1       9.362  20.917  52.566  1.00  0.00    -0.166 F 
HETATM   30  F   UNL     1       9.102  19.374  54.074  1.00  0.00    -0.166 F 
HETATM   31  F   UNL     1       7.394  20.059  52.916  1.00  0.00    -0.166 F 
ENDBRANCH  24  28
ENDBRANCH  16  17
ENDBRANCH  15  16
ENDBRANCH  13  15
ENDBRANCH   1  13
BRANCH   1  32
HETATM   32  N   UNL     1       5.097  29.206  56.237  1.00  0.00    -0.342 N 
HETATM   33  H   UNL     1       4.642  28.417  56.712  1.00  0.00     0.167 HD
BRANCH  32  34
HETATM   34  C   UNL     1       4.452  29.393  54.984  1.00  0.00     0.033 A 
HETATM   35  C   UNL     1       4.065  28.345  54.141  1.00  0.00     0.029 A 
HETATM   36  C   UNL     1       3.461  28.600  52.906  1.00  0.00     0.002 A 
HETATM   37  C   UNL     1       3.246  29.912  52.490  1.00  0.00     0.000 A 
HETATM   38  C   UNL     1       3.640  30.968  53.306  1.00  0.00     0.002 A 
HETATM   39  C   UNL     1       4.243  30.709  54.541  1.00  0.00     0.029 A 
ENDBRANCH  32  34
ENDBRANCH   1  32
TORSDOF 7
ENDMDL
MODEL 5
REMARK VINA RESULT:     -10.1      5.357      9.044
REMARK  7 active torsions:
REMARK  status: ('A' for Active; 'I' for Inactive)
REMARK    1  A    between atoms: C_7  and  C_8 
REMARK    2  A    between atoms: C_8  and  C_9 
REMARK    3  A    between atoms: C_9  and  N_10 
REMARK    4  A    between atoms: N_10  and  C_11 
REMARK    5  A    between atoms: C_11  and  N_12 
REMARK    6  A    between atoms: N_12  and  C_13 
REMARK    7  A    between atoms: C_30  and  C_31 
ROOT
HETATM    1  C   UNL     1       6.292  29.052  56.827  1.00  0.00     0.123 C 
HETATM    2  C   UNL     1       5.828  28.206  55.855  1.00  0.00     0.144 C 
HETATM    3  C   UNL     1       4.675  28.582  54.997  1.00  0.00     0.270 C 
HETATM    4  O   UNL     1       3.936  29.528  55.269  1.00  0.00    -0.267 OA
HETATM    5  N   UNL     1       4.471  27.785  53.885  1.00  0.00    -0.270 N 
HETATM    6  C   UNL     1       3.468  28.217  52.928  1.00  0.00     0.164 C 
HETATM    7  C   UNL     1       4.960  26.499  53.741  1.00  0.00     0.333 C 
HETATM    8  O   UNL     1       4.609  25.776  52.806  1.00  0.00    -0.246 OA
HETATM    9  N   UNL     1       5.860  26.064  54.698  1.00  0.00    -0.270 N 
HETATM   10  C   UNL     1       6.406  24.727  54.540  1.00  0.00     0.164 C 
HETATM   11  C   UNL     1       6.472  26.885  55.628  1.00  0.00     0.270 C 
HETATM   12  O   UNL     1       7.509  26.557  56.209  1.00  0.00    -0.267 OA
ENDROOT
BRANCH   1  13
HETATM   13  N   UNL     1       5.759  30.337  56.983  1.00  0.00    -0.375 N 
HETATM   14  H   UNL     1       6.201  31.037  56.378  1.00  0.00     0.161 HD
BRANCH  13  15
HETATM   15  C   UNL     1       5.296  30.867  58.267  1.00  0.00     0.126 C 
BRANCH  15  16
HETATM   16  C   UNL     1       5.898  32.246  58.574  1.00  0.00     0.061 C 
BRANCH  16  17
HETATM   17  C   UNL     1       5.698  32.687  59.998  1.00  0.00    -0.022 A 
HETATM   18  C   UNL     1       4.573  33.311  60.516  1.00  0.00     0.013 A 
HETATM   19  C   UNL     1       3.298  33.715  59.868  1.00  0.00     0.068 C 
HETATM   20  N   UNL     1       4.796  33.536  61.851  1.00  0.00    -0.358 N 
HETATM   21  H   UNL     1       4.140  33.979  62.482  1.00  0.00     0.166 HD
HETATM   22  C   UNL     1       6.049  33.096  62.218  1.00  0.00     0.058 A 
HETATM   23  C   UNL     1       6.643  32.569  61.072  1.00  0.00    -0.000 A 
HETATM   24  C   UNL     1       6.690  33.136  63.475  1.00  0.00     0.075 A 
HETATM   25  C   UNL     1       7.952  32.059  61.169  1.00  0.00     0.014 A 
HETATM   26  C   UNL     1       8.617  32.082  62.397  1.00  0.00     0.002 A 
HETATM   27  C   UNL     1       7.995  32.606  63.527  1.00  0.00     0.018 A 
BRANCH  24  28
HETATM   28  C   UNL     1       6.057  33.683  64.729  1.00  0.00     0.419 C 
HETATM   29  F   UNL     1       4.886  33.063  65.058  1.00  0.00    -0.166 F 
HETATM   30  F   UNL     1       6.862  33.554  65.819  1.00  0.00    -0.166 F 
HETATM   31  F   UNL     1       5.761  35.010  64.637  1.00  0.00    -0.166 F 
ENDBRANCH  24  28
ENDBRANCH  16  17
ENDBRANCH  15  16
ENDBRANCH  13  15
ENDBRANCH   1  13
BRANCH   1  32
HETATM   32  N   UNL     1       7.355  28.686  57.661  1.00  0.00    -0.342 N 
HETATM   33  H   UNL     1       7.056  28.538  58.633  1.00  0.00     0.167 HD
BRANCH  32  34
HETATM   34  C   UNL     1       8.632  29.312  57.688  1.00  0.00     0.033 A 
HETATM   35  C   UNL     1       8.980  30.336  58.576  1.00  0.00     0.029 A 
HETATM   36  C   UNL     1      10.246  30.930  58.528  1.00  0.00     0.002 A 
HETATM   37  C   UNL     1      11.178  30.515  57.580  1.00  0.00     0.000 A 
HETATM   38  C   UNL     1      10.844  29.510  56.678  1.00  0.00     0.002 A 
HETATM   39  C   UNL     1       9.579  28.918  56.729  1.00  0.00     0.029 A 
ENDBRANCH  32  34
ENDBRANCH   1  32
TORSDOF 7
ENDMDL
MODEL 6
REMARK VINA RESULT:     -10.1      1.237      2.210
REMARK  7 active torsions:
REMARK  status: ('A' for Active; 'I' for Inactive)
REMARK    1  A    between atoms: C_7  and  C_8 
REMARK    2  A    between atoms: C_8  and  C_9 
REMARK    3  A    between atoms: C_9  and  N_10 
REMARK    4  A    between atoms: N_10  and  C_11 
REMARK    5  A    between atoms: C_11  and  N_12 
REMARK    6  A    between atoms: N_12  and  C_13 
REMARK    7  A    between atoms: C_30  and  C_31 
ROOT
HETATM    1  C   UNL     1       6.022  29.764  56.033  1.00  0.00     0.123 C 
HETATM    2  C   UNL     1       5.139  30.800  56.179  1.00  0.00     0.144 C 
HETATM    3  C   UNL     1       4.249  31.213  55.063  1.00  0.00     0.270 C 
HETATM    4  O   UNL     1       4.425  30.830  53.906  1.00  0.00    -0.267 OA
HETATM    5  N   UNL     1       3.221  32.074  55.404  1.00  0.00    -0.270 N 
HETATM    6  C   UNL     1       2.227  32.364  54.386  1.00  0.00     0.164 C 
HETATM    7  C   UNL     1       3.206  32.868  56.538  1.00  0.00     0.333 C 
HETATM    8  O   UNL     1       2.348  33.737  56.704  1.00  0.00    -0.246 OA
HETATM    9  N   UNL     1       4.201  32.638  57.471  1.00  0.00    -0.270 N 
HETATM   10  C   UNL     1       4.177  33.442  58.682  1.00  0.00     0.164 C 
HETATM   11  C   UNL     1       5.044  31.542  57.464  1.00  0.00     0.270 C 
HETATM   12  O   UNL     1       5.654  31.179  58.473  1.00  0.00    -0.267 OA
ENDROOT
BRANCH   1  13
HETATM   13  N   UNL     1       6.049  28.996  54.863  1.00  0.00    -0.375 N 
HETATM   14  H   UNL     1       5.193  29.074  54.305  1.00  0.00     0.161 HD
BRANCH  13  15
HETATM   15  C   UNL     1       6.701  27.688  54.774  1.00  0.00     0.126 C 
BRANCH  15  16
HETATM   16  C   UNL     1       5.711  26.533  54.986  1.00  0.00     0.061 C 
BRANCH  16  17
HETATM   17  C   UNL     1       6.220  25.206  54.495  1.00  0.00    -0.022 A 
HETATM   18  C   UNL     1       5.987  24.645  53.248  1.00  0.00     0.013 A 
HETATM   19  C   UNL     1       5.212  25.147  52.084  1.00  0.00     0.068 C 
HETATM   20  N   UNL     1       6.634  23.436  53.206  1.00  0.00    -0.358 N 
HETATM   21  H   UNL     1       6.635  22.807  52.411  1.00  0.00     0.166 HD
HETATM   22  C   UNL     1       7.266  23.176  54.402  1.00  0.00     0.058 A 
HETATM   23  C   UNL     1       7.013  24.266  55.235  1.00  0.00    -0.000 A 
HETATM   24  C   UNL     1       8.031  22.059  54.798  1.00  0.00     0.075 A 
HETATM   25  C   UNL     1       7.539  24.246  56.541  1.00  0.00     0.014 A 
HETATM   26  C   UNL     1       8.301  23.157  56.968  1.00  0.00     0.002 A 
HETATM   27  C   UNL     1       8.545  22.087  56.110  1.00  0.00     0.018 A 
BRANCH  24  28
HETATM   28  C   UNL     1       8.331  20.882  53.905  1.00  0.00     0.419 C 
HETATM   29  F   UNL     1       9.298  21.140  52.976  1.00  0.00    -0.166 F 
HETATM   30  F   UNL     1       8.769  19.797  54.601  1.00  0.00    -0.166 F 
HETATM   31  F   UNL     1       7.244  20.461  53.200  1.00  0.00    -0.166 F 
ENDBRANCH  24  28
ENDBRANCH  16  17
ENDBRANCH  15  16
ENDBRANCH  13  15
ENDBRANCH   1  13
BRANCH   1  32
HETATM   32  N   UNL     1       6.887  29.396  57.070  1.00  0.00    -0.342 N 
HETATM   33  H   UNL     1       6.470  29.545  57.998  1.00  0.00     0.167 HD
BRANCH  32  34
HETATM   34  C   UNL     1       8.265  29.736  57.153  1.00  0.00     0.033 A 
HETATM   35  C   UNL     1       9.226  29.332  56.219  1.00  0.00     0.029 A 
HETATM   36  C   UNL     1      10.573  29.677  56.378  1.00  0.00     0.002 A 
HETATM   37  C   UNL     1      10.978  30.421  57.483  1.00  0.00     0.000 A 
HETATM   38  C   UNL     1      10.040  30.817  58.431  1.00  0.00     0.002 A 
HETATM   39  C   UNL     1       8.695  30.471  58.269  1.00  0.00     0.029 A 
ENDBRANCH  32  34
ENDBRANCH   1  32
TORSDOF 7
ENDMDL
MODEL 7
REMARK VINA RESULT:     -10.1      1.700      4.107
REMARK  7 active torsions:
REMARK  status: ('A' for Active; 'I' for Inactive)
REMARK    1  A    between atoms: C_7  and  C_8 
REMARK    2  A    between atoms: C_8  and  C_9 
REMARK    3  A    between atoms: C_9  and  N_10 
REMARK    4  A    between atoms: N_10  and  C_11 
REMARK    5  A    between atoms: C_11  and  N_12 
REMARK    6  A    between atoms: N_12  and  C_13 
REMARK    7  A    between atoms: C_30  and  C_31 
ROOT
HETATM    1  C   UNL     1       5.138  29.566  55.944  1.00  0.00     0.123 C 
HETATM    2  C   UNL     1       5.379  30.320  57.061  1.00  0.00     0.144 C 
HETATM    3  C   UNL     1       6.715  30.322  57.712  1.00  0.00     0.270 C 
HETATM    4  O   UNL     1       7.576  29.482  57.445  1.00  0.00    -0.267 OA
HETATM    5  N   UNL     1       6.922  31.314  58.652  1.00  0.00    -0.270 N 
HETATM    6  C   UNL     1       8.266  31.462  59.184  1.00  0.00     0.164 C 
HETATM    7  C   UNL     1       5.912  32.000  59.304  1.00  0.00     0.333 C 
HETATM    8  O   UNL     1       6.152  32.752  60.251  1.00  0.00    -0.246 OA
HETATM    9  N   UNL     1       4.624  31.798  58.842  1.00  0.00    -0.270 N 
HETATM   10  C   UNL     1       3.558  32.538  59.497  1.00  0.00     0.164 C 
HETATM   11  C   UNL     1       4.308  31.163  57.655  1.00  0.00     0.270 C 
HETATM   12  O   UNL     1       3.217  31.315  57.102  1.00  0.00    -0.267 OA
ENDROOT
BRANCH   1  13
HETATM   13  N   UNL     1       6.164  28.848  55.320  1.00  0.00    -0.375 N 
HETATM   14  H   UNL     1       6.696  29.404  54.642  1.00  0.00     0.161 HD
BRANCH  13  15
HETATM   15  C   UNL     1       6.059  27.429  54.973  1.00  0.00     0.126 C 
BRANCH  15  16
HETATM   16  C   UNL     1       7.431  26.798  54.699  1.00  0.00     0.061 C 
BRANCH  16  17
HETATM   17  C   UNL     1       7.576  25.407  55.253  1.00  0.00    -0.022 A 
HETATM   18  C   UNL     1       7.635  25.057  56.594  1.00  0.00     0.013 A 
HETATM   19  C   UNL     1       7.579  25.891  57.822  1.00  0.00     0.068 C 
HETATM   20  N   UNL     1       7.761  23.693  56.665  1.00  0.00    -0.358 N 
HETATM   21  H   UNL     1       7.826  23.160  57.524  1.00  0.00     0.166 HD
HETATM   22  C   UNL     1       7.810  23.139  55.404  1.00  0.00     0.058 A 
HETATM   23  C   UNL     1       7.709  24.194  54.498  1.00  0.00    -0.000 A 
HETATM   24  C   UNL     1       7.943  21.790  55.012  1.00  0.00     0.075 A 
HETATM   25  C   UNL     1       7.750  23.901  53.121  1.00  0.00     0.014 A 
HETATM   26  C   UNL     1       7.881  22.576  52.696  1.00  0.00     0.002 A 
HETATM   27  C   UNL     1       7.970  21.543  53.625  1.00  0.00     0.018 A 
BRANCH  24  28
HETATM   28  C   UNL     1       8.034  20.636  55.977  1.00  0.00     0.419 C 
HETATM   29  F   UNL     1       8.715  20.940  57.121  1.00  0.00    -0.166 F 
HETATM   30  F   UNL     1       6.811  20.196  56.382  1.00  0.00    -0.166 F 
HETATM   31  F   UNL     1       8.665  19.551  55.448  1.00  0.00    -0.166 F 
ENDBRANCH  24  28
ENDBRANCH  16  17
ENDBRANCH  15  16
ENDBRANCH  13  15
ENDBRANCH   1  13
BRANCH   1  32
HETATM   32  N   UNL     1       3.871  29.535  55.350  1.00  0.00    -0.342 N 
HETATM   33  H   UNL     1       3.354  28.675  55.577  1.00  0.00     0.167 HD
BRANCH  32  34
HETATM   34  C   UNL     1       3.588  29.867  53.997  1.00  0.00     0.033 A 
HETATM   35  C   UNL     1       3.507  31.179  53.516  1.00  0.00     0.029 A 
HETATM   36  C   UNL     1       3.194  31.437  52.177  1.00  0.00     0.002 A 
HETATM   37  C   UNL     1       2.942  30.384  51.303  1.00  0.00     0.000 A 
HETATM   38  C   UNL     1       3.000  29.072  51.766  1.00  0.00     0.002 A 
HETATM   39  C   UNL     1       3.314  28.818  53.104  1.00  0.00     0.029 A 
ENDBRANCH  32  34
ENDBRANCH   1  32
TORSDOF 7
ENDMDL
MODEL 8
REMARK VINA RESULT:     -10.1      5.765      7.959
REMARK  7 active torsions:
REMARK  status: ('A' for Active; 'I' for Inactive)
REMARK    1  A    between atoms: C_7  and  C_8 
REMARK    2  A    between atoms: C_8  and  C_9 
REMARK    3  A    between atoms: C_9  and  N_10 
REMARK    4  A    between atoms: N_10  and  C_11 
REMARK    5  A    between atoms: C_11  and  N_12 
REMARK    6  A    between atoms: N_12  and  C_13 
REMARK    7  A    between atoms: C_30  and  C_31 
ROOT
HETATM    1  C   UNL     1       6.185  25.947  54.137  1.00  0.00     0.123 C 
HETATM    2  C   UNL     1       6.137  27.099  54.875  1.00  0.00     0.144 C 
HETATM    3  C   UNL     1       4.888  27.900  54.968  1.00  0.00     0.270 C 
HETATM    4  O   UNL     1       3.935  27.718  54.211  1.00  0.00    -0.267 OA
HETATM    5  N   UNL     1       4.875  28.877  55.947  1.00  0.00    -0.270 N 
HETATM    6  C   UNL     1       3.618  29.563  56.189  1.00  0.00     0.164 C 
HETATM    7  C   UNL     1       6.007  29.421  56.528  1.00  0.00     0.333 C 
HETATM    8  O   UNL     1       5.942  30.404  57.269  1.00  0.00    -0.246 OA
HETATM    9  N   UNL     1       7.212  28.809  56.234  1.00  0.00    -0.270 N 
HETATM   10  C   UNL     1       8.405  29.351  56.864  1.00  0.00     0.164 C 
HETATM   11  C   UNL     1       7.336  27.582  55.610  1.00  0.00     0.270 C 
HETATM   12  O   UNL     1       8.367  26.909  55.687  1.00  0.00    -0.267 OA
ENDROOT
BRANCH   1  13
HETATM   13  N   UNL     1       5.037  25.432  53.524  1.00  0.00    -0.375 N 
HETATM   14  H   UNL     1       4.509  24.789  54.124  1.00  0.00     0.161 HD
BRANCH  13  15
HETATM   15  C   UNL     1       4.961  25.112  52.097  1.00  0.00     0.126 C 
BRANCH  15  16
HETATM   16  C   UNL     1       5.754  26.107  51.238  1.00  0.00     0.061 C 
BRANCH  16  17
HETATM   17  C   UNL     1       4.888  26.971  50.362  1.00  0.00    -0.022 A 
HETATM   18  C   UNL     1       4.714  28.342  50.472  1.00  0.00     0.013 A 
HETATM   19  C   UNL     1       5.289  29.323  51.429  1.00  0.00     0.068 C 
HETATM   20  N   UNL     1       3.854  28.736  49.479  1.00  0.00    -0.358 N 
HETATM   21  H   UNL     1       3.548  29.689  49.321  1.00  0.00     0.166 HD
HETATM   22  C   UNL     1       3.440  27.655  48.733  1.00  0.00     0.058 A 
HETATM   23  C   UNL     1       4.064  26.531  49.273  1.00  0.00    -0.000 A 
HETATM   24  C   UNL     1       2.558  27.598  47.633  1.00  0.00     0.075 A 
HETATM   25  C   UNL     1       3.795  25.274  48.698  1.00  0.00     0.014 A 
HETATM   26  C   UNL     1       2.928  25.180  47.607  1.00  0.00     0.002 A 
HETATM   27  C   UNL     1       2.326  26.321  47.084  1.00  0.00     0.018 A 
BRANCH  24  28
HETATM   28  C   UNL     1       1.890  28.804  47.024  1.00  0.00     0.419 C 
HETATM   29  F   UNL     1       0.966  28.487  46.070  1.00  0.00    -0.166 F 
HETATM   30  F   UNL     1       1.224  29.553  47.946  1.00  0.00    -0.166 F 
HETATM   31  F   UNL     1       2.770  29.650  46.420  1.00  0.00    -0.166 F 
ENDBRANCH  24  28
ENDBRANCH  16  17
ENDBRANCH  15  16
ENDBRANCH  13  15
ENDBRANCH   1  13
BRANCH   1  32
HETATM   32  N   UNL     1       7.370  25.210  54.019  1.00  0.00    -0.342 N 
HETATM   33  H   UNL     1       7.913  25.475  53.187  1.00  0.00     0.167 HD
BRANCH  32  34
HETATM   34  C   UNL     1       7.482  23.802  54.182  1.00  0.00     0.033 A 
HETATM   35  C   UNL     1       7.384  23.149  55.416  1.00  0.00     0.029 A 
HETATM   36  C   UNL     1       7.536  21.762  55.509  1.00  0.00     0.002 A 
HETATM   37  C   UNL     1       7.802  21.009  54.369  1.00  0.00     0.000 A 
HETATM   38  C   UNL     1       7.921  21.642  53.135  1.00  0.00     0.002 A 
HETATM   39  C   UNL     1       7.768  23.029  53.045  1.00  0.00     0.029 A 
ENDBRANCH  32  34
ENDBRANCH   1  32
TORSDOF 7
ENDMDL
MODEL 9
REMARK VINA RESULT:     -10.0      3.133      4.838
REMARK  7 active torsions:
REMARK  status: ('A' for Active; 'I' for Inactive)
REMARK    1  A    between atoms: C_7  and  C_8 
REMARK    2  A    between atoms: C_8  and  C_9 
REMARK    3  A    between atoms: C_9  and  N_10 
REMARK    4  A    between atoms: N_10  and  C_11 
REMARK    5  A    between atoms: C_11  and  N_12 
REMARK    6  A    between atoms: N_12  and  C_13 
REMARK    7  A    between atoms: C_30  and  C_31 
ROOT
HETATM    1  C   UNL     1       6.413  31.376  59.203  1.00  0.00     0.123 C 
HETATM    2  C   UNL     1       6.329  32.239  60.263  1.00  0.00     0.144 C 
HETATM    3  C   UNL     1       5.435  33.425  60.219  1.00  0.00     0.270 C 
HETATM    4  O   UNL     1       4.931  33.827  59.170  1.00  0.00    -0.267 OA
HETATM    5  N   UNL     1       5.224  34.062  61.428  1.00  0.00    -0.270 N 
HETATM    6  C   UNL     1       4.224  35.114  61.464  1.00  0.00     0.164 C 
HETATM    7  C   UNL     1       6.055  33.950  62.529  1.00  0.00     0.333 C 
HETATM    8  O   UNL     1       5.912  34.669  63.520  1.00  0.00    -0.246 OA
HETATM    9  N   UNL     1       7.055  32.996  62.460  1.00  0.00    -0.270 N 
HETATM   10  C   UNL     1       7.914  32.847  63.623  1.00  0.00     0.164 C 
HETATM   11  C   UNL     1       7.130  32.009  61.495  1.00  0.00     0.270 C 
HETATM   12  O   UNL     1       7.794  30.983  61.659  1.00  0.00    -0.267 OA
ENDROOT
BRANCH   1  13
HETATM   13  N   UNL     1       5.590  31.526  58.081  1.00  0.00    -0.375 N 
HETATM   14  H   UNL     1       4.643  31.845  58.311  1.00  0.00     0.161 HD
BRANCH  13  15
HETATM   15  C   UNL     1       5.655  30.647  56.911  1.00  0.00     0.126 C 
BRANCH  15  16
HETATM   16  C   UNL     1       4.681  29.466  57.022  1.00  0.00     0.061 C 
BRANCH  16  17
HETATM   17  C   UNL     1       4.796  28.482  55.889  1.00  0.00    -0.022 A 
HETATM   18  C   UNL     1       4.302  28.645  54.604  1.00  0.00     0.013 A 
HETATM   19  C   UNL     1       3.550  29.768  53.984  1.00  0.00     0.068 C 
HETATM   20  N   UNL     1       4.627  27.523  53.885  1.00  0.00    -0.358 N 
HETATM   21  H   UNL     1       4.391  27.369  52.912  1.00  0.00     0.166 HD
HETATM   22  C   UNL     1       5.302  26.616  54.672  1.00  0.00     0.058 A 
HETATM   23  C   UNL     1       5.412  27.187  55.939  1.00  0.00    -0.000 A 
HETATM   24  C   UNL     1       5.811  25.340  54.350  1.00  0.00     0.075 A 
HETATM   25  C   UNL     1       6.055  26.450  56.953  1.00  0.00     0.014 A 
HETATM   26  C   UNL     1       6.571  25.184  56.671  1.00  0.00     0.002 A 
HETATM   27  C   UNL     1       6.455  24.643  55.393  1.00  0.00     0.018 A 
BRANCH  24  28
HETATM   28  C   UNL     1       5.719  24.715  52.981  1.00  0.00     0.419 C 
HETATM   29  F   UNL     1       4.434  24.503  52.569  1.00  0.00    -0.166 F 
HETATM   30  F   UNL     1       6.293  25.485  52.017  1.00  0.00    -0.166 F 
HETATM   31  F   UNL     1       6.336  23.503  52.909  1.00  0.00    -0.166 F 
ENDBRANCH  24  28
ENDBRANCH  16  17
ENDBRANCH  15  16
ENDBRANCH  13  15
ENDBRANCH   1  13
BRANCH   1  32
HETATM   32  N   UNL     1       7.281  30.277  59.228  1.00  0.00    -0.342 N 
HETATM   33  H   UNL     1       7.457  29.941  60.183  1.00  0.00     0.167 HD
BRANCH  32  34
HETATM   34  C   UNL     1       8.495  30.171  58.498  1.00  0.00     0.033 A 
HETATM   35  C   UNL     1       9.506  31.140  58.518  1.00  0.00     0.029 A 
HETATM   36  C   UNL     1      10.664  30.987  57.749  1.00  0.00     0.002 A 
HETATM   37  C   UNL     1      10.823  29.866  56.939  1.00  0.00     0.000 A 
HETATM   38  C   UNL     1       9.822  28.900  56.891  1.00  0.00     0.002 A 
HETATM   39  C   UNL     1       8.665  29.056  57.661  1.00  0.00     0.029 A 
ENDBRANCH  32  34
ENDBRANCH   1  32
TORSDOF 7
ENDMDL
MODEL 10
REMARK VINA RESULT:      -9.8      4.493      8.667
REMARK  7 active torsions:
REMARK  status: ('A' for Active; 'I' for Inactive)
REMARK    1  A    between atoms: C_7  and  C_8 
REMARK    2  A    between atoms: C_8  and  C_9 
REMARK    3  A    between atoms: C_9  and  N_10 
REMARK    4  A    between atoms: N_10  and  C_11 
REMARK    5  A    between atoms: C_11  and  N_12 
REMARK    6  A    between atoms: N_12  and  C_13 
REMARK    7  A    between atoms: C_30  and  C_31 
ROOT
HETATM    1  C   UNL     1       5.213  26.427  54.998  1.00  0.00     0.123 C 
HETATM    2  C   UNL     1       6.284  25.575  55.041  1.00  0.00     0.144 C 
HETATM    3  C   UNL     1       7.153  25.495  56.244  1.00  0.00     0.270 C 
HETATM    4  O   UNL     1       7.115  26.341  57.138  1.00  0.00    -0.267 OA
HETATM    5  N   UNL     1       8.023  24.421  56.284  1.00  0.00    -0.270 N 
HETATM    6  C   UNL     1       8.764  24.206  57.514  1.00  0.00     0.164 C 
HETATM    7  C   UNL     1       8.427  23.696  55.176  1.00  0.00     0.333 C 
HETATM    8  O   UNL     1       9.330  22.860  55.246  1.00  0.00    -0.246 OA
HETATM    9  N   UNL     1       7.768  23.958  53.987  1.00  0.00    -0.270 N 
HETATM   10  C   UNL     1       8.160  23.181  52.824  1.00  0.00     0.164 C 
HETATM   11  C   UNL     1       6.606  24.700  53.883  1.00  0.00     0.270 C 
HETATM   12  O   UNL     1       5.861  24.615  52.904  1.00  0.00    -0.267 OA
ENDROOT
BRANCH   1  13
HETATM   13  N   UNL     1       4.842  27.181  56.117  1.00  0.00    -0.375 N 
HETATM   14  H   UNL     1       4.456  26.614  56.880  1.00  0.00     0.161 HD
BRANCH  13  15
HETATM   15  C   UNL     1       4.273  28.527  56.029  1.00  0.00     0.126 C 
BRANCH  15  16
HETATM   16  C   UNL     1       5.347  29.593  55.766  1.00  0.00     0.061 C 
BRANCH  16  17
HETATM   17  C   UNL     1       5.923  30.190  57.020  1.00  0.00    -0.022 A 
HETATM   18  C   UNL     1       5.231  30.912  57.981  1.00  0.00     0.013 A 
HETATM   19  C   UNL     1       3.798  31.298  58.066  1.00  0.00     0.068 C 
HETATM   20  N   UNL     1       6.124  31.267  58.961  1.00  0.00    -0.358 N 
HETATM   21  H   UNL     1       5.893  31.802  59.790  1.00  0.00     0.166 HD
HETATM   22  C   UNL     1       7.389  30.817  58.656  1.00  0.00     0.058 A 
HETATM   23  C   UNL     1       7.295  30.148  57.437  1.00  0.00    -0.000 A 
HETATM   24  C   UNL     1       8.598  30.963  59.370  1.00  0.00     0.075 A 
HETATM   25  C   UNL     1       8.467  29.597  56.882  1.00  0.00     0.014 A 
HETATM   26  C   UNL     1       9.682  29.721  57.561  1.00  0.00     0.002 A 
HETATM   27  C   UNL     1       9.743  30.387  58.782  1.00  0.00     0.018 A 
BRANCH  24  28
HETATM   28  C   UNL     1       8.715  31.666  60.698  1.00  0.00     0.419 C 
HETATM   29  F   UNL     1       9.992  31.699  61.182  1.00  0.00    -0.166 F 
HETATM   30  F   UNL     1       8.310  32.964  60.638  1.00  0.00    -0.166 F 
HETATM   31  F   UNL     1       7.964  31.083  61.674  1.00  0.00    -0.166 F 
ENDBRANCH  24  28
ENDBRANCH  16  17
ENDBRANCH  15  16
ENDBRANCH  13  15
ENDBRANCH   1  13
BRANCH   1  32
HETATM   32  N   UNL     1       4.414  26.531  53.853  1.00  0.00    -0.342 N 
HETATM   33  H   UNL     1       4.391  25.657  53.313  1.00  0.00     0.167 HD
BRANCH  32  34
HETATM   34  C   UNL     1       4.433  27.613  52.931  1.00  0.00     0.033 A 
HETATM   35  C   UNL     1       5.586  28.060  52.276  1.00  0.00     0.029 A 
HETATM   36  C   UNL     1       5.540  29.152  51.403  1.00  0.00     0.002 A 
HETATM   37  C   UNL     1       4.339  29.821  51.183  1.00  0.00     0.000 A 
HETATM   38  C   UNL     1       3.185  29.402  51.837  1.00  0.00     0.002 A 
HETATM   39  C   UNL     1       3.234  28.310  52.709  1.00  0.00     0.029 A 
ENDBRANCH  32  34
ENDBRANCH   1  32
TORSDOF 7
ENDMDL
