MODEL 1
REMARK VINA RESULT:     -10.0      0.000      0.000
REMARK  6 active torsions:
REMARK  status: ('A' for Active; 'I' for Inactive)
REMARK    1  A    between atoms: C_3  and  N_4 
REMARK       I    between atoms: N_4  and  C_5 
REMARK    2  A    between atoms: C_5  and  C_6 
REMARK    3  A    between atoms: C_6  and  O_7 
REMARK    4  A    between atoms: O_7  and  C_8 
REMARK    5  A    between atoms: C_10  and  N_11 
REMARK       I    between atoms: N_11  and  C_12 
REMARK    6  A    between atoms: C_12  and  C_13 
ROOT
HETATM    1  C   UNL     1       6.594  27.477  56.462  1.00  0.00     0.278 C 
ENDROOT
BRANCH   1   2
HETATM    2  C   UNL     1       6.415  26.220  55.602  1.00  0.00     0.246 C 
HETATM    3  N   UNL     1       7.605  25.547  55.394  1.00  0.00    -0.323 N 
HETATM    4  H   UNL     1       8.325  25.832  56.053  1.00  0.00     0.169 HD
HETATM    5  O   UNL     1       5.302  25.898  55.202  1.00  0.00    -0.271 OA
BRANCH   3   6
HETATM    6  C   UNL     1       7.841  24.343  54.682  1.00  0.00     0.065 A 
HETATM    7  C   UNL     1       7.810  24.205  53.284  1.00  0.00    -0.031 A 
HETATM    8  C   UNL     1       7.661  25.333  52.301  1.00  0.00     0.050 C 
HETATM    9  C   UNL     1       7.974  22.922  52.731  1.00  0.00     0.035 A 
HETATM   10  C   UNL     1       8.240  21.836  53.550  1.00  0.00     0.031 A 
HETATM   11  N   UNL     1       8.364  21.961  54.885  1.00  0.00    -0.256 NA
HETATM   12  C   UNL     1       8.407  20.467  52.966  1.00  0.00     0.070 C 
HETATM   13  C   UNL     1       8.171  23.191  55.432  1.00  0.00     0.058 A 
HETATM   14  C   UNL     1       8.312  23.223  56.930  1.00  0.00     0.073 C 
ENDBRANCH   3   6
ENDBRANCH   1   2
BRANCH   1  15
HETATM   15  O   UNL     1       7.180  28.560  55.740  1.00  0.00    -0.342 OA
BRANCH  15  16
HETATM   16  C   UNL     1       8.281  29.140  56.306  1.00  0.00     0.071 A 
HETATM   17  C   UNL     1       8.154  29.487  57.655  1.00  0.00     0.066 A 
HETATM   18  C   UNL     1       9.226  30.049  58.351  1.00  0.00     0.037 A 
HETATM   19  C   UNL     1      10.440  30.239  57.678  1.00  0.00     0.029 A 
HETATM   20  C   UNL     1      10.577  29.870  56.337  1.00  0.00     0.005 A 
HETATM   21  C   UNL     1       9.500  29.313  55.650  1.00  0.00     0.037 A 
BRANCH  18  22
HETATM   22  N   UNL     1       9.173  30.440  59.705  1.00  0.00    -0.327 N 
HETATM   23  C   UNL     1       9.180  31.724  60.209  1.00  0.00     0.226 C 
HETATM   24  O   UNL     1       9.217  32.763  59.566  1.00  0.00    -0.273 OA
HETATM   25  H   UNL     1       9.113  29.690  60.376  1.00  0.00     0.169 HD
BRANCH  23  26
HETATM   26  C   UNL     1       9.124  31.841  61.700  1.00  0.00     0.078 A 
HETATM   27  C   UNL     1       7.856  32.336  62.359  1.00  0.00     0.015 A 
HETATM   28  C   UNL     1       8.354  30.950  62.644  1.00  0.00     0.015 A 
ENDBRANCH  23  26
ENDBRANCH  18  22
ENDBRANCH  15  16
ENDBRANCH   1  15
TORSDOF 6
ENDMDL
MODEL 2
REMARK VINA RESULT:      -9.6      0.843      1.801
REMARK  6 active torsions:
REMARK  status: ('A' for Active; 'I' for Inactive)
REMARK    1  A    between atoms: C_3  and  N_4 
REMARK       I    between atoms: N_4  and  C_5 
REMARK    2  A    between atoms: C_5  and  C_6 
REMARK    3  A    between atoms: C_6  and  O_7 
REMARK    4  A    between atoms: O_7  and  C_8 
REMARK    5  A    between atoms: C_10  and  N_11 
REMARK       I    between atoms: N_11  and  C_12 
REMARK    6  A    between atoms: C_12  and  C_13 
ROOT
HETATM    1  C   UNL     1       6.813  28.326  54.520  1.00  0.00     0.278 C 
ENDROOT
BRANCH   1   2
HETATM    2  C   UNL     1       6.490  26.829  54.580  1.00  0.00     0.246 C 
HETATM    3  N   UNL     1       7.590  26.038  54.296  1.00  0.00    -0.323 N 
HETATM    4  H   UNL     1       8.461  26.557  54.368  1.00  0.00     0.169 HD
HETATM    5  O   UNL     1       5.363  26.450  54.880  1.00  0.00    -0.271 OA
BRANCH   3   6
HETATM    6  C   UNL     1       7.695  24.624  54.278  1.00  0.00     0.065 A 
HETATM    7  C   UNL     1       7.746  23.797  55.413  1.00  0.00    -0.031 A 
HETATM    8  C   UNL     1       7.559  24.254  56.833  1.00  0.00     0.050 C 
HETATM    9  C   UNL     1       7.944  22.416  55.231  1.00  0.00     0.035 A 
HETATM   10  C   UNL     1       8.006  21.881  53.953  1.00  0.00     0.031 A 
HETATM   11  N   UNL     1       7.868  22.643  52.852  1.00  0.00    -0.256 NA
HETATM   12  C   UNL     1       8.226  20.412  53.755  1.00  0.00     0.070 C 
HETATM   13  C   UNL     1       7.713  23.983  53.018  1.00  0.00     0.058 A 
HETATM   14  C   UNL     1       7.587  24.749  51.728  1.00  0.00     0.073 C 
ENDBRANCH   3   6
ENDBRANCH   1   2
BRANCH   1  15
HETATM   15  O   UNL     1       6.750  28.956  55.799  1.00  0.00    -0.342 OA
BRANCH  15  16
HETATM   16  C   UNL     1       7.943  29.342  56.345  1.00  0.00     0.071 A 
HETATM   17  C   UNL     1       7.900  29.695  57.699  1.00  0.00     0.066 A 
HETATM   18  C   UNL     1       9.062  30.066  58.376  1.00  0.00     0.037 A 
HETATM   19  C   UNL     1      10.278  30.057  57.680  1.00  0.00     0.029 A 
HETATM   20  C   UNL     1      10.328  29.681  56.335  1.00  0.00     0.005 A 
HETATM   21  C   UNL     1       9.160  29.315  55.666  1.00  0.00     0.037 A 
BRANCH  18  22
HETATM   22  N   UNL     1       9.100  30.450  59.732  1.00  0.00    -0.327 N 
HETATM   23  C   UNL     1       9.171  31.731  60.240  1.00  0.00     0.226 C 
HETATM   24  O   UNL     1       9.199  32.772  59.600  1.00  0.00    -0.273 OA
HETATM   25  H   UNL     1       9.059  29.699  60.402  1.00  0.00     0.169 HD
BRANCH  23  26
HETATM   26  C   UNL     1       9.207  31.841  61.732  1.00  0.00     0.078 A 
HETATM   27  C   UNL     1       8.006  32.396  62.465  1.00  0.00     0.015 A 
HETATM   28  C   UNL     1       8.447  30.984  62.715  1.00  0.00     0.015 A 
ENDBRANCH  23  26
ENDBRANCH  18  22
ENDBRANCH  15  16
ENDBRANCH   1  15
TORSDOF 6
ENDMDL
MODEL 3
REMARK VINA RESULT:      -8.9      1.379      1.558
REMARK  6 active torsions:
REMARK  status: ('A' for Active; 'I' for Inactive)
REMARK    1  A    between atoms: C_3  and  N_4 
REMARK       I    between atoms: N_4  and  C_5 
REMARK    2  A    between atoms: C_5  and  C_6 
REMARK    3  A    between atoms: C_6  and  O_7 
REMARK    4  A    between atoms: O_7  and  C_8 
REMARK    5  A    between atoms: C_10  and  N_11 
REMARK       I    between atoms: N_11  and  C_12 
REMARK    6  A    between atoms: C_12  and  C_13 
ROOT
HETATM    1  C   UNL     1       6.737  28.397  55.114  1.00  0.00     0.278 C 
ENDROOT
BRANCH   1   2
HETATM    2  C   UNL     1       6.439  26.923  54.818  1.00  0.00     0.246 C 
HETATM    3  N   UNL     1       7.589  26.164  54.698  1.00  0.00    -0.323 N 
HETATM    4  H   UNL     1       8.400  26.636  55.089  1.00  0.00     0.169 HD
HETATM    5  O   UNL     1       5.280  26.530  54.736  1.00  0.00    -0.271 OA
BRANCH   3   6
HETATM    6  C   UNL     1       7.724  24.773  54.456  1.00  0.00     0.065 A 
HETATM    7  C   UNL     1       7.674  24.158  53.193  1.00  0.00    -0.031 A 
HETATM    8  C   UNL     1       7.609  24.879  51.876  1.00  0.00     0.050 C 
HETATM    9  C   UNL     1       7.732  22.754  53.126  1.00  0.00     0.035 A 
HETATM   10  C   UNL     1       7.915  22.005  54.279  1.00  0.00     0.031 A 
HETATM   11  N   UNL     1       8.056  22.579  55.488  1.00  0.00    -0.256 NA
HETATM   12  C   UNL     1       7.968  20.510  54.212  1.00  0.00     0.070 C 
HETATM   13  C   UNL     1       7.965  23.933  55.568  1.00  0.00     0.058 A 
HETATM   14  C   UNL     1       8.117  24.476  56.963  1.00  0.00     0.073 C 
ENDBRANCH   3   6
ENDBRANCH   1   2
BRANCH   1  15
HETATM   15  O   UNL     1       8.116  28.725  54.952  1.00  0.00    -0.342 OA
BRANCH  15  16
HETATM   16  C   UNL     1       8.715  29.364  56.002  1.00  0.00     0.071 A 
HETATM   17  C   UNL     1       7.867  29.713  57.059  1.00  0.00     0.066 A 
HETATM   18  C   UNL     1       8.372  30.332  58.203  1.00  0.00     0.037 A 
HETATM   19  C   UNL     1       9.748  30.580  58.283  1.00  0.00     0.029 A 
HETATM   20  C   UNL     1      10.601  30.211  57.240  1.00  0.00     0.005 A 
HETATM   21  C   UNL     1      10.087  29.595  56.099  1.00  0.00     0.037 A 
BRANCH  18  22
HETATM   22  N   UNL     1       7.582  30.729  59.303  1.00  0.00    -0.327 N 
HETATM   23  C   UNL     1       6.769  31.839  59.396  1.00  0.00     0.226 C 
HETATM   24  O   UNL     1       6.574  32.679  58.529  1.00  0.00    -0.273 OA
HETATM   25  H   UNL     1       7.611  30.120  60.105  1.00  0.00     0.169 HD
BRANCH  23  26
HETATM   26  C   UNL     1       6.050  32.016  60.696  1.00  0.00     0.078 A 
HETATM   27  C   UNL     1       6.710  32.801  61.809  1.00  0.00     0.015 A 
HETATM   28  C   UNL     1       5.423  33.290  61.210  1.00  0.00     0.015 A 
ENDBRANCH  23  26
ENDBRANCH  18  22
ENDBRANCH  15  16
ENDBRANCH   1  15
TORSDOF 6
ENDMDL
MODEL 4
REMARK VINA RESULT:      -8.9      1.515      2.531
REMARK  6 active torsions:
REMARK  status: ('A' for Active; 'I' for Inactive)
REMARK    1  A    between atoms: C_3  and  N_4 
REMARK       I    between atoms: N_4  and  C_5 
REMARK    2  A    between atoms: C_5  and  C_6 
REMARK    3  A    between atoms: C_6  and  O_7 
REMARK    4  A    between atoms: O_7  and  C_8 
REMARK    5  A    between atoms: C_10  and  N_11 
REMARK       I    between atoms: N_11  and  C_12 
REMARK    6  A    between atoms: C_12  and  C_13 
ROOT
HETATM    1  C   UNL     1       6.352  28.315  54.569  1.00  0.00     0.278 C 
ENDROOT
BRANCH   1   2
HETATM    2  C   UNL     1       6.198  26.791  54.611  1.00  0.00     0.246 C 
HETATM    3  N   UNL     1       7.382  26.130  54.339  1.00  0.00    -0.323 N 
HETATM    4  H   UNL     1       8.189  26.742  54.430  1.00  0.00     0.169 HD
HETATM    5  O   UNL     1       5.115  26.286  54.889  1.00  0.00    -0.271 OA
BRANCH   3   6
HETATM    6  C   UNL     1       7.645  24.737  54.311  1.00  0.00     0.065 A 
HETATM    7  C   UNL     1       7.791  23.913  55.440  1.00  0.00    -0.031 A 
HETATM    8  C   UNL     1       7.558  24.337  56.864  1.00  0.00     0.050 C 
HETATM    9  C   UNL     1       8.142  22.564  55.248  1.00  0.00     0.035 A 
HETATM   10  C   UNL     1       8.259  22.048  53.967  1.00  0.00     0.031 A 
HETATM   11  N   UNL     1       8.035  22.797  52.871  1.00  0.00    -0.256 NA
HETATM   12  C   UNL     1       8.641  20.614  53.758  1.00  0.00     0.070 C 
HETATM   13  C   UNL     1       7.731  24.110  53.046  1.00  0.00     0.058 A 
HETATM   14  C   UNL     1       7.517  24.866  51.762  1.00  0.00     0.073 C 
ENDBRANCH   3   6
ENDBRANCH   1   2
BRANCH   1  15
HETATM   15  O   UNL     1       7.245  28.807  55.567  1.00  0.00    -0.342 OA
BRANCH  15  16
HETATM   16  C   UNL     1       6.734  29.730  56.438  1.00  0.00     0.071 A 
HETATM   17  C   UNL     1       7.403  29.840  57.662  1.00  0.00     0.066 A 
HETATM   18  C   UNL     1       6.999  30.777  58.614  1.00  0.00     0.037 A 
HETATM   19  C   UNL     1       5.922  31.621  58.312  1.00  0.00     0.029 A 
HETATM   20  C   UNL     1       5.268  31.530  57.081  1.00  0.00     0.005 A 
HETATM   21  C   UNL     1       5.677  30.589  56.138  1.00  0.00     0.037 A 
BRANCH  18  22
HETATM   22  N   UNL     1       7.610  30.938  59.875  1.00  0.00    -0.327 N 
HETATM   23  C   UNL     1       8.621  31.813  60.212  1.00  0.00     0.226 C 
HETATM   24  O   UNL     1       9.165  32.623  59.476  1.00  0.00    -0.273 OA
HETATM   25  H   UNL     1       7.253  30.352  60.613  1.00  0.00     0.169 HD
BRANCH  23  26
HETATM   26  C   UNL     1       9.084  31.760  61.634  1.00  0.00     0.078 A 
HETATM   27  C   UNL     1       8.243  32.403  62.714  1.00  0.00     0.015 A 
HETATM   28  C   UNL     1       8.491  30.924  62.742  1.00  0.00     0.015 A 
ENDBRANCH  23  26
ENDBRANCH  18  22
ENDBRANCH  15  16
ENDBRANCH   1  15
TORSDOF 6
ENDMDL
MODEL 5
REMARK VINA RESULT:      -8.8      1.733      2.170
REMARK  6 active torsions:
REMARK  status: ('A' for Active; 'I' for Inactive)
REMARK    1  A    between atoms: C_3  and  N_4 
REMARK       I    between atoms: N_4  and  C_5 
REMARK    2  A    between atoms: C_5  and  C_6 
REMARK    3  A    between atoms: C_6  and  O_7 
REMARK    4  A    between atoms: O_7  and  C_8 
REMARK    5  A    between atoms: C_10  and  N_11 
REMARK       I    between atoms: N_11  and  C_12 
REMARK    6  A    between atoms: C_12  and  C_13 
ROOT
HETATM    1  C   UNL     1       6.880  27.963  55.824  1.00  0.00     0.278 C 
ENDROOT
BRANCH   1   2
HETATM    2  C   UNL     1       6.596  26.629  55.125  1.00  0.00     0.246 C 
HETATM    3  N   UNL     1       7.711  25.812  55.069  1.00  0.00    -0.323 N 
HETATM    4  H   UNL     1       8.431  26.105  55.724  1.00  0.00     0.169 HD
HETATM    5  O   UNL     1       5.471  26.375  54.710  1.00  0.00    -0.271 OA
BRANCH   3   6
HETATM    6  C   UNL     1       7.839  24.505  54.532  1.00  0.00     0.065 A 
HETATM    7  C   UNL     1       7.774  24.177  53.167  1.00  0.00    -0.031 A 
HETATM    8  C   UNL     1       7.699  25.165  52.036  1.00  0.00     0.050 C 
HETATM    9  C   UNL     1       7.827  22.821  52.798  1.00  0.00     0.035 A 
HETATM   10  C   UNL     1       8.020  21.841  53.761  1.00  0.00     0.031 A 
HETATM   11  N   UNL     1       8.174  22.141  55.064  1.00  0.00    -0.256 NA
HETATM   12  C   UNL     1       8.067  20.395  53.373  1.00  0.00     0.070 C 
HETATM   13  C   UNL     1       8.088  23.446  55.435  1.00  0.00     0.058 A 
HETATM   14  C   UNL     1       8.256  23.675  56.913  1.00  0.00     0.073 C 
ENDBRANCH   3   6
ENDBRANCH   1   2
BRANCH   1  15
HETATM   15  O   UNL     1       5.988  29.000  55.417  1.00  0.00    -0.342 OA
BRANCH  15  16
HETATM   16  C   UNL     1       5.851  30.055  56.276  1.00  0.00     0.071 A 
HETATM   17  C   UNL     1       6.582  29.963  57.466  1.00  0.00     0.066 A 
HETATM   18  C   UNL     1       6.555  30.998  58.402  1.00  0.00     0.037 A 
HETATM   19  C   UNL     1       5.799  32.143  58.117  1.00  0.00     0.029 A 
HETATM   20  C   UNL     1       5.089  32.249  56.918  1.00  0.00     0.005 A 
HETATM   21  C   UNL     1       5.119  31.207  55.991  1.00  0.00     0.037 A 
BRANCH  18  22
HETATM   22  N   UNL     1       7.249  30.974  59.629  1.00  0.00    -0.327 N 
HETATM   23  C   UNL     1       8.565  30.620  59.844  1.00  0.00     0.226 C 
HETATM   24  O   UNL     1       9.377  30.275  58.998  1.00  0.00    -0.273 OA
HETATM   25  H   UNL     1       6.719  31.261  60.437  1.00  0.00     0.169 HD
BRANCH  23  26
HETATM   26  C   UNL     1       9.035  30.679  61.263  1.00  0.00     0.078 A 
HETATM   27  C   UNL     1       9.241  32.025  61.922  1.00  0.00     0.015 A 
HETATM   28  C   UNL     1       8.213  31.076  62.466  1.00  0.00     0.015 A 
ENDBRANCH  23  26
ENDBRANCH  18  22
ENDBRANCH  15  16
ENDBRANCH   1  15
TORSDOF 6
ENDMDL
MODEL 6
REMARK VINA RESULT:      -8.5      4.082      7.694
REMARK  6 active torsions:
REMARK  status: ('A' for Active; 'I' for Inactive)
REMARK    1  A    between atoms: C_3  and  N_4 
REMARK       I    between atoms: N_4  and  C_5 
REMARK    2  A    between atoms: C_5  and  C_6 
REMARK    3  A    between atoms: C_6  and  O_7 
REMARK    4  A    between atoms: O_7  and  C_8 
REMARK    5  A    between atoms: C_10  and  N_11 
REMARK       I    between atoms: N_11  and  C_12 
REMARK    6  A    between atoms: C_12  and  C_13 
ROOT
HETATM    1  C   UNL     1       5.728  28.498  55.010  1.00  0.00     0.278 C 
ENDROOT
BRANCH   1   2
HETATM    2  C   UNL     1       4.917  28.335  53.720  1.00  0.00     0.246 C 
HETATM    3  N   UNL     1       5.701  27.955  52.645  1.00  0.00    -0.323 N 
HETATM    4  H   UNL     1       6.602  27.588  52.941  1.00  0.00     0.169 HD
HETATM    5  O   UNL     1       3.704  28.516  53.724  1.00  0.00    -0.271 OA
BRANCH   3   6
HETATM    6  C   UNL     1       5.317  27.683  51.308  1.00  0.00     0.065 A 
HETATM    7  C   UNL     1       5.229  28.634  50.277  1.00  0.00    -0.031 A 
HETATM    8  C   UNL     1       5.661  30.070  50.378  1.00  0.00     0.050 C 
HETATM    9  C   UNL     1       4.743  28.222  49.022  1.00  0.00     0.035 A 
HETATM   10  C   UNL     1       4.435  26.890  48.793  1.00  0.00     0.031 A 
HETATM   11  N   UNL     1       4.597  25.947  49.741  1.00  0.00    -0.256 NA
HETATM   12  C   UNL     1       3.908  26.450  47.462  1.00  0.00     0.070 C 
HETATM   13  C   UNL     1       5.032  26.340  50.967  1.00  0.00     0.058 A 
HETATM   14  C   UNL     1       5.162  25.217  51.960  1.00  0.00     0.073 C 
ENDBRANCH   3   6
ENDBRANCH   1   2
BRANCH   1  15
HETATM   15  O   UNL     1       5.385  27.532  56.003  1.00  0.00    -0.342 OA
BRANCH  15  16
HETATM   16  C   UNL     1       6.340  26.598  56.297  1.00  0.00     0.071 A 
HETATM   17  C   UNL     1       6.315  25.441  55.509  1.00  0.00     0.066 A 
HETATM   18  C   UNL     1       7.266  24.436  55.688  1.00  0.00     0.037 A 
HETATM   19  C   UNL     1       8.261  24.616  56.657  1.00  0.00     0.029 A 
HETATM   20  C   UNL     1       8.304  25.781  57.428  1.00  0.00     0.005 A 
HETATM   21  C   UNL     1       7.347  26.778  57.244  1.00  0.00     0.037 A 
BRANCH  18  22
HETATM   22  N   UNL     1       7.298  23.236  54.948  1.00  0.00    -0.327 N 
HETATM   23  C   UNL     1       7.787  23.049  53.672  1.00  0.00     0.226 C 
HETATM   24  O   UNL     1       8.299  23.895  52.952  1.00  0.00    -0.273 OA
HETATM   25  H   UNL     1       6.931  22.422  55.416  1.00  0.00     0.169 HD
BRANCH  23  26
HETATM   26  C   UNL     1       7.683  21.659  53.128  1.00  0.00     0.078 A 
HETATM   27  C   UNL     1       8.933  20.816  53.001  1.00  0.00     0.015 A 
HETATM   28  C   UNL     1       7.824  20.375  53.910  1.00  0.00     0.015 A 
ENDBRANCH  23  26
ENDBRANCH  18  22
ENDBRANCH  15  16
ENDBRANCH   1  15
TORSDOF 6
ENDMDL
MODEL 7
REMARK VINA RESULT:      -8.4      1.948      8.730
REMARK  6 active torsions:
REMARK  status: ('A' for Active; 'I' for Inactive)
REMARK    1  A    between atoms: C_3  and  N_4 
REMARK       I    between atoms: N_4  and  C_5 
REMARK    2  A    between atoms: C_5  and  C_6 
REMARK    3  A    between atoms: C_6  and  O_7 
REMARK    4  A    between atoms: O_7  and  C_8 
REMARK    5  A    between atoms: C_10  and  N_11 
REMARK       I    between atoms: N_11  and  C_12 
REMARK    6  A    between atoms: C_12  and  C_13 
ROOT
HETATM    1  C   UNL     1       6.060  28.349  55.047  1.00  0.00     0.278 C 
ENDROOT
BRANCH   1   2
HETATM    2  C   UNL     1       6.703  28.505  56.430  1.00  0.00     0.246 C 
HETATM    3  N   UNL     1       7.111  29.803  56.681  1.00  0.00    -0.323 N 
HETATM    4  H   UNL     1       6.679  30.468  56.045  1.00  0.00     0.169 HD
HETATM    5  O   UNL     1       6.787  27.543  57.185  1.00  0.00    -0.271 OA
BRANCH   3   6
HETATM    6  C   UNL     1       7.716  30.343  57.845  1.00  0.00     0.065 A 
HETATM    7  C   UNL     1       9.070  30.207  58.195  1.00  0.00    -0.031 A 
HETATM    8  C   UNL     1      10.135  29.589  57.333  1.00  0.00     0.050 C 
HETATM    9  C   UNL     1       9.500  30.723  59.431  1.00  0.00     0.035 A 
HETATM   10  C   UNL     1       8.618  31.420  60.243  1.00  0.00     0.031 A 
HETATM   11  N   UNL     1       7.339  31.639  59.885  1.00  0.00    -0.256 NA
HETATM   12  C   UNL     1       9.070  31.963  61.564  1.00  0.00     0.070 C 
HETATM   13  C   UNL     1       6.905  31.113  58.710  1.00  0.00     0.058 A 
HETATM   14  C   UNL     1       5.458  31.398  58.409  1.00  0.00     0.073 C 
ENDBRANCH   3   6
ENDBRANCH   1   2
BRANCH   1  15
HETATM   15  O   UNL     1       5.493  27.055  54.846  1.00  0.00    -0.342 OA
BRANCH  15  16
HETATM   16  C   UNL     1       6.177  26.216  54.010  1.00  0.00     0.071 A 
HETATM   17  C   UNL     1       6.624  25.022  54.587  1.00  0.00     0.066 A 
HETATM   18  C   UNL     1       7.298  24.069  53.822  1.00  0.00     0.037 A 
HETATM   19  C   UNL     1       7.499  24.320  52.458  1.00  0.00     0.029 A 
HETATM   20  C   UNL     1       7.031  25.500  51.874  1.00  0.00     0.005 A 
HETATM   21  C   UNL     1       6.363  26.448  52.647  1.00  0.00     0.037 A 
BRANCH  18  22
HETATM   22  N   UNL     1       7.794  22.851  54.332  1.00  0.00    -0.327 N 
HETATM   23  C   UNL     1       8.699  22.676  55.358  1.00  0.00     0.226 C 
HETATM   24  O   UNL     1       9.226  23.554  56.026  1.00  0.00    -0.273 OA
HETATM   25  H   UNL     1       7.432  22.015  53.899  1.00  0.00     0.169 HD
BRANCH  23  26
HETATM   26  C   UNL     1       9.054  21.259  55.682  1.00  0.00     0.078 A 
HETATM   27  C   UNL     1       8.019  20.363  56.326  1.00  0.00     0.015 A 
HETATM   28  C   UNL     1       8.562  20.023  54.969  1.00  0.00     0.015 A 
ENDBRANCH  23  26
ENDBRANCH  18  22
ENDBRANCH  15  16
ENDBRANCH   1  15
TORSDOF 6
ENDMDL
MODEL 8
REMARK VINA RESULT:      -8.3      2.568      4.065
REMARK  6 active torsions:
REMARK  status: ('A' for Active; 'I' for Inactive)
REMARK    1  A    between atoms: C_3  and  N_4 
REMARK       I    between atoms: N_4  and  C_5 
REMARK    2  A    between atoms: C_5  and  C_6 
REMARK    3  A    between atoms: C_6  and  O_7 
REMARK    4  A    between atoms: O_7  and  C_8 
REMARK    5  A    between atoms: C_10  and  N_11 
REMARK       I    between atoms: N_11  and  C_12 
REMARK    6  A    between atoms: C_12  and  C_13 
ROOT
HETATM    1  C   UNL     1       6.986  29.954  57.936  1.00  0.00     0.278 C 
ENDROOT
BRANCH   1   2
HETATM    2  C   UNL     1       7.718  29.014  56.971  1.00  0.00     0.246 C 
HETATM    3  N   UNL     1       6.937  27.939  56.584  1.00  0.00    -0.323 N 
HETATM    4  H   UNL     1       5.951  28.096  56.776  1.00  0.00     0.169 HD
HETATM    5  O   UNL     1       8.861  29.267  56.608  1.00  0.00    -0.271 OA
BRANCH   3   6
HETATM    6  C   UNL     1       7.247  26.881  55.692  1.00  0.00     0.065 A 
HETATM    7  C   UNL     1       7.161  26.947  54.291  1.00  0.00    -0.031 A 
HETATM    8  C   UNL     1       6.859  28.185  53.494  1.00  0.00     0.050 C 
HETATM    9  C   UNL     1       7.416  25.781  53.547  1.00  0.00     0.035 A 
HETATM   10  C   UNL     1       7.822  24.618  54.184  1.00  0.00     0.031 A 
HETATM   11  N   UNL     1       7.999  24.559  55.518  1.00  0.00    -0.256 NA
HETATM   12  C   UNL     1       8.086  23.372  53.396  1.00  0.00     0.070 C 
HETATM   13  C   UNL     1       7.720  25.670  56.249  1.00  0.00     0.058 A 
HETATM   14  C   UNL     1       7.931  25.498  57.729  1.00  0.00     0.073 C 
ENDBRANCH   3   6
ENDBRANCH   1   2
BRANCH   1  15
HETATM   15  O   UNL     1       7.774  31.084  58.309  1.00  0.00    -0.342 OA
BRANCH  15  16
HETATM   16  C   UNL     1       8.064  31.210  59.639  1.00  0.00     0.071 A 
HETATM   17  C   UNL     1       7.149  31.958  60.388  1.00  0.00     0.066 A 
HETATM   18  C   UNL     1       7.317  32.121  61.764  1.00  0.00     0.037 A 
HETATM   19  C   UNL     1       8.410  31.502  62.386  1.00  0.00     0.029 A 
HETATM   20  C   UNL     1       9.311  30.733  61.645  1.00  0.00     0.005 A 
HETATM   21  C   UNL     1       9.136  30.580  60.270  1.00  0.00     0.037 A 
BRANCH  18  22
HETATM   22  N   UNL     1       6.450  32.872  62.584  1.00  0.00    -0.327 N 
HETATM   23  C   UNL     1       5.347  32.419  63.277  1.00  0.00     0.226 C 
HETATM   24  O   UNL     1       4.928  31.271  63.316  1.00  0.00    -0.273 OA
HETATM   25  H   UNL     1       6.676  33.849  62.680  1.00  0.00     0.169 HD
BRANCH  23  26
HETATM   26  C   UNL     1       4.602  33.449  64.066  1.00  0.00     0.078 A 
HETATM   27  C   UNL     1       4.967  33.682  65.515  1.00  0.00     0.015 A 
HETATM   28  C   UNL     1       5.128  34.790  64.516  1.00  0.00     0.015 A 
ENDBRANCH  23  26
ENDBRANCH  18  22
ENDBRANCH  15  16
ENDBRANCH   1  15
TORSDOF 6
ENDMDL
MODEL 9
REMARK VINA RESULT:      -8.2      2.279      3.012
REMARK  6 active torsions:
REMARK  status: ('A' for Active; 'I' for Inactive)
REMARK    1  A    between atoms: C_3  and  N_4 
REMARK       I    between atoms: N_4  and  C_5 
REMARK    2  A    between atoms: C_5  and  C_6 
REMARK    3  A    between atoms: C_6  and  O_7 
REMARK    4  A    between atoms: O_7  and  C_8 
REMARK    5  A    between atoms: C_10  and  N_11 
REMARK       I    between atoms: N_11  and  C_12 
REMARK    6  A    between atoms: C_12  and  C_13 
ROOT
HETATM    1  C   UNL     1       6.732  28.290  54.967  1.00  0.00     0.278 C 
ENDROOT
BRANCH   1   2
HETATM    2  C   UNL     1       6.451  26.786  54.878  1.00  0.00     0.246 C 
HETATM    3  N   UNL     1       7.575  26.057  54.532  1.00  0.00    -0.323 N 
HETATM    4  H   UNL     1       8.431  26.589  54.664  1.00  0.00     0.169 HD
HETATM    5  O   UNL     1       5.333  26.349  55.126  1.00  0.00    -0.271 OA
BRANCH   3   6
HETATM    6  C   UNL     1       7.721  24.654  54.377  1.00  0.00     0.065 A 
HETATM    7  C   UNL     1       7.987  23.745  55.415  1.00  0.00    -0.031 A 
HETATM    8  C   UNL     1       8.025  24.082  56.880  1.00  0.00     0.050 C 
HETATM    9  C   UNL     1       8.195  22.393  55.087  1.00  0.00     0.035 A 
HETATM   10  C   UNL     1       8.059  21.962  53.776  1.00  0.00     0.031 A 
HETATM   11  N   UNL     1       7.716  22.800  52.781  1.00  0.00    -0.256 NA
HETATM   12  C   UNL     1       8.289  20.524  53.422  1.00  0.00     0.070 C 
HETATM   13  C   UNL     1       7.548  24.115  53.082  1.00  0.00     0.058 A 
HETATM   14  C   UNL     1       7.184  24.972  51.899  1.00  0.00     0.073 C 
ENDBRANCH   3   6
ENDBRANCH   1   2
BRANCH   1  15
HETATM   15  O   UNL     1       8.076  28.579  55.348  1.00  0.00    -0.342 OA
BRANCH  15  16
HETATM   16  C   UNL     1       8.240  29.297  56.500  1.00  0.00     0.071 A 
HETATM   17  C   UNL     1       7.066  29.806  57.065  1.00  0.00     0.066 A 
HETATM   18  C   UNL     1       7.102  30.520  58.264  1.00  0.00     0.037 A 
HETATM   19  C   UNL     1       8.337  30.700  58.902  1.00  0.00     0.029 A 
HETATM   20  C   UNL     1       9.508  30.172  58.353  1.00  0.00     0.005 A 
HETATM   21  C   UNL     1       9.461  29.463  57.153  1.00  0.00     0.037 A 
BRANCH  18  22
HETATM   22  N   UNL     1       5.968  31.079  58.888  1.00  0.00    -0.327 N 
HETATM   23  C   UNL     1       5.415  32.323  58.668  1.00  0.00     0.226 C 
HETATM   24  O   UNL     1       5.803  33.167  57.873  1.00  0.00    -0.273 OA
HETATM   25  H   UNL     1       5.506  30.491  59.564  1.00  0.00     0.169 HD
BRANCH  23  26
HETATM   26  C   UNL     1       4.207  32.656  59.487  1.00  0.00     0.078 A 
HETATM   27  C   UNL     1       4.318  33.688  60.587  1.00  0.00     0.015 A 
HETATM   28  C   UNL     1       3.403  33.932  59.424  1.00  0.00     0.015 A 
ENDBRANCH  23  26
ENDBRANCH  18  22
ENDBRANCH  15  16
ENDBRANCH   1  15
TORSDOF 6
ENDMDL
MODEL 10
REMARK VINA RESULT:      -8.1      3.140      4.317
REMARK  6 active torsions:
REMARK  status: ('A' for Active; 'I' for Inactive)
REMARK    1  A    between atoms: C_3  and  N_4 
REMARK       I    between atoms: N_4  and  C_5 
REMARK    2  A    between atoms: C_5  and  C_6 
REMARK    3  A    between atoms: C_6  and  O_7 
REMARK    4  A    between atoms: O_7  and  C_8 
REMARK    5  A    between atoms: C_10  and  N_11 
REMARK       I    between atoms: N_11  and  C_12 
REMARK    6  A    between atoms: C_12  and  C_13 
ROOT
HETATM    1  C   UNL     1       6.849  28.794  55.299  1.00  0.00     0.278 C 
ENDROOT
BRANCH   1   2
HETATM    2  C   UNL     1       6.889  28.053  53.958  1.00  0.00     0.246 C 
HETATM    3  N   UNL     1       5.702  28.165  53.256  1.00  0.00    -0.323 N 
HETATM    4  H   UNL     1       5.122  28.924  53.605  1.00  0.00     0.169 HD
HETATM    5  O   UNL     1       7.907  27.469  53.604  1.00  0.00    -0.271 OA
BRANCH   3   6
HETATM    6  C   UNL     1       5.364  27.646  51.980  1.00  0.00     0.065 A 
HETATM    7  C   UNL     1       5.119  26.293  51.690  1.00  0.00    -0.031 A 
HETATM    8  C   UNL     1       5.035  25.187  52.704  1.00  0.00     0.050 C 
HETATM    9  C   UNL     1       4.885  25.924  50.353  1.00  0.00     0.035 A 
HETATM   10  C   UNL     1       4.820  26.890  49.361  1.00  0.00     0.031 A 
HETATM   11  N   UNL     1       4.962  28.202  49.631  1.00  0.00    -0.256 NA
HETATM   12  C   UNL     1       4.580  26.500  47.934  1.00  0.00     0.070 C 
HETATM   13  C   UNL     1       5.224  28.565  50.914  1.00  0.00     0.058 A 
HETATM   14  C   UNL     1       5.385  30.049  51.109  1.00  0.00     0.073 C 
ENDBRANCH   3   6
ENDBRANCH   1   2
BRANCH   1  15
HETATM   15  O   UNL     1       7.802  28.293  56.235  1.00  0.00    -0.342 OA
BRANCH  15  16
HETATM   16  C   UNL     1       8.651  29.211  56.788  1.00  0.00     0.071 A 
HETATM   17  C   UNL     1       8.130  29.947  57.858  1.00  0.00     0.066 A 
HETATM   18  C   UNL     1       8.916  30.884  58.530  1.00  0.00     0.037 A 
HETATM   19  C   UNL     1      10.246  31.059  58.126  1.00  0.00     0.029 A 
HETATM   20  C   UNL     1      10.777  30.308  57.074  1.00  0.00     0.005 A 
HETATM   21  C   UNL     1       9.983  29.377  56.407  1.00  0.00     0.037 A 
BRANCH  18  22
HETATM   22  N   UNL     1       8.460  31.675  59.605  1.00  0.00    -0.327 N 
HETATM   23  C   UNL     1       8.628  31.437  60.953  1.00  0.00     0.226 C 
HETATM   24  O   UNL     1       9.221  30.497  61.463  1.00  0.00    -0.273 OA
HETATM   25  H   UNL     1       7.966  32.515  59.351  1.00  0.00     0.169 HD
BRANCH  23  26
HETATM   26  C   UNL     1       8.025  32.449  61.876  1.00  0.00     0.078 A 
HETATM   27  C   UNL     1       6.778  32.095  62.655  1.00  0.00     0.015 A 
HETATM   28  C   UNL     1       8.049  32.416  63.385  1.00  0.00     0.015 A 
ENDBRANCH  23  26
ENDBRANCH  18  22
ENDBRANCH  15  16
ENDBRANCH   1  15
TORSDOF 6
ENDMDL
