MODEL 1
REMARK VINA RESULT:      -9.6      0.000      0.000
REMARK  7 active torsions:
REMARK  status: ('A' for Active; 'I' for Inactive)
REMARK    1  A    between atoms: O_2  and  C_3 
REMARK    2  A    between atoms: C_3  and  C_4 
REMARK    3  A    between atoms: C_8  and  C_9 
REMARK    4  A    between atoms: C_9  and  N_10 
REMARK    5  A    between atoms: C_13  and  C_14 
REMARK    6  A    between atoms: C_14  and  N_15 
REMARK       I    between atoms: N_15  and  C_16 
REMARK       I    between atoms: C_16  and  N_17 
REMARK    7  A    between atoms: N_17  and  C_18 
ROOT
HETATM    1  N   UNL     1       9.504  30.486  58.498  1.00  0.00    -0.067 N 
HETATM    2  H   UNL     1       9.584  29.630  59.089  1.00  0.00     0.280 HD
HETATM    3  C   UNL     1       8.169  30.393  57.808  1.00  0.00     0.241 C 
HETATM    4  C   UNL     1       8.112  29.242  56.796  1.00  0.00     0.029 C 
HETATM    5  C   UNL     1       9.267  29.384  55.795  1.00  0.00     0.009 C 
HETATM    6  C   UNL     1      10.619  29.467  56.500  1.00  0.00     0.028 C 
HETATM    7  C   UNL     1      10.660  30.574  57.541  1.00  0.00     0.235 C 
ENDROOT
BRANCH   4   8
HETATM    8  C   UNL     1       8.094  27.815  57.382  1.00  0.00     0.130 C 
BRANCH   8   9
HETATM    9  N   UNL     1       7.364  26.848  56.591  1.00  0.00    -0.342 N 
HETATM   10  C   UNL     1       7.882  25.574  56.433  1.00  0.00     0.320 C 
HETATM   11  N   UNL     1       7.151  24.850  55.525  1.00  0.00    -0.309 N 
HETATM   12  O   UNL     1       8.844  25.203  57.099  1.00  0.00    -0.247 OA
HETATM   13  H   UNL     1       6.265  25.251  55.248  1.00  0.00     0.170 HD
HETATM   14  H   UNL     1       6.884  27.213  55.777  1.00  0.00     0.164 HD
BRANCH  11  15
HETATM   15  C   UNL     1       7.420  23.554  55.040  1.00  0.00     0.039 A 
HETATM   16  C   UNL     1       7.472  22.421  55.848  1.00  0.00     0.071 A 
HETATM   17  C   UNL     1       7.731  21.176  55.279  1.00  0.00     0.118 A 
HETATM   18  F   UNL     1       7.740  20.088  56.060  1.00  0.00    -0.206 F 
HETATM   19  C   UNL     1       7.960  21.038  53.915  1.00  0.00     0.042 A 
HETATM   20  C   UNL     1       7.932  22.168  53.104  1.00  0.00     0.005 A 
HETATM   21  C   UNL     1       7.662  23.421  53.665  1.00  0.00     0.030 A 
ENDBRANCH  11  15
ENDBRANCH   8   9
ENDBRANCH   4   8
BRANCH   1  22
HETATM   22  C   UNL     1       9.565  31.641  59.485  1.00  0.00     0.274 C 
BRANCH  22  23
HETATM   23  C   UNL     1       8.767  31.441  60.724  1.00  0.00    -0.015 A 
HETATM   24  C   UNL     1       8.986  30.489  61.703  1.00  0.00     0.097 A 
HETATM   25  N   UNL     1       8.023  30.626  62.669  1.00  0.00    -0.360 N 
HETATM   26  C   UNL     1       7.150  31.632  62.323  1.00  0.00     0.108 A 
HETATM   27  H   UNL     1       7.921  30.044  63.494  1.00  0.00     0.165 HD
HETATM   28  C   UNL     1       7.632  32.188  61.150  1.00  0.00     0.046 A 
BRANCH  26  29
HETATM   29  C   UNL     1       5.962  31.989  63.061  1.00  0.00     0.309 C 
HETATM   30  O   UNL     1       5.022  31.238  63.278  1.00  0.00    -0.258 OA
BRANCH  29  31
HETATM   31  O   UNL     1       6.068  33.272  63.504  1.00  0.00    -0.321 OA
HETATM   32  C   UNL     1       6.694  33.389  64.781  1.00  0.00     0.213 C 
ENDBRANCH  29  31
ENDBRANCH  26  29
ENDBRANCH  22  23
ENDBRANCH   1  22
TORSDOF 7
ENDMDL
MODEL 2
REMARK VINA RESULT:      -9.0      5.061      8.784
REMARK  7 active torsions:
REMARK  status: ('A' for Active; 'I' for Inactive)
REMARK    1  A    between atoms: O_2  and  C_3 
REMARK    2  A    between atoms: C_3  and  C_4 
REMARK    3  A    between atoms: C_8  and  C_9 
REMARK    4  A    between atoms: C_9  and  N_10 
REMARK    5  A    between atoms: C_13  and  C_14 
REMARK    6  A    between atoms: C_14  and  N_15 
REMARK       I    between atoms: N_15  and  C_16 
REMARK       I    between atoms: C_16  and  N_17 
REMARK    7  A    between atoms: N_17  and  C_18 
ROOT
HETATM    1  N   UNL     1       5.825  28.076  54.097  1.00  0.00    -0.067 N 
HETATM    2  H   UNL     1       5.759  27.048  54.262  1.00  0.00     0.280 HD
HETATM    3  C   UNL     1       6.835  28.593  55.087  1.00  0.00     0.241 C 
HETATM    4  C   UNL     1       6.343  28.484  56.535  1.00  0.00     0.029 C 
HETATM    5  C   UNL     1       4.991  29.197  56.671  1.00  0.00     0.009 C 
HETATM    6  C   UNL     1       3.968  28.661  55.671  1.00  0.00     0.028 C 
HETATM    7  C   UNL     1       4.474  28.719  54.239  1.00  0.00     0.235 C 
ENDROOT
BRANCH   4   8
HETATM    8  C   UNL     1       6.251  27.061  57.123  1.00  0.00     0.130 C 
BRANCH   8   9
HETATM    9  N   UNL     1       7.296  26.160  56.687  1.00  0.00    -0.342 N 
HETATM   10  C   UNL     1       6.971  25.088  55.875  1.00  0.00     0.320 C 
HETATM   11  N   UNL     1       8.045  24.253  55.699  1.00  0.00    -0.309 N 
HETATM   12  O   UNL     1       5.854  25.002  55.372  1.00  0.00    -0.247 OA
HETATM   13  H   UNL     1       8.939  24.608  56.012  1.00  0.00     0.170 HD
HETATM   14  H   UNL     1       8.028  25.971  57.363  1.00  0.00     0.164 HD
BRANCH  11  15
HETATM   15  C   UNL     1       8.077  23.022  55.014  1.00  0.00     0.039 A 
HETATM   16  C   UNL     1       8.288  21.795  55.638  1.00  0.00     0.071 A 
HETATM   17  C   UNL     1       8.287  20.625  54.882  1.00  0.00     0.118 A 
HETATM   18  F   UNL     1       8.453  19.447  55.498  1.00  0.00    -0.206 F 
HETATM   19  C   UNL     1       8.099  20.653  53.505  1.00  0.00     0.042 A 
HETATM   20  C   UNL     1       7.910  21.876  52.871  1.00  0.00     0.005 A 
HETATM   21  C   UNL     1       7.897  23.056  53.623  1.00  0.00     0.030 A 
ENDBRANCH  11  15
ENDBRANCH   8   9
ENDBRANCH   4   8
BRANCH   1  22
HETATM   22  C   UNL     1       6.306  28.204  52.661  1.00  0.00     0.274 C 
BRANCH  22  23
HETATM   23  C   UNL     1       5.601  27.324  51.689  1.00  0.00    -0.015 A 
HETATM   24  C   UNL     1       5.174  26.029  51.908  1.00  0.00     0.097 A 
HETATM   25  N   UNL     1       4.585  25.562  50.761  1.00  0.00    -0.360 N 
HETATM   26  C   UNL     1       4.651  26.521  49.777  1.00  0.00     0.108 A 
HETATM   27  H   UNL     1       4.203  24.632  50.624  1.00  0.00     0.165 HD
HETATM   28  C   UNL     1       5.223  27.642  50.354  1.00  0.00     0.046 A 
BRANCH  26  29
HETATM   29  C   UNL     1       4.212  26.341  48.414  1.00  0.00     0.309 C 
HETATM   30  O   UNL     1       4.943  26.376  47.434  1.00  0.00    -0.258 OA
BRANCH  29  31
HETATM   31  O   UNL     1       2.873  26.094  48.393  1.00  0.00    -0.321 OA
HETATM   32  C   UNL     1       2.074  27.272  48.293  1.00  0.00     0.213 C 
ENDBRANCH  29  31
ENDBRANCH  26  29
ENDBRANCH  22  23
ENDBRANCH   1  22
TORSDOF 7
ENDMDL
MODEL 3
REMARK VINA RESULT:      -8.9      3.070      4.327
REMARK  7 active torsions:
REMARK  status: ('A' for Active; 'I' for Inactive)
REMARK    1  A    between atoms: O_2  and  C_3 
REMARK    2  A    between atoms: C_3  and  C_4 
REMARK    3  A    between atoms: C_8  and  C_9 
REMARK    4  A    between atoms: C_9  and  N_10 
REMARK    5  A    between atoms: C_13  and  C_14 
REMARK    6  A    between atoms: C_14  and  N_15 
REMARK       I    between atoms: N_15  and  C_16 
REMARK       I    between atoms: C_16  and  N_17 
REMARK    7  A    between atoms: N_17  and  C_18 
ROOT
HETATM    1  N   UNL     1       5.219  29.004  55.704  1.00  0.00    -0.067 N 
HETATM    2  H   UNL     1       6.198  29.079  55.354  1.00  0.00     0.280 HD
HETATM    3  C   UNL     1       4.731  27.640  55.291  1.00  0.00     0.241 C 
HETATM    4  C   UNL     1       4.589  27.507  53.770  1.00  0.00     0.029 C 
HETATM    5  C   UNL     1       3.681  28.626  53.241  1.00  0.00     0.009 C 
HETATM    6  C   UNL     1       4.186  30.006  53.656  1.00  0.00     0.028 C 
HETATM    7  C   UNL     1       4.379  30.124  55.159  1.00  0.00     0.235 C 
ENDROOT
BRANCH   4   8
HETATM    8  C   UNL     1       5.901  27.466  52.960  1.00  0.00     0.130 C 
BRANCH   8   9
HETATM    9  N   UNL     1       6.909  26.572  53.489  1.00  0.00    -0.342 N 
HETATM   10  C   UNL     1       6.760  25.207  53.319  1.00  0.00     0.320 C 
HETATM   11  N   UNL     1       7.710  24.512  54.023  1.00  0.00    -0.309 N 
HETATM   12  O   UNL     1       5.893  24.761  52.573  1.00  0.00    -0.247 OA
HETATM   13  H   UNL     1       8.473  25.060  54.400  1.00  0.00     0.170 HD
HETATM   14  H   UNL     1       7.322  26.846  54.374  1.00  0.00     0.164 HD
BRANCH  11  15
HETATM   15  C   UNL     1       7.826  23.115  54.167  1.00  0.00     0.039 A 
HETATM   16  C   UNL     1       7.702  22.449  55.384  1.00  0.00     0.071 A 
HETATM   17  C   UNL     1       7.816  21.061  55.428  1.00  0.00     0.118 A 
HETATM   18  F   UNL     1       7.656  20.429  56.598  1.00  0.00    -0.206 F 
HETATM   19  C   UNL     1       8.072  20.319  54.282  1.00  0.00     0.042 A 
HETATM   20  C   UNL     1       8.219  20.978  53.066  1.00  0.00     0.005 A 
HETATM   21  C   UNL     1       8.095  22.370  53.009  1.00  0.00     0.030 A 
ENDBRANCH  11  15
ENDBRANCH   8   9
ENDBRANCH   4   8
BRANCH   1  22
HETATM   22  C   UNL     1       5.339  29.140  57.214  1.00  0.00     0.274 C 
BRANCH  22  23
HETATM   23  C   UNL     1       6.688  29.545  57.695  1.00  0.00    -0.015 A 
HETATM   24  C   UNL     1       7.812  28.744  57.770  1.00  0.00     0.097 A 
HETATM   25  N   UNL     1       8.845  29.486  58.280  1.00  0.00    -0.360 N 
HETATM   26  C   UNL     1       8.408  30.757  58.576  1.00  0.00     0.108 A 
HETATM   27  H   UNL     1       9.784  29.149  58.470  1.00  0.00     0.165 HD
HETATM   28  C   UNL     1       7.089  30.829  58.162  1.00  0.00     0.046 A 
BRANCH  26  29
HETATM   29  C   UNL     1       9.203  31.780  59.213  1.00  0.00     0.309 C 
HETATM   30  O   UNL     1      10.161  32.341  58.701  1.00  0.00    -0.258 OA
BRANCH  29  31
HETATM   31  O   UNL     1       8.703  32.043  60.452  1.00  0.00    -0.321 OA
HETATM   32  C   UNL     1       9.344  31.313  61.497  1.00  0.00     0.213 C 
ENDBRANCH  29  31
ENDBRANCH  26  29
ENDBRANCH  22  23
ENDBRANCH   1  22
TORSDOF 7
ENDMDL
MODEL 4
REMARK VINA RESULT:      -8.8      4.003      6.955
REMARK  7 active torsions:
REMARK  status: ('A' for Active; 'I' for Inactive)
REMARK    1  A    between atoms: O_2  and  C_3 
REMARK    2  A    between atoms: C_3  and  C_4 
REMARK    3  A    between atoms: C_8  and  C_9 
REMARK    4  A    between atoms: C_9  and  N_10 
REMARK    5  A    between atoms: C_13  and  C_14 
REMARK    6  A    between atoms: C_14  and  N_15 
REMARK       I    between atoms: N_15  and  C_16 
REMARK       I    between atoms: C_16  and  N_17 
REMARK    7  A    between atoms: N_17  and  C_18 
ROOT
HETATM    1  N   UNL     1       6.357  29.341  56.302  1.00  0.00    -0.067 N 
HETATM    2  H   UNL     1       5.853  28.530  56.722  1.00  0.00     0.280 HD
HETATM    3  C   UNL     1       7.659  28.797  55.776  1.00  0.00     0.241 C 
HETATM    4  C   UNL     1       8.592  28.326  56.898  1.00  0.00     0.029 C 
HETATM    5  C   UNL     1       8.811  29.471  57.895  1.00  0.00     0.009 C 
HETATM    6  C   UNL     1       7.488  30.012  58.433  1.00  0.00     0.028 C 
HETATM    7  C   UNL     1       6.540  30.430  57.322  1.00  0.00     0.235 C 
ENDROOT
BRANCH   4   8
HETATM    8  C   UNL     1       8.170  27.046  57.648  1.00  0.00     0.130 C 
BRANCH   8   9
HETATM    9  N   UNL     1       7.425  26.096  56.850  1.00  0.00    -0.342 N 
HETATM   10  C   UNL     1       8.010  24.887  56.516  1.00  0.00     0.320 C 
HETATM   11  N   UNL     1       7.234  24.189  55.625  1.00  0.00    -0.309 N 
HETATM   12  O   UNL     1       9.064  24.538  57.038  1.00  0.00    -0.247 OA
HETATM   13  H   UNL     1       6.296  24.541  55.482  1.00  0.00     0.170 HD
HETATM   14  H   UNL     1       6.832  26.493  56.129  1.00  0.00     0.164 HD
BRANCH  11  15
HETATM   15  C   UNL     1       7.537  22.967  54.991  1.00  0.00     0.039 A 
HETATM   16  C   UNL     1       7.765  21.777  55.677  1.00  0.00     0.071 A 
HETATM   17  C   UNL     1       8.045  20.611  54.966  1.00  0.00     0.118 A 
HETATM   18  F   UNL     1       8.224  19.465  55.635  1.00  0.00    -0.206 F 
HETATM   19  C   UNL     1       8.121  20.611  53.579  1.00  0.00     0.042 A 
HETATM   20  C   UNL     1       7.916  21.800  52.887  1.00  0.00     0.005 A 
HETATM   21  C   UNL     1       7.624  22.973  53.591  1.00  0.00     0.030 A 
ENDBRANCH  11  15
ENDBRANCH   8   9
ENDBRANCH   4   8
BRANCH   1  22
HETATM   22  C   UNL     1       5.442  29.827  55.189  1.00  0.00     0.274 C 
BRANCH  22  23
HETATM   23  C   UNL     1       4.892  28.749  54.323  1.00  0.00    -0.015 A 
HETATM   24  C   UNL     1       3.591  28.637  53.869  1.00  0.00     0.097 A 
HETATM   25  N   UNL     1       3.488  27.498  53.113  1.00  0.00    -0.360 N 
HETATM   26  C   UNL     1       4.695  26.838  53.092  1.00  0.00     0.108 A 
HETATM   27  H   UNL     1       2.642  27.150  52.674  1.00  0.00     0.165 HD
HETATM   28  C   UNL     1       5.593  27.631  53.786  1.00  0.00     0.046 A 
BRANCH  26  29
HETATM   29  C   UNL     1       4.928  25.557  52.469  1.00  0.00     0.309 C 
HETATM   30  O   UNL     1       4.472  24.494  52.865  1.00  0.00    -0.258 OA
BRANCH  29  31
HETATM   31  O   UNL     1       5.702  25.721  51.361  1.00  0.00    -0.321 OA
HETATM   32  C   UNL     1       4.999  26.267  50.245  1.00  0.00     0.213 C 
ENDBRANCH  29  31
ENDBRANCH  26  29
ENDBRANCH  22  23
ENDBRANCH   1  22
TORSDOF 7
ENDMDL
MODEL 5
REMARK VINA RESULT:      -8.8      3.864     10.756
REMARK  7 active torsions:
REMARK  status: ('A' for Active; 'I' for Inactive)
REMARK    1  A    between atoms: O_2  and  C_3 
REMARK    2  A    between atoms: C_3  and  C_4 
REMARK    3  A    between atoms: C_8  and  C_9 
REMARK    4  A    between atoms: C_9  and  N_10 
REMARK    5  A    between atoms: C_13  and  C_14 
REMARK    6  A    between atoms: C_14  and  N_15 
REMARK       I    between atoms: N_15  and  C_16 
REMARK       I    between atoms: C_16  and  N_17 
REMARK    7  A    between atoms: N_17  and  C_18 
ROOT
HETATM    1  N   UNL     1       6.708  27.718  56.478  1.00  0.00    -0.067 N 
HETATM    2  H   UNL     1       6.062  28.536  56.438  1.00  0.00     0.280 HD
HETATM    3  C   UNL     1       7.447  27.834  57.785  1.00  0.00     0.241 C 
HETATM    4  C   UNL     1       8.386  29.046  57.820  1.00  0.00     0.029 C 
HETATM    5  C   UNL     1       9.344  28.985  56.623  1.00  0.00     0.009 C 
HETATM    6  C   UNL     1       8.589  28.877  55.300  1.00  0.00     0.028 C 
HETATM    7  C   UNL     1       7.619  27.708  55.282  1.00  0.00     0.235 C 
ENDROOT
BRANCH   4   8
HETATM    8  C   UNL     1       7.714  30.433  57.887  1.00  0.00     0.130 C 
BRANCH   8   9
HETATM    9  N   UNL     1       6.909  30.656  59.069  1.00  0.00    -0.342 N 
HETATM   10  C   UNL     1       7.231  31.700  59.919  1.00  0.00     0.320 C 
HETATM   11  N   UNL     1       6.475  31.661  61.064  1.00  0.00    -0.309 N 
HETATM   12  O   UNL     1       8.063  32.540  59.590  1.00  0.00    -0.247 OA
HETATM   13  H   UNL     1       5.689  31.023  61.055  1.00  0.00     0.170 HD
HETATM   14  H   UNL     1       6.563  29.824  59.534  1.00  0.00     0.164 HD
BRANCH  11  15
HETATM   15  C   UNL     1       6.576  32.498  62.193  1.00  0.00     0.039 A 
HETATM   16  C   UNL     1       5.681  33.526  62.476  1.00  0.00     0.071 A 
HETATM   17  C   UNL     1       5.851  34.295  63.626  1.00  0.00     0.118 A 
HETATM   18  F   UNL     1       4.962  35.255  63.908  1.00  0.00    -0.206 F 
HETATM   19  C   UNL     1       6.914  34.072  64.494  1.00  0.00     0.042 A 
HETATM   20  C   UNL     1       7.825  33.062  64.206  1.00  0.00     0.005 A 
HETATM   21  C   UNL     1       7.656  32.277  63.061  1.00  0.00     0.030 A 
ENDBRANCH  11  15
ENDBRANCH   8   9
ENDBRANCH   4   8
BRANCH   1  22
HETATM   22  C   UNL     1       5.794  26.504  56.438  1.00  0.00     0.274 C 
BRANCH  22  23
HETATM   23  C   UNL     1       6.228  25.431  55.503  1.00  0.00    -0.015 A 
HETATM   24  C   UNL     1       5.667  25.128  54.277  1.00  0.00     0.097 A 
HETATM   25  N   UNL     1       6.344  24.066  53.736  1.00  0.00    -0.360 N 
HETATM   26  C   UNL     1       7.322  23.642  54.606  1.00  0.00     0.108 A 
HETATM   27  H   UNL     1       6.132  23.612  52.853  1.00  0.00     0.165 HD
HETATM   28  C   UNL     1       7.304  24.516  55.679  1.00  0.00     0.046 A 
BRANCH  26  29
HETATM   29  C   UNL     1       8.167  22.489  54.404  1.00  0.00     0.309 C 
HETATM   30  O   UNL     1       8.891  21.995  55.257  1.00  0.00    -0.258 OA
BRANCH  29  31
HETATM   31  O   UNL     1       8.008  22.021  53.135  1.00  0.00    -0.321 OA
HETATM   32  C   UNL     1       7.871  20.603  53.059  1.00  0.00     0.213 C 
ENDBRANCH  29  31
ENDBRANCH  26  29
ENDBRANCH  22  23
ENDBRANCH   1  22
TORSDOF 7
ENDMDL
MODEL 6
REMARK VINA RESULT:      -8.3      3.768     10.451
REMARK  7 active torsions:
REMARK  status: ('A' for Active; 'I' for Inactive)
REMARK    1  A    between atoms: O_2  and  C_3 
REMARK    2  A    between atoms: C_3  and  C_4 
REMARK    3  A    between atoms: C_8  and  C_9 
REMARK    4  A    between atoms: C_9  and  N_10 
REMARK    5  A    between atoms: C_13  and  C_14 
REMARK    6  A    between atoms: C_14  and  N_15 
REMARK       I    between atoms: N_15  and  C_16 
REMARK       I    between atoms: C_16  and  N_17 
REMARK    7  A    between atoms: N_17  and  C_18 
ROOT
HETATM    1  N   UNL     1       6.403  26.968  55.927  1.00  0.00    -0.067 N 
HETATM    2  H   UNL     1       5.569  27.548  55.695  1.00  0.00     0.280 HD
HETATM    3  C   UNL     1       6.912  27.477  57.250  1.00  0.00     0.241 C 
HETATM    4  C   UNL     1       7.471  28.902  57.152  1.00  0.00     0.029 C 
HETATM    5  C   UNL     1       8.552  28.953  56.064  1.00  0.00     0.009 C 
HETATM    6  C   UNL     1       8.028  28.445  54.723  1.00  0.00     0.028 C 
HETATM    7  C   UNL     1       7.425  27.054  54.828  1.00  0.00     0.235 C 
ENDROOT
BRANCH   4   8
HETATM    8  C   UNL     1       6.441  30.028  56.926  1.00  0.00     0.130 C 
BRANCH   8   9
HETATM    9  N   UNL     1       5.763  30.475  58.125  1.00  0.00    -0.342 N 
HETATM   10  C   UNL     1       6.359  31.439  58.918  1.00  0.00     0.320 C 
HETATM   11  N   UNL     1       5.664  31.619  60.088  1.00  0.00    -0.309 N 
HETATM   12  O   UNL     1       7.350  32.047  58.526  1.00  0.00    -0.247 OA
HETATM   13  H   UNL     1       4.751  31.186  60.133  1.00  0.00     0.170 HD
HETATM   14  H   UNL     1       5.251  29.764  58.635  1.00  0.00     0.164 HD
BRANCH  11  15
HETATM   15  C   UNL     1       6.008  32.444  61.177  1.00  0.00     0.039 A 
HETATM   16  C   UNL     1       7.018  32.142  62.087  1.00  0.00     0.071 A 
HETATM   17  C   UNL     1       7.300  33.027  63.126  1.00  0.00     0.118 A 
HETATM   18  F   UNL     1       8.299  32.744  63.973  1.00  0.00    -0.206 F 
HETATM   19  C   UNL     1       6.580  34.204  63.290  1.00  0.00     0.042 A 
HETATM   20  C   UNL     1       5.555  34.502  62.399  1.00  0.00     0.005 A 
HETATM   21  C   UNL     1       5.271  33.626  61.346  1.00  0.00     0.030 A 
ENDBRANCH  11  15
ENDBRANCH   8   9
ENDBRANCH   4   8
BRANCH   1  22
HETATM   22  C   UNL     1       5.869  25.548  56.022  1.00  0.00     0.274 C 
BRANCH  22  23
HETATM   23  C   UNL     1       6.917  24.497  56.132  1.00  0.00    -0.015 A 
HETATM   24  C   UNL     1       7.911  24.418  57.090  1.00  0.00     0.097 A 
HETATM   25  N   UNL     1       8.680  23.314  56.832  1.00  0.00    -0.360 N 
HETATM   26  C   UNL     1       8.229  22.682  55.697  1.00  0.00     0.108 A 
HETATM   27  H   UNL     1       9.498  23.022  57.358  1.00  0.00     0.165 HD
HETATM   28  C   UNL     1       7.099  23.367  55.284  1.00  0.00     0.046 A 
BRANCH  26  29
HETATM   29  C   UNL     1       8.857  21.538  55.079  1.00  0.00     0.309 C 
HETATM   30  O   UNL     1       9.265  20.555  55.681  1.00  0.00    -0.258 OA
BRANCH  29  31
HETATM   31  O   UNL     1       8.894  21.710  53.729  1.00  0.00    -0.321 OA
HETATM   32  C   UNL     1       8.359  20.608  52.995  1.00  0.00     0.213 C 
ENDBRANCH  29  31
ENDBRANCH  26  29
ENDBRANCH  22  23
ENDBRANCH   1  22
TORSDOF 7
ENDMDL
MODEL 7
REMARK VINA RESULT:      -8.3      5.741      9.353
REMARK  7 active torsions:
REMARK  status: ('A' for Active; 'I' for Inactive)
REMARK    1  A    between atoms: O_2  and  C_3 
REMARK    2  A    between atoms: C_3  and  C_4 
REMARK    3  A    between atoms: C_8  and  C_9 
REMARK    4  A    between atoms: C_9  and  N_10 
REMARK    5  A    between atoms: C_13  and  C_14 
REMARK    6  A    between atoms: C_14  and  N_15 
REMARK       I    between atoms: N_15  and  C_16 
REMARK       I    between atoms: C_16  and  N_17 
REMARK    7  A    between atoms: N_17  and  C_18 
ROOT
HETATM    1  N   UNL     1       5.552  27.074  52.814  1.00  0.00    -0.067 N 
HETATM    2  H   UNL     1       5.547  26.200  53.382  1.00  0.00     0.280 HD
HETATM    3  C   UNL     1       6.726  27.881  53.301  1.00  0.00     0.241 C 
HETATM    4  C   UNL     1       6.537  28.379  54.739  1.00  0.00     0.029 C 
HETATM    5  C   UNL     1       5.221  29.162  54.840  1.00  0.00     0.009 C 
HETATM    6  C   UNL     1       4.033  28.336  54.353  1.00  0.00     0.028 C 
HETATM    7  C   UNL     1       4.241  27.796  52.948  1.00  0.00     0.235 C 
ENDROOT
BRANCH   4   8
HETATM    8  C   UNL     1       6.600  27.309  55.849  1.00  0.00     0.130 C 
BRANCH   8   9
HETATM    9  N   UNL     1       7.635  26.313  55.668  1.00  0.00    -0.342 N 
HETATM   10  C   UNL     1       7.281  25.034  55.275  1.00  0.00     0.320 C 
HETATM   11  N   UNL     1       8.359  24.186  55.316  1.00  0.00    -0.309 N 
HETATM   12  O   UNL     1       6.138  24.788  54.902  1.00  0.00    -0.247 OA
HETATM   13  H   UNL     1       9.264  24.622  55.436  1.00  0.00     0.170 HD
HETATM   14  H   UNL     1       8.410  26.356  56.320  1.00  0.00     0.164 HD
BRANCH  11  15
HETATM   15  C   UNL     1       8.373  22.797  55.074  1.00  0.00     0.039 A 
HETATM   16  C   UNL     1       8.345  22.235  53.800  1.00  0.00     0.071 A 
HETATM   17  C   UNL     1       8.376  20.849  53.655  1.00  0.00     0.118 A 
HETATM   18  F   UNL     1       8.388  20.320  52.425  1.00  0.00    -0.206 F 
HETATM   19  C   UNL     1       8.415  20.007  54.760  1.00  0.00     0.042 A 
HETATM   20  C   UNL     1       8.420  20.560  56.036  1.00  0.00     0.005 A 
HETATM   21  C   UNL     1       8.401  21.950  56.192  1.00  0.00     0.030 A 
ENDBRANCH  11  15
ENDBRANCH   8   9
ENDBRANCH   4   8
BRANCH   1  22
HETATM   22  C   UNL     1       5.733  26.599  51.380  1.00  0.00     0.274 C 
BRANCH  22  23
HETATM   23  C   UNL     1       5.147  27.500  50.350  1.00  0.00    -0.015 A 
HETATM   24  C   UNL     1       5.618  28.745  49.978  1.00  0.00     0.097 A 
HETATM   25  N   UNL     1       4.790  29.254  49.011  1.00  0.00    -0.360 N 
HETATM   26  C   UNL     1       3.760  28.376  48.766  1.00  0.00     0.108 A 
HETATM   27  H   UNL     1       4.878  30.165  48.572  1.00  0.00     0.165 HD
HETATM   28  C   UNL     1       3.999  27.257  49.543  1.00  0.00     0.046 A 
BRANCH  26  29
HETATM   29  C   UNL     1       2.652  28.627  47.875  1.00  0.00     0.309 C 
HETATM   30  O   UNL     1       2.741  29.177  46.786  1.00  0.00    -0.258 OA
BRANCH  29  31
HETATM   31  O   UNL     1       1.507  28.130  48.418  1.00  0.00    -0.321 OA
HETATM   32  C   UNL     1       0.827  27.201  47.574  1.00  0.00     0.213 C 
ENDBRANCH  29  31
ENDBRANCH  26  29
ENDBRANCH  22  23
ENDBRANCH   1  22
TORSDOF 7
ENDMDL
MODEL 8
REMARK VINA RESULT:      -8.2      1.975      2.807
REMARK  7 active torsions:
REMARK  status: ('A' for Active; 'I' for Inactive)
REMARK    1  A    between atoms: O_2  and  C_3 
REMARK    2  A    between atoms: C_3  and  C_4 
REMARK    3  A    between atoms: C_8  and  C_9 
REMARK    4  A    between atoms: C_9  and  N_10 
REMARK    5  A    between atoms: C_13  and  C_14 
REMARK    6  A    between atoms: C_14  and  N_15 
REMARK       I    between atoms: N_15  and  C_16 
REMARK       I    between atoms: C_16  and  N_17 
REMARK    7  A    between atoms: N_17  and  C_18 
ROOT
HETATM    1  N   UNL     1       6.227  31.390  59.327  1.00  0.00    -0.067 N 
HETATM    2  H   UNL     1       5.960  30.481  59.761  1.00  0.00     0.280 HD
HETATM    3  C   UNL     1       6.541  31.088  57.885  1.00  0.00     0.241 C 
HETATM    4  C   UNL     1       7.798  30.222  57.730  1.00  0.00     0.029 C 
HETATM    5  C   UNL     1       8.976  30.900  58.443  1.00  0.00     0.009 C 
HETATM    6  C   UNL     1       8.656  31.196  59.907  1.00  0.00     0.028 C 
HETATM    7  C   UNL     1       7.381  32.008  60.067  1.00  0.00     0.235 C 
ENDROOT
BRANCH   4   8
HETATM    8  C   UNL     1       7.680  28.753  58.185  1.00  0.00     0.130 C 
BRANCH   8   9
HETATM    9  N   UNL     1       6.988  27.887  57.254  1.00  0.00    -0.342 N 
HETATM   10  C   UNL     1       7.579  26.696  56.873  1.00  0.00     0.320 C 
HETATM   11  N   UNL     1       6.868  26.088  55.868  1.00  0.00    -0.309 N 
HETATM   12  O   UNL     1       8.580  26.282  57.449  1.00  0.00    -0.247 OA
HETATM   13  H   UNL     1       5.952  26.471  55.678  1.00  0.00     0.170 HD
HETATM   14  H   UNL     1       6.463  28.353  56.522  1.00  0.00     0.164 HD
BRANCH  11  15
HETATM   15  C   UNL     1       7.203  24.914  55.165  1.00  0.00     0.039 A 
HETATM   16  C   UNL     1       7.189  23.642  55.733  1.00  0.00     0.071 A 
HETATM   17  C   UNL     1       7.522  22.534  54.956  1.00  0.00     0.118 A 
HETATM   18  F   UNL     1       7.467  21.312  55.502  1.00  0.00    -0.206 F 
HETATM   19  C   UNL     1       7.888  22.669  53.622  1.00  0.00     0.042 A 
HETATM   20  C   UNL     1       7.926  23.937  53.054  1.00  0.00     0.005 A 
HETATM   21  C   UNL     1       7.584  25.055  53.822  1.00  0.00     0.030 A 
ENDBRANCH  11  15
ENDBRANCH   8   9
ENDBRANCH   4   8
BRANCH   1  22
HETATM   22  C   UNL     1       4.993  32.266  59.477  1.00  0.00     0.274 C 
BRANCH  22  23
HETATM   23  C   UNL     1       4.930  33.036  60.749  1.00  0.00    -0.015 A 
HETATM   24  C   UNL     1       4.686  34.390  60.882  1.00  0.00     0.097 A 
HETATM   25  N   UNL     1       4.728  34.713  62.214  1.00  0.00    -0.360 N 
HETATM   26  C   UNL     1       5.031  33.596  62.958  1.00  0.00     0.108 A 
HETATM   27  H   UNL     1       4.609  35.642  62.605  1.00  0.00     0.165 HD
HETATM   28  C   UNL     1       5.100  32.536  62.071  1.00  0.00     0.046 A 
BRANCH  26  29
HETATM   29  C   UNL     1       5.246  33.585  64.385  1.00  0.00     0.309 C 
HETATM   30  O   UNL     1       4.475  33.107  65.205  1.00  0.00    -0.258 OA
BRANCH  29  31
HETATM   31  O   UNL     1       6.449  34.155  64.671  1.00  0.00    -0.321 OA
HETATM   32  C   UNL     1       7.564  33.297  64.429  1.00  0.00     0.213 C 
ENDBRANCH  29  31
ENDBRANCH  26  29
ENDBRANCH  22  23
ENDBRANCH   1  22
TORSDOF 7
ENDMDL
MODEL 9
REMARK VINA RESULT:      -8.2      4.868      8.893
REMARK  7 active torsions:
REMARK  status: ('A' for Active; 'I' for Inactive)
REMARK    1  A    between atoms: O_2  and  C_3 
REMARK    2  A    between atoms: C_3  and  C_4 
REMARK    3  A    between atoms: C_8  and  C_9 
REMARK    4  A    between atoms: C_9  and  N_10 
REMARK    5  A    between atoms: C_13  and  C_14 
REMARK    6  A    between atoms: C_14  and  N_15 
REMARK       I    between atoms: N_15  and  C_16 
REMARK       I    between atoms: C_16  and  N_17 
REMARK    7  A    between atoms: N_17  and  C_18 
ROOT
HETATM    1  N   UNL     1       6.528  26.593  56.374  1.00  0.00    -0.067 N 
HETATM    2  H   UNL     1       6.703  26.923  55.401  1.00  0.00     0.280 HD
HETATM    3  C   UNL     1       5.619  27.614  57.005  1.00  0.00     0.241 C 
HETATM    4  C   UNL     1       6.308  28.971  57.196  1.00  0.00     0.029 C 
HETATM    5  C   UNL     1       7.601  28.779  58.001  1.00  0.00     0.009 C 
HETATM    6  C   UNL     1       8.523  27.750  57.351  1.00  0.00     0.028 C 
HETATM    7  C   UNL     1       7.827  26.420  57.112  1.00  0.00     0.235 C 
ENDROOT
BRANCH   4   8
HETATM    8  C   UNL     1       6.599  29.778  55.915  1.00  0.00     0.130 C 
BRANCH   8   9
HETATM    9  N   UNL     1       5.621  29.610  54.861  1.00  0.00    -0.342 N 
HETATM   10  C   UNL     1       5.950  28.856  53.748  1.00  0.00     0.320 C 
HETATM   11  N   UNL     1       4.976  28.942  52.785  1.00  0.00    -0.309 N 
HETATM   12  O   UNL     1       6.976  28.183  53.729  1.00  0.00    -0.247 OA
HETATM   13  H   UNL     1       4.104  29.366  53.071  1.00  0.00     0.170 HD
HETATM   14  H   UNL     1       5.033  30.414  54.669  1.00  0.00     0.164 HD
BRANCH  11  15
HETATM   15  C   UNL     1       4.995  28.388  51.488  1.00  0.00     0.039 A 
HETATM   16  C   UNL     1       4.616  27.079  51.201  1.00  0.00     0.071 A 
HETATM   17  C   UNL     1       4.653  26.621  49.886  1.00  0.00     0.118 A 
HETATM   18  F   UNL     1       4.250  25.372  49.617  1.00  0.00    -0.206 F 
HETATM   19  C   UNL     1       5.081  27.438  48.847  1.00  0.00     0.042 A 
HETATM   20  C   UNL     1       5.482  28.740  49.128  1.00  0.00     0.005 A 
HETATM   21  C   UNL     1       5.438  29.213  50.444  1.00  0.00     0.030 A 
ENDBRANCH  11  15
ENDBRANCH   8   9
ENDBRANCH   4   8
BRANCH   1  22
HETATM   22  C   UNL     1       5.850  25.242  56.205  1.00  0.00     0.274 C 
BRANCH  22  23
HETATM   23  C   UNL     1       6.427  24.388  55.131  1.00  0.00    -0.015 A 
HETATM   24  C   UNL     1       6.256  24.548  53.769  1.00  0.00     0.097 A 
HETATM   25  N   UNL     1       6.935  23.548  53.123  1.00  0.00    -0.360 N 
HETATM   26  C   UNL     1       7.523  22.710  54.043  1.00  0.00     0.108 A 
HETATM   27  H   UNL     1       6.965  23.400  52.119  1.00  0.00     0.165 HD
HETATM   28  C   UNL     1       7.269  23.251  55.291  1.00  0.00     0.046 A 
BRANCH  26  29
HETATM   29  C   UNL     1       8.240  21.499  53.721  1.00  0.00     0.309 C 
HETATM   30  O   UNL     1       8.093  20.851  52.695  1.00  0.00    -0.258 OA
BRANCH  29  31
HETATM   31  O   UNL     1       9.123  21.212  54.717  1.00  0.00    -0.321 OA
HETATM   32  C   UNL     1       8.828  20.003  55.415  1.00  0.00     0.213 C 
ENDBRANCH  29  31
ENDBRANCH  26  29
ENDBRANCH  22  23
ENDBRANCH   1  22
TORSDOF 7
ENDMDL
MODEL 10
REMARK VINA RESULT:      -8.2      3.891     10.409
REMARK  7 active torsions:
REMARK  status: ('A' for Active; 'I' for Inactive)
REMARK    1  A    between atoms: O_2  and  C_3 
REMARK    2  A    between atoms: C_3  and  C_4 
REMARK    3  A    between atoms: C_8  and  C_9 
REMARK    4  A    between atoms: C_9  and  N_10 
REMARK    5  A    between atoms: C_13  and  C_14 
REMARK    6  A    between atoms: C_14  and  N_15 
REMARK       I    between atoms: N_15  and  C_16 
REMARK       I    between atoms: C_16  and  N_17 
REMARK    7  A    between atoms: N_17  and  C_18 
ROOT
HETATM    1  N   UNL     1       7.062  28.818  54.801  1.00  0.00    -0.067 N 
HETATM    2  H   UNL     1       6.808  29.810  54.601  1.00  0.00     0.280 HD
HETATM    3  C   UNL     1       6.085  28.339  55.842  1.00  0.00     0.241 C 
HETATM    4  C   UNL     1       6.274  29.045  57.190  1.00  0.00     0.029 C 
HETATM    5  C   UNL     1       7.730  28.884  57.651  1.00  0.00     0.009 C 
HETATM    6  C   UNL     1       8.715  29.380  56.596  1.00  0.00     0.028 C 
HETATM    7  C   UNL     1       8.495  28.721  55.244  1.00  0.00     0.235 C 
ENDROOT
BRANCH   4   8
HETATM    8  C   UNL     1       5.863  30.530  57.250  1.00  0.00     0.130 C 
BRANCH   8   9
HETATM    9  N   UNL     1       5.273  30.943  58.505  1.00  0.00    -0.342 N 
HETATM   10  C   UNL     1       5.934  31.869  59.291  1.00  0.00     0.320 C 
HETATM   11  N   UNL     1       5.320  32.016  60.510  1.00  0.00    -0.309 N 
HETATM   12  O   UNL     1       6.908  32.477  58.856  1.00  0.00    -0.247 OA
HETATM   13  H   UNL     1       4.405  31.595  60.599  1.00  0.00     0.170 HD
HETATM   14  H   UNL     1       4.783  30.221  59.022  1.00  0.00     0.164 HD
BRANCH  11  15
HETATM   15  C   UNL     1       5.748  32.796  61.602  1.00  0.00     0.039 A 
HETATM   16  C   UNL     1       6.700  32.375  62.527  1.00  0.00     0.071 A 
HETATM   17  C   UNL     1       7.074  33.222  63.569  1.00  0.00     0.118 A 
HETATM   18  F   UNL     1       8.019  32.821  64.430  1.00  0.00    -0.206 F 
HETATM   19  C   UNL     1       6.502  34.479  63.721  1.00  0.00     0.042 A 
HETATM   20  C   UNL     1       5.535  34.898  62.814  1.00  0.00     0.005 A 
HETATM   21  C   UNL     1       5.160  34.061  61.758  1.00  0.00     0.030 A 
ENDBRANCH  11  15
ENDBRANCH   8   9
ENDBRANCH   4   8
BRANCH   1  22
HETATM   22  C   UNL     1       6.886  28.102  53.471  1.00  0.00     0.274 C 
BRANCH  22  23
HETATM   23  C   UNL     1       6.586  26.648  53.584  1.00  0.00    -0.015 A 
HETATM   24  C   UNL     1       5.344  26.051  53.478  1.00  0.00     0.097 A 
HETATM   25  N   UNL     1       5.491  24.701  53.659  1.00  0.00    -0.360 N 
HETATM   26  C   UNL     1       6.809  24.403  53.917  1.00  0.00     0.108 A 
HETATM   27  H   UNL     1       4.743  24.015  53.660  1.00  0.00     0.165 HD
HETATM   28  C   UNL     1       7.512  25.591  53.814  1.00  0.00     0.046 A 
BRANCH  26  29
HETATM   29  C   UNL     1       7.313  23.091  54.247  1.00  0.00     0.309 C 
HETATM   30  O   UNL     1       7.797  22.306  53.444  1.00  0.00    -0.258 OA
BRANCH  29  31
HETATM   31  O   UNL     1       7.197  22.880  55.587  1.00  0.00    -0.321 OA
HETATM   32  C   UNL     1       8.292  22.158  56.152  1.00  0.00     0.213 C 
ENDBRANCH  29  31
ENDBRANCH  26  29
ENDBRANCH  22  23
ENDBRANCH   1  22
TORSDOF 7
ENDMDL
