MODEL 1
REMARK VINA RESULT:      -9.4      0.000      0.000
REMARK  5 active torsions:
REMARK  status: ('A' for Active; 'I' for Inactive)
REMARK    1  A    between atoms: C_3  and  O_4 
REMARK    2  A    between atoms: O_4  and  C_5 
REMARK    3  A    between atoms: C_5  and  C_6 
REMARK       I    between atoms: C_6  and  N_7 
REMARK    4  A    between atoms: N_7  and  N_8 
REMARK    5  A    between atoms: C_9  and  C_10 
ROOT
HETATM    1  C   UNL     1       8.045  29.838  58.460  1.00  0.00     0.261 C 
HETATM    2  N   UNL     1       7.331  28.655  58.272  1.00  0.00    -0.246 N 
HETATM    3  O   UNL     1       9.240  29.989  58.222  1.00  0.00    -0.269 OA
HETATM    4  H   UNL     1       6.338  28.613  58.473  1.00  0.00     0.192 HD
ENDROOT
BRANCH   2   5
HETATM    5  N   UNL     1       7.964  27.539  57.804  1.00  0.00    -0.184 NA
HETATM    6  C   UNL     1       7.218  26.700  57.161  1.00  0.00     0.152 C 
BRANCH   6   7
HETATM    7  C   UNL     1       7.792  25.483  56.627  1.00  0.00     0.011 A 
HETATM    8  C   UNL     1       7.616  24.946  55.311  1.00  0.00     0.004 A 
HETATM    9  C   UNL     1       8.355  23.763  55.242  1.00  0.00     0.043 A 
HETATM   10  C   UNL     1       6.900  25.354  54.166  1.00  0.00     0.014 A 
HETATM   11  C   UNL     1       8.414  22.971  54.089  1.00  0.00     0.030 A 
HETATM   12  N   UNL     1       8.955  23.586  56.468  1.00  0.00    -0.364 N 
HETATM   13  C   UNL     1       7.696  23.400  52.969  1.00  0.00     0.002 A 
HETATM   14  C   UNL     1       6.949  24.574  53.004  1.00  0.00     0.001 A 
HETATM   15  H   UNL     1       9.556  22.810  56.708  1.00  0.00     0.165 HD
HETATM   16  C   UNL     1       8.626  24.614  57.306  1.00  0.00     0.102 A 
ENDBRANCH   6   7
ENDBRANCH   2   5
BRANCH   1  17
HETATM   17  C   UNL     1       7.139  30.953  58.991  1.00  0.00     0.280 C 
BRANCH  17  18
HETATM   18  O   UNL     1       7.864  32.115  59.388  1.00  0.00    -0.341 OA
BRANCH  18  19
HETATM   19  C   UNL     1       7.583  32.438  60.692  1.00  0.00     0.081 A 
HETATM   20  C   UNL     1       6.335  32.984  61.031  1.00  0.00    -0.027 A 
HETATM   21  C   UNL     1       5.271  33.233  60.001  1.00  0.00     0.051 C 
HETATM   22  C   UNL     1       6.098  33.337  62.367  1.00  0.00     0.028 A 
HETATM   23  C   UNL     1       7.070  33.105  63.339  1.00  0.00     0.012 A 
HETATM   24  C   UNL     1       8.288  32.515  63.001  1.00  0.00     0.028 A 
HETATM   25 BR   UNL     1       6.733  33.589  65.135  1.00  0.00    -0.051 Br
HETATM   26  C   UNL     1       8.551  32.160  61.672  1.00  0.00    -0.027 A 
HETATM   27  C   UNL     1       9.865  31.526  61.307  1.00  0.00     0.051 C 
ENDBRANCH  18  19
ENDBRANCH  17  18
ENDBRANCH   1  17
TORSDOF 5
ENDMDL
MODEL 2
REMARK VINA RESULT:      -9.4      4.240      9.910
REMARK  5 active torsions:
REMARK  status: ('A' for Active; 'I' for Inactive)
REMARK    1  A    between atoms: C_3  and  O_4 
REMARK    2  A    between atoms: O_4  and  C_5 
REMARK    3  A    between atoms: C_5  and  C_6 
REMARK       I    between atoms: C_6  and  N_7 
REMARK    4  A    between atoms: N_7  and  N_8 
REMARK    5  A    between atoms: C_9  and  C_10 
ROOT
HETATM    1  C   UNL     1       5.775  27.157  56.181  1.00  0.00     0.261 C 
HETATM    2  N   UNL     1       6.880  27.872  56.644  1.00  0.00    -0.246 N 
HETATM    3  O   UNL     1       4.637  27.240  56.634  1.00  0.00    -0.269 OA
HETATM    4  H   UNL     1       7.786  27.764  56.205  1.00  0.00     0.192 HD
ENDROOT
BRANCH   2   5
HETATM    5  N   UNL     1       6.746  28.736  57.693  1.00  0.00    -0.184 NA
HETATM    6  C   UNL     1       6.944  29.985  57.419  1.00  0.00     0.152 C 
BRANCH   6   7
HETATM    7  C   UNL     1       6.830  30.982  58.462  1.00  0.00     0.011 A 
HETATM    8  C   UNL     1       7.669  31.132  59.614  1.00  0.00     0.004 A 
HETATM    9  C   UNL     1       7.188  32.224  60.339  1.00  0.00     0.043 A 
HETATM   10  C   UNL     1       8.797  30.444  60.109  1.00  0.00     0.014 A 
HETATM   11  C   UNL     1       7.777  32.662  61.532  1.00  0.00     0.030 A 
HETATM   12  N   UNL     1       6.099  32.718  59.657  1.00  0.00    -0.364 N 
HETATM   13  C   UNL     1       8.894  31.964  61.999  1.00  0.00     0.002 A 
HETATM   14  C   UNL     1       9.398  30.870  61.300  1.00  0.00     0.001 A 
HETATM   15  H   UNL     1       5.549  33.513  59.951  1.00  0.00     0.165 HD
HETATM   16  C   UNL     1       5.877  31.981  58.528  1.00  0.00     0.102 A 
ENDBRANCH   6   7
ENDBRANCH   2   5
BRANCH   1  17
HETATM   17  C   UNL     1       6.155  26.252  55.006  1.00  0.00     0.280 C 
BRANCH  17  18
HETATM   18  O   UNL     1       7.558  26.011  54.922  1.00  0.00    -0.341 OA
BRANCH  18  19
HETATM   19  C   UNL     1       7.805  24.729  54.500  1.00  0.00     0.081 A 
HETATM   20  C   UNL     1       7.696  24.400  53.139  1.00  0.00    -0.027 A 
HETATM   21  C   UNL     1       7.313  25.419  52.104  1.00  0.00     0.051 C 
HETATM   22  C   UNL     1       7.919  23.072  52.750  1.00  0.00     0.028 A 
HETATM   23  C   UNL     1       8.283  22.114  53.695  1.00  0.00     0.012 A 
HETATM   24  C   UNL     1       8.438  22.461  55.037  1.00  0.00     0.028 A 
HETATM   25 BR   UNL     1       8.578  20.327  53.151  1.00  0.00    -0.051 Br
HETATM   26  C   UNL     1       8.215  23.780  55.451  1.00  0.00    -0.027 A 
HETATM   27  C   UNL     1       8.379  24.154  56.898  1.00  0.00     0.051 C 
ENDBRANCH  18  19
ENDBRANCH  17  18
ENDBRANCH   1  17
TORSDOF 5
ENDMDL
MODEL 3
REMARK VINA RESULT:      -9.1      0.615      1.835
REMARK  5 active torsions:
REMARK  status: ('A' for Active; 'I' for Inactive)
REMARK    1  A    between atoms: C_3  and  O_4 
REMARK    2  A    between atoms: O_4  and  C_5 
REMARK    3  A    between atoms: C_5  and  C_6 
REMARK       I    between atoms: C_6  and  N_7 
REMARK    4  A    between atoms: N_7  and  N_8 
REMARK    5  A    between atoms: C_9  and  C_10 
ROOT
HETATM    1  C   UNL     1       7.611  29.696  57.817  1.00  0.00     0.261 C 
HETATM    2  N   UNL     1       7.157  28.430  58.188  1.00  0.00    -0.246 N 
HETATM    3  O   UNL     1       8.593  29.919  57.115  1.00  0.00    -0.269 OA
HETATM    4  H   UNL     1       6.324  28.326  58.755  1.00  0.00     0.192 HD
ENDROOT
BRANCH   2   5
HETATM    5  N   UNL     1       7.830  27.314  57.781  1.00  0.00    -0.184 NA
HETATM    6  C   UNL     1       7.193  26.545  56.958  1.00  0.00     0.152 C 
BRANCH   6   7
HETATM    7  C   UNL     1       7.818  25.334  56.468  1.00  0.00     0.011 A 
HETATM    8  C   UNL     1       7.656  24.736  55.177  1.00  0.00     0.004 A 
HETATM    9  C   UNL     1       8.448  23.586  55.149  1.00  0.00     0.043 A 
HETATM   10  C   UNL     1       6.913  25.064  54.024  1.00  0.00     0.014 A 
HETATM   11  C   UNL     1       8.534  22.751  54.029  1.00  0.00     0.030 A 
HETATM   12  N   UNL     1       9.065  23.487  56.375  1.00  0.00    -0.364 N 
HETATM   13  C   UNL     1       7.789  23.100  52.899  1.00  0.00     0.002 A 
HETATM   14  C   UNL     1       6.988  24.240  52.894  1.00  0.00     0.001 A 
HETATM   15  H   UNL     1       9.702  22.749  56.641  1.00  0.00     0.165 HD
HETATM   16  C   UNL     1       8.696  24.533  57.174  1.00  0.00     0.102 A 
ENDBRANCH   6   7
ENDBRANCH   2   5
BRANCH   1  17
HETATM   17  C   UNL     1       6.708  30.796  58.385  1.00  0.00     0.280 C 
BRANCH  17  18
HETATM   18  O   UNL     1       7.407  32.013  58.636  1.00  0.00    -0.341 OA
BRANCH  18  19
HETATM   19  C   UNL     1       7.404  32.305  59.976  1.00  0.00     0.081 A 
HETATM   20  C   UNL     1       8.549  32.063  60.754  1.00  0.00    -0.027 A 
HETATM   21  C   UNL     1       9.803  31.486  60.163  1.00  0.00     0.051 C 
HETATM   22  C   UNL     1       8.497  32.339  62.128  1.00  0.00     0.028 A 
HETATM   23  C   UNL     1       7.344  32.884  62.692  1.00  0.00     0.012 A 
HETATM   24  C   UNL     1       6.230  33.167  61.903  1.00  0.00     0.028 A 
HETATM   25 BR   UNL     1       7.293  33.247  64.547  1.00  0.00    -0.051 Br
HETATM   26  C   UNL     1       6.255  32.895  60.529  1.00  0.00    -0.027 A 
HETATM   27  C   UNL     1       5.053  33.198  59.678  1.00  0.00     0.051 C 
ENDBRANCH  18  19
ENDBRANCH  17  18
ENDBRANCH   1  17
TORSDOF 5
ENDMDL
MODEL 4
REMARK VINA RESULT:      -8.9      1.288      2.476
REMARK  5 active torsions:
REMARK  status: ('A' for Active; 'I' for Inactive)
REMARK    1  A    between atoms: C_3  and  O_4 
REMARK    2  A    between atoms: O_4  and  C_5 
REMARK    3  A    between atoms: C_5  and  C_6 
REMARK       I    between atoms: C_6  and  N_7 
REMARK    4  A    between atoms: N_7  and  N_8 
REMARK    5  A    between atoms: C_9  and  C_10 
ROOT
HETATM    1  C   UNL     1       8.575  29.541  57.838  1.00  0.00     0.261 C 
HETATM    2  N   UNL     1       7.882  28.368  57.537  1.00  0.00    -0.246 N 
HETATM    3  O   UNL     1       9.408  30.077  57.111  1.00  0.00    -0.269 OA
HETATM    4  H   UNL     1       7.193  27.996  58.181  1.00  0.00     0.192 HD
ENDROOT
BRANCH   2   5
HETATM    5  N   UNL     1       8.119  27.714  56.363  1.00  0.00    -0.184 NA
HETATM    6  C   UNL     1       7.303  26.748  56.085  1.00  0.00     0.152 C 
BRANCH   6   7
HETATM    7  C   UNL     1       7.471  25.989  54.864  1.00  0.00     0.011 A 
HETATM    8  C   UNL     1       7.574  24.566  54.735  1.00  0.00     0.004 A 
HETATM    9  C   UNL     1       7.722  24.281  53.376  1.00  0.00     0.043 A 
HETATM   10  C   UNL     1       7.551  23.489  55.646  1.00  0.00     0.014 A 
HETATM   11  C   UNL     1       7.848  22.976  52.884  1.00  0.00     0.030 A 
HETATM   12  N   UNL     1       7.712  25.482  52.705  1.00  0.00    -0.364 N 
HETATM   13  C   UNL     1       7.821  21.928  53.808  1.00  0.00     0.002 A 
HETATM   14  C   UNL     1       7.676  22.177  55.170  1.00  0.00     0.001 A 
HETATM   15  H   UNL     1       7.800  25.583  51.703  1.00  0.00     0.165 HD
HETATM   16  C   UNL     1       7.559  26.514  53.588  1.00  0.00     0.102 A 
ENDBRANCH   6   7
ENDBRANCH   2   5
BRANCH   1  17
HETATM   17  C   UNL     1       8.153  30.100  59.199  1.00  0.00     0.280 C 
BRANCH  17  18
HETATM   18  O   UNL     1       8.175  31.525  59.245  1.00  0.00    -0.341 OA
BRANCH  18  19
HETATM   19  C   UNL     1       7.701  31.978  60.451  1.00  0.00     0.081 A 
HETATM   20  C   UNL     1       8.554  32.043  61.565  1.00  0.00    -0.027 A 
HETATM   21  C   UNL     1       9.995  31.629  61.487  1.00  0.00     0.051 C 
HETATM   22  C   UNL     1       8.026  32.475  62.790  1.00  0.00     0.028 A 
HETATM   23  C   UNL     1       6.693  32.872  62.879  1.00  0.00     0.012 A 
HETATM   24  C   UNL     1       5.866  32.851  61.756  1.00  0.00     0.028 A 
HETATM   25 BR   UNL     1       5.998  33.449  64.541  1.00  0.00    -0.051 Br
HETATM   26  C   UNL     1       6.369  32.418  60.523  1.00  0.00    -0.027 A 
HETATM   27  C   UNL     1       5.478  32.393  59.312  1.00  0.00     0.051 C 
ENDBRANCH  18  19
ENDBRANCH  17  18
ENDBRANCH   1  17
TORSDOF 5
ENDMDL
MODEL 5
REMARK VINA RESULT:      -8.9      4.084      9.783
REMARK  5 active torsions:
REMARK  status: ('A' for Active; 'I' for Inactive)
REMARK    1  A    between atoms: C_3  and  O_4 
REMARK    2  A    between atoms: O_4  and  C_5 
REMARK    3  A    between atoms: C_5  and  C_6 
REMARK       I    between atoms: C_6  and  N_7 
REMARK    4  A    between atoms: N_7  and  N_8 
REMARK    5  A    between atoms: C_9  and  C_10 
ROOT
HETATM    1  C   UNL     1       7.881  28.661  54.914  1.00  0.00     0.261 C 
HETATM    2  N   UNL     1       6.639  29.121  55.353  1.00  0.00    -0.246 N 
HETATM    3  O   UNL     1       8.968  29.118  55.258  1.00  0.00    -0.269 OA
HETATM    4  H   UNL     1       5.784  28.678  55.037  1.00  0.00     0.192 HD
ENDROOT
BRANCH   2   5
HETATM    5  N   UNL     1       6.565  30.170  56.223  1.00  0.00    -0.184 NA
HETATM    6  C   UNL     1       6.766  29.881  57.468  1.00  0.00     0.152 C 
BRANCH   6   7
HETATM    7  C   UNL     1       6.706  30.922  58.472  1.00  0.00     0.011 A 
HETATM    8  C   UNL     1       7.571  31.089  59.602  1.00  0.00     0.004 A 
HETATM    9  C   UNL     1       7.142  32.226  60.290  1.00  0.00     0.043 A 
HETATM   10  C   UNL     1       8.683  30.382  60.106  1.00  0.00     0.014 A 
HETATM   11  C   UNL     1       7.768  32.690  61.454  1.00  0.00     0.030 A 
HETATM   12  N   UNL     1       6.058  32.730  59.608  1.00  0.00    -0.364 N 
HETATM   13  C   UNL     1       8.868  31.971  61.930  1.00  0.00     0.002 A 
HETATM   14  C   UNL     1       9.321  30.834  61.268  1.00  0.00     0.001 A 
HETATM   15  H   UNL     1       5.540  33.555  59.878  1.00  0.00     0.165 HD
HETATM   16  C   UNL     1       5.789  31.956  58.513  1.00  0.00     0.102 A 
ENDBRANCH   6   7
ENDBRANCH   2   5
BRANCH   1  17
HETATM   17  C   UNL     1       7.725  27.484  53.946  1.00  0.00     0.280 C 
BRANCH  17  18
HETATM   18  O   UNL     1       6.712  26.565  54.349  1.00  0.00    -0.341 OA
BRANCH  18  19
HETATM   19  C   UNL     1       7.138  25.272  54.182  1.00  0.00     0.081 A 
HETATM   20  C   UNL     1       7.643  24.548  55.275  1.00  0.00    -0.027 A 
HETATM   21  C   UNL     1       7.736  25.146  56.648  1.00  0.00     0.051 C 
HETATM   22  C   UNL     1       8.103  23.242  55.058  1.00  0.00     0.028 A 
HETATM   23  C   UNL     1       8.016  22.666  53.791  1.00  0.00     0.012 A 
HETATM   24  C   UNL     1       7.467  23.375  52.723  1.00  0.00     0.028 A 
HETATM   25 BR   UNL     1       8.645  20.903  53.519  1.00  0.00    -0.051 Br
HETATM   26  C   UNL     1       7.006  24.684  52.912  1.00  0.00    -0.027 A 
HETATM   27  C   UNL     1       6.416  25.449  51.760  1.00  0.00     0.051 C 
ENDBRANCH  18  19
ENDBRANCH  17  18
ENDBRANCH   1  17
TORSDOF 5
ENDMDL
MODEL 6
REMARK VINA RESULT:      -8.8      1.375      1.833
REMARK  5 active torsions:
REMARK  status: ('A' for Active; 'I' for Inactive)
REMARK    1  A    between atoms: C_3  and  O_4 
REMARK    2  A    between atoms: O_4  and  C_5 
REMARK    3  A    between atoms: C_5  and  C_6 
REMARK       I    between atoms: C_6  and  N_7 
REMARK    4  A    between atoms: N_7  and  N_8 
REMARK    5  A    between atoms: C_9  and  C_10 
ROOT
HETATM    1  C   UNL     1       7.768  29.913  57.604  1.00  0.00     0.261 C 
HETATM    2  N   UNL     1       6.866  29.281  56.748  1.00  0.00    -0.246 N 
HETATM    3  O   UNL     1       8.991  29.850  57.516  1.00  0.00    -0.269 OA
HETATM    4  H   UNL     1       5.866  29.397  56.874  1.00  0.00     0.192 HD
ENDROOT
BRANCH   2   5
HETATM    5  N   UNL     1       7.323  28.505  55.722  1.00  0.00    -0.184 NA
HETATM    6  C   UNL     1       6.848  27.302  55.674  1.00  0.00     0.152 C 
BRANCH   6   7
HETATM    7  C   UNL     1       7.272  26.398  54.627  1.00  0.00     0.011 A 
HETATM    8  C   UNL     1       7.421  24.976  54.716  1.00  0.00     0.004 A 
HETATM    9  C   UNL     1       7.847  24.523  53.466  1.00  0.00     0.043 A 
HETATM   10  C   UNL     1       7.231  24.027  55.743  1.00  0.00     0.014 A 
HETATM   11  C   UNL     1       8.091  23.172  53.192  1.00  0.00     0.030 A 
HETATM   12  N   UNL     1       7.955  25.625  52.649  1.00  0.00    -0.364 N 
HETATM   13  C   UNL     1       7.894  22.253  54.226  1.00  0.00     0.002 A 
HETATM   14  C   UNL     1       7.470  22.671  55.484  1.00  0.00     0.001 A 
HETATM   15  H   UNL     1       8.244  25.598  51.681  1.00  0.00     0.165 HD
HETATM   16  C   UNL     1       7.610  26.756  53.335  1.00  0.00     0.102 A 
ENDBRANCH   6   7
ENDBRANCH   2   5
BRANCH   1  17
HETATM   17  C   UNL     1       7.036  30.725  58.677  1.00  0.00     0.280 C 
BRANCH  17  18
HETATM   18  O   UNL     1       7.672  31.969  58.961  1.00  0.00    -0.341 OA
BRANCH  18  19
HETATM   19  C   UNL     1       7.530  32.294  60.287  1.00  0.00     0.081 A 
HETATM   20  C   UNL     1       6.328  32.855  60.751  1.00  0.00    -0.027 A 
HETATM   21  C   UNL     1       5.169  33.117  59.834  1.00  0.00     0.051 C 
HETATM   22  C   UNL     1       6.233  33.209  62.104  1.00  0.00     0.028 A 
HETATM   23  C   UNL     1       7.296  32.965  62.972  1.00  0.00     0.012 A 
HETATM   24  C   UNL     1       8.467  32.362  62.512  1.00  0.00     0.028 A 
HETATM   25 BR   UNL     1       7.149  33.452  64.793  1.00  0.00    -0.051 Br
HETATM   26  C   UNL     1       8.589  32.004  61.163  1.00  0.00    -0.027 A 
HETATM   27  C   UNL     1       9.851  31.356  60.667  1.00  0.00     0.051 C 
ENDBRANCH  18  19
ENDBRANCH  17  18
ENDBRANCH   1  17
TORSDOF 5
ENDMDL
MODEL 7
REMARK VINA RESULT:      -8.7      1.755      2.805
REMARK  5 active torsions:
REMARK  status: ('A' for Active; 'I' for Inactive)
REMARK    1  A    between atoms: C_3  and  O_4 
REMARK    2  A    between atoms: O_4  and  C_5 
REMARK    3  A    between atoms: C_5  and  C_6 
REMARK       I    between atoms: C_6  and  N_7 
REMARK    4  A    between atoms: N_7  and  N_8 
REMARK    5  A    between atoms: C_9  and  C_10 
ROOT
HETATM    1  C   UNL     1       6.522  29.688  56.761  1.00  0.00     0.261 C 
HETATM    2  N   UNL     1       7.396  28.603  56.849  1.00  0.00    -0.246 N 
HETATM    3  O   UNL     1       5.964  30.066  55.736  1.00  0.00    -0.269 OA
HETATM    4  H   UNL     1       7.804  28.339  57.738  1.00  0.00     0.192 HD
ENDROOT
BRANCH   2   5
HETATM    5  N   UNL     1       7.702  27.878  55.733  1.00  0.00    -0.184 NA
HETATM    6  C   UNL     1       7.186  26.693  55.675  1.00  0.00     0.152 C 
BRANCH   6   7
HETATM    7  C   UNL     1       7.452  25.842  54.535  1.00  0.00     0.011 A 
HETATM    8  C   UNL     1       7.565  24.414  54.526  1.00  0.00     0.004 A 
HETATM    9  C   UNL     1       7.824  24.026  53.210  1.00  0.00     0.043 A 
HETATM   10  C   UNL     1       7.467  23.410  55.512  1.00  0.00     0.014 A 
HETATM   11  C   UNL     1       7.990  22.688  52.832  1.00  0.00     0.030 A 
HETATM   12  N   UNL     1       7.870  25.172  52.449  1.00  0.00    -0.364 N 
HETATM   13  C   UNL     1       7.886  21.714  53.829  1.00  0.00     0.002 A 
HETATM   14  C   UNL     1       7.629  22.067  55.151  1.00  0.00     0.001 A 
HETATM   15  H   UNL     1       8.041  25.195  51.453  1.00  0.00     0.165 HD
HETATM   16  C   UNL     1       7.646  26.268  53.234  1.00  0.00     0.102 A 
ENDBRANCH   6   7
ENDBRANCH   2   5
BRANCH   1  17
HETATM   17  C   UNL     1       6.326  30.351  58.128  1.00  0.00     0.280 C 
BRANCH  17  18
HETATM   18  O   UNL     1       6.983  31.612  58.232  1.00  0.00    -0.341 OA
BRANCH  18  19
HETATM   19  C   UNL     1       7.159  31.959  59.547  1.00  0.00     0.081 A 
HETATM   20  C   UNL     1       8.356  31.639  60.209  1.00  0.00    -0.027 A 
HETATM   21  C   UNL     1       9.476  30.916  59.518  1.00  0.00     0.051 C 
HETATM   22  C   UNL     1       8.484  31.976  61.563  1.00  0.00     0.028 A 
HETATM   23  C   UNL     1       7.458  32.655  62.220  1.00  0.00     0.012 A 
HETATM   24  C   UNL     1       6.294  33.014  61.541  1.00  0.00     0.028 A 
HETATM   25 BR   UNL     1       7.650  33.100  64.048  1.00  0.00    -0.051 Br
HETATM   26  C   UNL     1       6.139  32.683  60.189  1.00  0.00    -0.027 A 
HETATM   27  C   UNL     1       4.883  33.067  59.458  1.00  0.00     0.051 C 
ENDBRANCH  18  19
ENDBRANCH  17  18
ENDBRANCH   1  17
TORSDOF 5
ENDMDL
MODEL 8
REMARK VINA RESULT:      -8.6      2.312      3.118
REMARK  5 active torsions:
REMARK  status: ('A' for Active; 'I' for Inactive)
REMARK    1  A    between atoms: C_3  and  O_4 
REMARK    2  A    between atoms: O_4  and  C_5 
REMARK    3  A    between atoms: C_5  and  C_6 
REMARK       I    between atoms: C_6  and  N_7 
REMARK    4  A    between atoms: N_7  and  N_8 
REMARK    5  A    between atoms: C_9  and  C_10 
ROOT
HETATM    1  C   UNL     1       5.217  28.983  55.995  1.00  0.00     0.261 C 
HETATM    2  N   UNL     1       6.123  27.930  56.131  1.00  0.00    -0.246 N 
HETATM    3  O   UNL     1       4.485  29.166  55.027  1.00  0.00    -0.269 OA
HETATM    4  H   UNL     1       6.681  27.835  56.972  1.00  0.00     0.192 HD
ENDROOT
BRANCH   2   5
HETATM    5  N   UNL     1       6.259  27.009  55.132  1.00  0.00    -0.184 NA
HETATM    6  C   UNL     1       7.288  26.231  55.224  1.00  0.00     0.152 C 
BRANCH   6   7
HETATM    7  C   UNL     1       7.524  25.222  54.213  1.00  0.00     0.011 A 
HETATM    8  C   UNL     1       7.619  23.806  54.406  1.00  0.00     0.004 A 
HETATM    9  C   UNL     1       7.851  23.230  53.156  1.00  0.00     0.043 A 
HETATM   10  C   UNL     1       7.525  22.955  55.528  1.00  0.00     0.014 A 
HETATM   11  C   UNL     1       7.994  21.849  52.971  1.00  0.00     0.030 A 
HETATM   12  N   UNL     1       7.898  24.254  52.238  1.00  0.00    -0.364 N 
HETATM   13  C   UNL     1       7.895  21.029  54.098  1.00  0.00     0.002 A 
HETATM   14  C   UNL     1       7.665  21.571  55.360  1.00  0.00     0.001 A 
HETATM   15  H   UNL     1       8.053  24.133  51.247  1.00  0.00     0.165 HD
HETATM   16  C   UNL     1       7.701  25.455  52.862  1.00  0.00     0.102 A 
ENDBRANCH   6   7
ENDBRANCH   2   5
BRANCH   1  17
HETATM   17  C   UNL     1       5.233  29.890  57.229  1.00  0.00     0.280 C 
BRANCH  17  18
HETATM   18  O   UNL     1       6.295  30.841  57.205  1.00  0.00    -0.341 OA
BRANCH  18  19
HETATM   19  C   UNL     1       6.694  31.154  58.480  1.00  0.00     0.081 A 
HETATM   20  C   UNL     1       5.954  32.071  59.246  1.00  0.00    -0.027 A 
HETATM   21  C   UNL     1       4.717  32.734  58.714  1.00  0.00     0.051 C 
HETATM   22  C   UNL     1       6.413  32.395  60.530  1.00  0.00     0.028 A 
HETATM   23  C   UNL     1       7.555  31.782  61.044  1.00  0.00     0.012 A 
HETATM   24  C   UNL     1       8.254  30.836  60.295  1.00  0.00     0.028 A 
HETATM   25 BR   UNL     1       8.159  32.234  62.778  1.00  0.00    -0.051 Br
HETATM   26  C   UNL     1       7.819  30.500  59.007  1.00  0.00    -0.027 A 
HETATM   27  C   UNL     1       8.575  29.482  58.199  1.00  0.00     0.051 C 
ENDBRANCH  18  19
ENDBRANCH  17  18
ENDBRANCH   1  17
TORSDOF 5
ENDMDL
MODEL 9
REMARK VINA RESULT:      -8.6      8.103     10.928
REMARK  5 active torsions:
REMARK  status: ('A' for Active; 'I' for Inactive)
REMARK    1  A    between atoms: C_3  and  O_4 
REMARK    2  A    between atoms: O_4  and  C_5 
REMARK    3  A    between atoms: C_5  and  C_6 
REMARK       I    between atoms: C_6  and  N_7 
REMARK    4  A    between atoms: N_7  and  N_8 
REMARK    5  A    between atoms: C_9  and  C_10 
ROOT
HETATM    1  C   UNL     1       5.489  27.029  51.508  1.00  0.00     0.261 C 
HETATM    2  N   UNL     1       5.561  25.636  51.470  1.00  0.00    -0.246 N 
HETATM    3  O   UNL     1       6.190  27.754  52.207  1.00  0.00    -0.269 OA
HETATM    4  H   UNL     1       4.960  25.105  50.850  1.00  0.00     0.192 HD
ENDROOT
BRANCH   2   5
HETATM    5  N   UNL     1       6.453  24.973  52.263  1.00  0.00    -0.184 NA
HETATM    6  C   UNL     1       5.998  24.577  53.408  1.00  0.00     0.152 C 
BRANCH   6   7
HETATM    7  C   UNL     1       6.865  23.868  54.325  1.00  0.00     0.011 A 
HETATM    8  C   UNL     1       7.520  22.614  54.105  1.00  0.00     0.004 A 
HETATM    9  C   UNL     1       8.252  22.318  55.257  1.00  0.00     0.043 A 
HETATM   10  C   UNL     1       7.566  21.699  53.032  1.00  0.00     0.014 A 
HETATM   11  C   UNL     1       9.024  21.158  55.390  1.00  0.00     0.030 A 
HETATM   12  N   UNL     1       8.048  23.351  56.144  1.00  0.00    -0.364 N 
HETATM   13  C   UNL     1       9.052  20.270  54.310  1.00  0.00     0.002 A 
HETATM   14  C   UNL     1       8.334  20.534  53.147  1.00  0.00     0.001 A 
HETATM   15  H   UNL     1       8.457  23.406  57.067  1.00  0.00     0.165 HD
HETATM   16  C   UNL     1       7.219  24.288  55.594  1.00  0.00     0.102 A 
ENDBRANCH   6   7
ENDBRANCH   2   5
BRANCH   1  17
HETATM   17  C   UNL     1       4.423  27.554  50.543  1.00  0.00     0.280 C 
BRANCH  17  18
HETATM   18  O   UNL     1       4.702  27.237  49.181  1.00  0.00    -0.341 OA
BRANCH  18  19
HETATM   19  C   UNL     1       3.569  27.346  48.416  1.00  0.00     0.081 A 
HETATM   20  C   UNL     1       2.863  26.194  48.031  1.00  0.00    -0.027 A 
HETATM   21  C   UNL     1       3.308  24.818  48.434  1.00  0.00     0.051 C 
HETATM   22  C   UNL     1       1.730  26.342  47.218  1.00  0.00     0.028 A 
HETATM   23  C   UNL     1       1.296  27.612  46.841  1.00  0.00     0.012 A 
HETATM   24  C   UNL     1       1.975  28.753  47.270  1.00  0.00     0.028 A 
HETATM   25 BR   UNL     1      -0.233  27.791  45.742  1.00  0.00    -0.051 Br
HETATM   26  C   UNL     1       3.112  28.631  48.078  1.00  0.00    -0.027 A 
HETATM   27  C   UNL     1       3.845  29.860  48.537  1.00  0.00     0.051 C 
ENDBRANCH  18  19
ENDBRANCH  17  18
ENDBRANCH   1  17
TORSDOF 5
ENDMDL
MODEL 10
REMARK VINA RESULT:      -8.6      4.221      9.919
REMARK  5 active torsions:
REMARK  status: ('A' for Active; 'I' for Inactive)
REMARK    1  A    between atoms: C_3  and  O_4 
REMARK    2  A    between atoms: O_4  and  C_5 
REMARK    3  A    between atoms: C_5  and  C_6 
REMARK       I    between atoms: C_6  and  N_7 
REMARK    4  A    between atoms: N_7  and  N_8 
REMARK    5  A    between atoms: C_9  and  C_10 
ROOT
HETATM    1  C   UNL     1       5.909  27.242  56.238  1.00  0.00     0.261 C 
HETATM    2  N   UNL     1       6.787  28.303  56.466  1.00  0.00    -0.246 N 
HETATM    3  O   UNL     1       5.028  26.875  57.009  1.00  0.00    -0.269 OA
HETATM    4  H   UNL     1       7.479  28.559  55.771  1.00  0.00     0.192 HD
ENDROOT
BRANCH   2   5
HETATM    5  N   UNL     1       6.716  29.014  57.629  1.00  0.00    -0.184 NA
HETATM    6  C   UNL     1       7.736  29.766  57.890  1.00  0.00     0.152 C 
BRANCH   6   7
HETATM    7  C   UNL     1       7.760  30.558  59.101  1.00  0.00     0.011 A 
HETATM    8  C   UNL     1       6.821  31.564  59.498  1.00  0.00     0.004 A 
HETATM    9  C   UNL     1       7.239  32.060  60.735  1.00  0.00     0.043 A 
HETATM   10  C   UNL     1       5.649  32.102  58.925  1.00  0.00     0.014 A 
HETATM   11  C   UNL     1       6.547  33.062  61.425  1.00  0.00     0.030 A 
HETATM   12  N   UNL     1       8.388  31.383  61.076  1.00  0.00    -0.364 N 
HETATM   13  C   UNL     1       5.389  33.575  60.835  1.00  0.00     0.002 A 
HETATM   14  C   UNL     1       4.944  33.104  59.602  1.00  0.00     0.001 A 
HETATM   15  H   UNL     1       8.914  31.534  61.926  1.00  0.00     0.165 HD
HETATM   16  C   UNL     1       8.708  30.478  60.104  1.00  0.00     0.102 A 
ENDBRANCH   6   7
ENDBRANCH   2   5
BRANCH   1  17
HETATM   17  C   UNL     1       6.171  26.590  54.877  1.00  0.00     0.280 C 
BRANCH  17  18
HETATM   18  O   UNL     1       7.548  26.288  54.662  1.00  0.00    -0.341 OA
BRANCH  18  19
HETATM   19  C   UNL     1       7.709  24.962  54.350  1.00  0.00     0.081 A 
HETATM   20  C   UNL     1       8.002  24.030  55.360  1.00  0.00    -0.027 A 
HETATM   21  C   UNL     1       8.147  24.437  56.798  1.00  0.00     0.051 C 
HETATM   22  C   UNL     1       8.198  22.690  54.999  1.00  0.00     0.028 A 
HETATM   23  C   UNL     1       8.059  22.292  53.670  1.00  0.00     0.012 A 
HETATM   24  C   UNL     1       7.718  23.216  52.682  1.00  0.00     0.028 A 
HETATM   25 BR   UNL     1       8.328  20.479  53.202  1.00  0.00    -0.051 Br
HETATM   26  C   UNL     1       7.524  24.562  53.016  1.00  0.00    -0.027 A 
HETATM   27  C   UNL     1       7.159  25.558  51.951  1.00  0.00     0.051 C 
ENDBRANCH  18  19
ENDBRANCH  17  18
ENDBRANCH   1  17
TORSDOF 5
ENDMDL
