MODEL 1
REMARK VINA RESULT:      -9.2      0.000      0.000
REMARK  1 active torsions:
REMARK  status: ('A' for Active; 'I' for Inactive)
REMARK    1  A    between atoms: C_8  and  C_9 
ROOT
HETATM    1  C   UNL     1       4.476  25.204  52.529  1.00  0.00     0.073 C 
HETATM    2  C   UNL     1       4.768  26.594  52.978  1.00  0.00     0.062 A 
HETATM    3  N   UNL     1       4.407  27.610  52.190  1.00  0.00    -0.178 NA
HETATM    4  N   UNL     1       4.714  28.691  52.903  1.00  0.00    -0.262 N 
HETATM    5  H   UNL     1       4.496  29.597  52.505  1.00  0.00     0.191 HD
HETATM    6  C   UNL     1       5.310  28.428  54.108  1.00  0.00     0.134 A 
HETATM    7  C   UNL     1       5.384  27.045  54.204  1.00  0.00     0.032 A 
HETATM    8  C   UNL     1       5.791  26.148  55.333  1.00  0.00     0.119 C 
HETATM    9  S   UNL     1       6.330  26.860  56.900  1.00  0.00    -0.141 SA
HETATM   10  C   UNL     1       7.285  28.330  56.430  1.00  0.00     0.136 C 
HETATM   11  C   UNL     1       8.435  28.153  55.454  1.00  0.00     0.031 C 
HETATM   12  C   UNL     1       6.390  29.495  56.053  1.00  0.00     0.236 C 
HETATM   13  O   UNL     1       6.419  30.546  56.704  1.00  0.00    -0.272 OA
HETATM   14  N   UNL     1       5.628  29.485  54.924  1.00  0.00    -0.311 N 
HETATM   15  H   UNL     1       5.234  30.398  54.725  1.00  0.00     0.170 HD
ENDROOT
BRANCH   8  16
HETATM   16  C   UNL     1       6.705  25.031  54.839  1.00  0.00    -0.039 A 
HETATM   17  C   UNL     1       6.725  23.820  55.567  1.00  0.00     0.021 A 
HETATM   18  C   UNL     1       7.494  22.715  55.160  1.00  0.00    -0.025 A 
HETATM   19  C   UNL     1       8.296  22.823  54.007  1.00  0.00    -0.026 A 
HETATM   20  C   UNL     1       7.469  21.503  55.871  1.00  0.00     0.012 A 
HETATM   21  C   UNL     1       8.305  24.029  53.294  1.00  0.00     0.013 A 
HETATM   22  C   UNL     1       9.058  21.718  53.593  1.00  0.00     0.012 A 
HETATM   23  C   UNL     1       7.518  25.113  53.700  1.00  0.00     0.009 A 
HETATM   24  C   UNL     1       9.020  20.518  54.306  1.00  0.00     0.001 A 
HETATM   25  C   UNL     1       8.226  20.410  55.443  1.00  0.00     0.001 A 
ENDBRANCH   8  16
TORSDOF 1
ENDMDL
MODEL 2
REMARK VINA RESULT:      -9.0      2.138      3.475
REMARK  1 active torsions:
REMARK  status: ('A' for Active; 'I' for Inactive)
REMARK    1  A    between atoms: C_8  and  C_9 
ROOT
HETATM    1  C   UNL     1       7.182  26.063  57.684  1.00  0.00     0.073 C 
HETATM    2  C   UNL     1       6.115  26.580  56.781  1.00  0.00     0.062 A 
HETATM    3  N   UNL     1       5.012  27.098  57.326  1.00  0.00    -0.178 NA
HETATM    4  N   UNL     1       4.320  27.545  56.279  1.00  0.00    -0.262 N 
HETATM    5  H   UNL     1       3.440  28.013  56.461  1.00  0.00     0.191 HD
HETATM    6  C   UNL     1       4.901  27.295  55.064  1.00  0.00     0.134 A 
HETATM    7  C   UNL     1       6.093  26.640  55.338  1.00  0.00     0.032 A 
HETATM    8  C   UNL     1       7.233  26.241  54.451  1.00  0.00     0.119 C 
HETATM    9  S   UNL     1       7.163  26.587  52.683  1.00  0.00    -0.141 SA
HETATM   10  C   UNL     1       5.429  26.303  52.229  1.00  0.00     0.136 C 
HETATM   11  C   UNL     1       4.811  24.959  52.576  1.00  0.00     0.031 C 
HETATM   12  C   UNL     1       4.537  27.462  52.630  1.00  0.00     0.236 C 
HETATM   13  O   UNL     1       3.925  28.110  51.772  1.00  0.00    -0.272 OA
HETATM   14  N   UNL     1       4.270  27.752  53.933  1.00  0.00    -0.311 N 
HETATM   15  H   UNL     1       3.524  28.432  54.025  1.00  0.00     0.170 HD
ENDROOT
BRANCH   8  16
HETATM   16  C   UNL     1       7.694  24.820  54.764  1.00  0.00    -0.039 A 
HETATM   17  C   UNL     1       7.543  23.838  53.760  1.00  0.00     0.021 A 
HETATM   18  C   UNL     1       7.987  22.515  53.933  1.00  0.00    -0.025 A 
HETATM   19  C   UNL     1       8.575  22.143  55.159  1.00  0.00    -0.026 A 
HETATM   20  C   UNL     1       7.870  21.561  52.909  1.00  0.00     0.012 A 
HETATM   21  C   UNL     1       8.702  23.102  56.172  1.00  0.00     0.013 A 
HETATM   22  C   UNL     1       9.028  20.825  55.333  1.00  0.00     0.012 A 
HETATM   23  C   UNL     1       8.275  24.421  55.975  1.00  0.00     0.009 A 
HETATM   24  C   UNL     1       8.909  19.888  54.304  1.00  0.00     0.001 A 
HETATM   25  C   UNL     1       8.332  20.256  53.093  1.00  0.00     0.001 A 
ENDBRANCH   8  16
TORSDOF 1
ENDMDL
MODEL 3
REMARK VINA RESULT:      -8.9      1.618      2.222
REMARK  1 active torsions:
REMARK  status: ('A' for Active; 'I' for Inactive)
REMARK    1  A    between atoms: C_8  and  C_9 
ROOT
HETATM    1  C   UNL     1       4.137  27.661  53.923  1.00  0.00     0.073 C 
HETATM    2  C   UNL     1       4.775  28.807  54.628  1.00  0.00     0.062 A 
HETATM    3  N   UNL     1       4.410  30.047  54.296  1.00  0.00    -0.178 NA
HETATM    4  N   UNL     1       5.076  30.817  55.154  1.00  0.00    -0.262 N 
HETATM    5  H   UNL     1       4.927  31.817  55.105  1.00  0.00     0.191 HD
HETATM    6  C   UNL     1       5.906  30.135  56.004  1.00  0.00     0.134 A 
HETATM    7  C   UNL     1       5.757  28.791  55.688  1.00  0.00     0.032 A 
HETATM    8  C   UNL     1       6.276  27.552  56.350  1.00  0.00     0.119 C 
HETATM    9  S   UNL     1       7.317  27.683  57.817  1.00  0.00    -0.141 SA
HETATM   10  C   UNL     1       8.364  29.132  57.507  1.00  0.00     0.136 C 
HETATM   11  C   UNL     1       9.173  29.168  56.222  1.00  0.00     0.031 C 
HETATM   12  C   UNL     1       7.623  30.433  57.751  1.00  0.00     0.236 C 
HETATM   13  O   UNL     1       8.004  31.219  58.627  1.00  0.00    -0.272 OA
HETATM   14  N   UNL     1       6.607  30.848  56.945  1.00  0.00    -0.311 N 
HETATM   15  H   UNL     1       6.343  31.809  57.133  1.00  0.00     0.170 HD
ENDROOT
BRANCH   8  16
HETATM   16  C   UNL     1       6.819  26.568  55.318  1.00  0.00    -0.039 A 
HETATM   17  C   UNL     1       6.867  25.200  55.666  1.00  0.00     0.021 A 
HETATM   18  C   UNL     1       7.300  24.213  54.764  1.00  0.00    -0.025 A 
HETATM   19  C   UNL     1       7.732  24.598  53.478  1.00  0.00    -0.026 A 
HETATM   20  C   UNL     1       7.301  22.851  55.111  1.00  0.00     0.012 A 
HETATM   21  C   UNL     1       7.715  25.956  53.134  1.00  0.00     0.013 A 
HETATM   22  C   UNL     1       8.157  23.613  52.572  1.00  0.00     0.012 A 
HETATM   23  C   UNL     1       7.260  26.925  54.036  1.00  0.00     0.009 A 
HETATM   24  C   UNL     1       8.148  22.263  52.928  1.00  0.00     0.001 A 
HETATM   25  C   UNL     1       7.719  21.883  54.196  1.00  0.00     0.001 A 
ENDBRANCH   8  16
TORSDOF 1
ENDMDL
MODEL 4
REMARK VINA RESULT:      -8.6     10.177     14.002
REMARK  1 active torsions:
REMARK  status: ('A' for Active; 'I' for Inactive)
REMARK    1  A    between atoms: C_8  and  C_9 
ROOT
HETATM    1  C   UNL     1       7.287  33.680  64.830  1.00  0.00     0.073 C 
HETATM    2  C   UNL     1       6.784  33.013  63.597  1.00  0.00     0.062 A 
HETATM    3  N   UNL     1       7.556  32.099  63.003  1.00  0.00    -0.178 NA
HETATM    4  N   UNL     1       6.797  31.636  62.012  1.00  0.00    -0.262 N 
HETATM    5  H   UNL     1       7.177  30.898  61.432  1.00  0.00     0.191 HD
HETATM    6  C   UNL     1       5.576  32.246  61.897  1.00  0.00     0.134 A 
HETATM    7  C   UNL     1       5.519  33.183  62.920  1.00  0.00     0.032 A 
HETATM    8  C   UNL     1       4.402  34.052  63.410  1.00  0.00     0.119 C 
HETATM    9  S   UNL     1       2.792  33.992  62.599  1.00  0.00    -0.141 SA
HETATM   10  C   UNL     1       3.174  33.798  60.836  1.00  0.00     0.136 C 
HETATM   11  C   UNL     1       4.105  34.812  60.191  1.00  0.00     0.031 C 
HETATM   12  C   UNL     1       3.555  32.372  60.488  1.00  0.00     0.236 C 
HETATM   13  O   UNL     1       2.872  31.715  59.693  1.00  0.00    -0.272 OA
HETATM   14  N   UNL     1       4.716  31.807  60.922  1.00  0.00    -0.311 N 
HETATM   15  H   UNL     1       4.903  30.925  60.459  1.00  0.00     0.170 HD
ENDROOT
BRANCH   8  16
HETATM   16  C   UNL     1       4.889  35.475  63.665  1.00  0.00    -0.039 A 
HETATM   17  C   UNL     1       5.561  36.144  62.618  1.00  0.00     0.021 A 
HETATM   18  C   UNL     1       5.999  37.474  62.738  1.00  0.00    -0.025 A 
HETATM   19  C   UNL     1       5.792  38.159  63.953  1.00  0.00    -0.026 A 
HETATM   20  C   UNL     1       6.628  38.139  61.672  1.00  0.00     0.012 A 
HETATM   21  C   UNL     1       5.152  37.495  65.008  1.00  0.00     0.013 A 
HETATM   22  C   UNL     1       6.220  39.491  64.074  1.00  0.00     0.012 A 
HETATM   23  C   UNL     1       4.702  36.176  64.864  1.00  0.00     0.009 A 
HETATM   24  C   UNL     1       6.839  40.141  63.004  1.00  0.00     0.001 A 
HETATM   25  C   UNL     1       7.041  39.467  61.804  1.00  0.00     0.001 A 
ENDBRANCH   8  16
TORSDOF 1
ENDMDL
MODEL 5
REMARK VINA RESULT:      -8.4      2.999      5.820
REMARK  1 active torsions:
REMARK  status: ('A' for Active; 'I' for Inactive)
REMARK    1  A    between atoms: C_8  and  C_9 
ROOT
HETATM    1  C   UNL     1       7.915  24.436  54.949  1.00  0.00     0.073 C 
HETATM    2  C   UNL     1       7.501  24.853  53.580  1.00  0.00     0.062 A 
HETATM    3  N   UNL     1       8.119  24.307  52.530  1.00  0.00    -0.178 NA
HETATM    4  N   UNL     1       7.467  24.806  51.482  1.00  0.00    -0.262 N 
HETATM    5  H   UNL     1       7.753  24.501  50.560  1.00  0.00     0.191 HD
HETATM    6  C   UNL     1       6.477  25.698  51.799  1.00  0.00     0.134 A 
HETATM    7  C   UNL     1       6.465  25.779  53.185  1.00  0.00     0.032 A 
HETATM    8  C   UNL     1       5.526  26.461  54.131  1.00  0.00     0.119 C 
HETATM    9  S   UNL     1       4.130  27.407  53.491  1.00  0.00    -0.141 SA
HETATM   10  C   UNL     1       4.773  28.219  52.002  1.00  0.00     0.136 C 
HETATM   11  C   UNL     1       6.027  29.066  52.134  1.00  0.00     0.031 C 
HETATM   12  C   UNL     1       4.847  27.271  50.821  1.00  0.00     0.236 C 
HETATM   13  O   UNL     1       4.182  27.484  49.800  1.00  0.00    -0.272 OA
HETATM   14  N   UNL     1       5.731  26.235  50.780  1.00  0.00    -0.311 N 
HETATM   15  H   UNL     1       5.777  25.814  49.859  1.00  0.00     0.170 HD
ENDROOT
BRANCH   8  16
HETATM   16  C   UNL     1       6.294  27.197  55.226  1.00  0.00    -0.039 A 
HETATM   17  C   UNL     1       7.514  27.818  54.877  1.00  0.00     0.021 A 
HETATM   18  C   UNL     1       8.265  28.564  55.802  1.00  0.00    -0.025 A 
HETATM   19  C   UNL     1       7.807  28.674  57.130  1.00  0.00    -0.026 A 
HETATM   20  C   UNL     1       9.454  29.213  55.428  1.00  0.00     0.012 A 
HETATM   21  C   UNL     1       6.613  28.037  57.493  1.00  0.00     0.013 A 
HETATM   22  C   UNL     1       8.551  29.426  58.055  1.00  0.00     0.012 A 
HETATM   23  C   UNL     1       5.866  27.316  56.555  1.00  0.00     0.009 A 
HETATM   24  C   UNL     1       9.728  30.069  57.668  1.00  0.00     0.001 A 
HETATM   25  C   UNL     1      10.179  29.964  56.356  1.00  0.00     0.001 A 
ENDBRANCH   8  16
TORSDOF 1
ENDMDL
MODEL 6
REMARK VINA RESULT:      -8.4      2.946      4.617
REMARK  1 active torsions:
REMARK  status: ('A' for Active; 'I' for Inactive)
REMARK    1  A    between atoms: C_8  and  C_9 
ROOT
HETATM    1  C   UNL     1       9.140  28.336  57.094  1.00  0.00     0.073 C 
HETATM    2  C   UNL     1       8.062  29.207  57.642  1.00  0.00     0.062 A 
HETATM    3  N   UNL     1       8.203  29.697  58.876  1.00  0.00    -0.178 NA
HETATM    4  N   UNL     1       7.144  30.491  59.026  1.00  0.00    -0.262 N 
HETATM    5  H   UNL     1       7.057  31.002  59.896  1.00  0.00     0.191 HD
HETATM    6  C   UNL     1       6.286  30.502  57.958  1.00  0.00     0.134 A 
HETATM    7  C   UNL     1       6.841  29.651  57.012  1.00  0.00     0.032 A 
HETATM    8  C   UNL     1       6.460  29.361  55.593  1.00  0.00     0.119 C 
HETATM    9  S   UNL     1       5.026  30.172  54.861  1.00  0.00    -0.141 SA
HETATM   10  C   UNL     1       3.806  30.243  56.202  1.00  0.00     0.136 C 
HETATM   11  C   UNL     1       3.437  28.945  56.902  1.00  0.00     0.031 C 
HETATM   12  C   UNL     1       4.104  31.357  57.187  1.00  0.00     0.236 C 
HETATM   13  O   UNL     1       3.300  32.282  57.351  1.00  0.00    -0.272 OA
HETATM   14  N   UNL     1       5.185  31.320  58.014  1.00  0.00    -0.311 N 
HETATM   15  H   UNL     1       5.141  32.041  58.726  1.00  0.00     0.170 HD
ENDROOT
BRANCH   8  16
HETATM   16  C   UNL     1       6.506  27.862  55.312  1.00  0.00    -0.039 A 
HETATM   17  C   UNL     1       7.096  27.431  54.103  1.00  0.00     0.021 A 
HETATM   18  C   UNL     1       7.233  26.070  53.780  1.00  0.00    -0.025 A 
HETATM   19  C   UNL     1       6.739  25.098  54.674  1.00  0.00    -0.026 A 
HETATM   20  C   UNL     1       7.862  25.657  52.594  1.00  0.00     0.012 A 
HETATM   21  C   UNL     1       6.127  25.516  55.862  1.00  0.00     0.013 A 
HETATM   22  C   UNL     1       6.883  23.737  54.359  1.00  0.00     0.012 A 
HETATM   23  C   UNL     1       6.017  26.875  56.179  1.00  0.00     0.009 A 
HETATM   24  C   UNL     1       7.514  23.341  53.178  1.00  0.00     0.001 A 
HETATM   25  C   UNL     1       8.005  24.300  52.297  1.00  0.00     0.001 A 
ENDBRANCH   8  16
TORSDOF 1
ENDMDL
MODEL 7
REMARK VINA RESULT:      -8.3      3.399      6.559
REMARK  1 active torsions:
REMARK  status: ('A' for Active; 'I' for Inactive)
REMARK    1  A    between atoms: C_8  and  C_9 
ROOT
HETATM    1  C   UNL     1       8.916  25.212  57.778  1.00  0.00     0.073 C 
HETATM    2  C   UNL     1       8.249  24.771  56.521  1.00  0.00     0.062 A 
HETATM    3  N   UNL     1       8.624  23.615  55.968  1.00  0.00    -0.178 NA
HETATM    4  N   UNL     1       7.791  23.469  54.939  1.00  0.00    -0.262 N 
HETATM    5  H   UNL     1       7.875  22.628  54.381  1.00  0.00     0.191 HD
HETATM    6  C   UNL     1       6.917  24.508  54.763  1.00  0.00     0.134 A 
HETATM    7  C   UNL     1       7.187  25.413  55.780  1.00  0.00     0.032 A 
HETATM    8  C   UNL     1       6.481  26.661  56.212  1.00  0.00     0.119 C 
HETATM    9  S   UNL     1       5.018  27.223  55.320  1.00  0.00    -0.141 SA
HETATM   10  C   UNL     1       5.375  26.858  53.579  1.00  0.00     0.136 C 
HETATM   11  C   UNL     1       6.659  27.409  52.982  1.00  0.00     0.031 C 
HETATM   12  C   UNL     1       5.178  25.391  53.252  1.00  0.00     0.236 C 
HETATM   13  O   UNL     1       4.328  25.040  52.424  1.00  0.00    -0.272 OA
HETATM   14  N   UNL     1       5.999  24.423  53.745  1.00  0.00    -0.311 N 
HETATM   15  H   UNL     1       5.845  23.529  53.293  1.00  0.00     0.170 HD
ENDROOT
BRANCH   8  16
HETATM   16  C   UNL     1       7.478  27.782  56.490  1.00  0.00    -0.039 A 
HETATM   17  C   UNL     1       7.394  28.453  57.731  1.00  0.00     0.021 A 
HETATM   18  C   UNL     1       8.300  29.461  58.100  1.00  0.00    -0.025 A 
HETATM   19  C   UNL     1       9.311  29.843  57.194  1.00  0.00    -0.026 A 
HETATM   20  C   UNL     1       8.230  30.088  59.356  1.00  0.00     0.012 A 
HETATM   21  C   UNL     1       9.385  29.204  55.949  1.00  0.00     0.013 A 
HETATM   22  C   UNL     1      10.224  30.844  57.564  1.00  0.00     0.012 A 
HETATM   23  C   UNL     1       8.487  28.186  55.605  1.00  0.00     0.009 A 
HETATM   24  C   UNL     1      10.145  31.455  58.817  1.00  0.00     0.001 A 
HETATM   25  C   UNL     1       9.149  31.076  59.712  1.00  0.00     0.001 A 
ENDBRANCH   8  16
TORSDOF 1
ENDMDL
MODEL 8
REMARK VINA RESULT:      -8.1     11.252     14.596
REMARK  1 active torsions:
REMARK  status: ('A' for Active; 'I' for Inactive)
REMARK    1  A    between atoms: C_8  and  C_9 
ROOT
HETATM    1  C   UNL     1       3.108  37.022  60.782  1.00  0.00     0.073 C 
HETATM    2  C   UNL     1       2.933  35.629  61.281  1.00  0.00     0.062 A 
HETATM    3  N   UNL     1       1.727  35.064  61.192  1.00  0.00    -0.178 NA
HETATM    4  N   UNL     1       1.925  33.819  61.623  1.00  0.00    -0.262 N 
HETATM    5  H   UNL     1       1.135  33.186  61.615  1.00  0.00     0.191 HD
HETATM    6  C   UNL     1       3.203  33.559  62.040  1.00  0.00     0.134 A 
HETATM    7  C   UNL     1       3.915  34.735  61.849  1.00  0.00     0.032 A 
HETATM    8  C   UNL     1       5.376  35.042  61.972  1.00  0.00     0.119 C 
HETATM    9  S   UNL     1       6.529  33.751  62.479  1.00  0.00    -0.141 SA
HETATM   10  C   UNL     1       5.625  32.796  63.730  1.00  0.00     0.136 C 
HETATM   11  C   UNL     1       5.042  33.544  64.917  1.00  0.00     0.031 C 
HETATM   12  C   UNL     1       4.622  31.845  63.106  1.00  0.00     0.236 C 
HETATM   13  O   UNL     1       4.731  30.623  63.265  1.00  0.00    -0.272 OA
HETATM   14  N   UNL     1       3.504  32.290  62.469  1.00  0.00    -0.311 N 
HETATM   15  H   UNL     1       2.856  31.535  62.271  1.00  0.00     0.170 HD
ENDROOT
BRANCH   8  16
HETATM   16  C   UNL     1       5.596  36.361  62.708  1.00  0.00    -0.039 A 
HETATM   17  C   UNL     1       6.336  37.370  62.053  1.00  0.00     0.021 A 
HETATM   18  C   UNL     1       6.545  38.637  62.626  1.00  0.00    -0.025 A 
HETATM   19  C   UNL     1       6.028  38.904  63.910  1.00  0.00    -0.026 A 
HETATM   20  C   UNL     1       7.245  39.645  61.943  1.00  0.00     0.012 A 
HETATM   21  C   UNL     1       5.318  37.899  64.580  1.00  0.00     0.013 A 
HETATM   22  C   UNL     1       6.228  40.171  64.482  1.00  0.00     0.012 A 
HETATM   23  C   UNL     1       5.100  36.650  63.986  1.00  0.00     0.009 A 
HETATM   24  C   UNL     1       6.922  41.165  63.790  1.00  0.00     0.001 A 
HETATM   25  C   UNL     1       7.429  40.903  62.521  1.00  0.00     0.001 A 
ENDBRANCH   8  16
TORSDOF 1
ENDMDL
MODEL 9
REMARK VINA RESULT:      -7.9      8.342     12.320
REMARK  1 active torsions:
REMARK  status: ('A' for Active; 'I' for Inactive)
REMARK    1  A    between atoms: C_8  and  C_9 
ROOT
HETATM    1  C   UNL     1       8.035  32.471  62.862  1.00  0.00     0.073 C 
HETATM    2  C   UNL     1       7.752  32.344  61.405  1.00  0.00     0.062 A 
HETATM    3  N   UNL     1       8.778  32.197  60.564  1.00  0.00    -0.178 NA
HETATM    4  N   UNL     1       8.197  32.019  59.379  1.00  0.00    -0.262 N 
HETATM    5  H   UNL     1       8.796  31.855  58.580  1.00  0.00     0.191 HD
HETATM    6  C   UNL     1       6.829  32.096  59.399  1.00  0.00     0.134 A 
HETATM    7  C   UNL     1       6.479  32.327  60.723  1.00  0.00     0.032 A 
HETATM    8  C   UNL     1       5.146  32.357  61.405  1.00  0.00     0.119 C 
HETATM    9  S   UNL     1       3.638  32.091  60.452  1.00  0.00    -0.141 SA
HETATM   10  C   UNL     1       3.943  32.927  58.871  1.00  0.00     0.136 C 
HETATM   11  C   UNL     1       4.351  34.391  58.904  1.00  0.00     0.031 C 
HETATM   12  C   UNL     1       4.830  32.108  57.954  1.00  0.00     0.236 C 
HETATM   13  O   UNL     1       4.409  31.711  56.861  1.00  0.00    -0.272 OA
HETATM   14  N   UNL     1       6.147  31.891  58.226  1.00  0.00    -0.311 N 
HETATM   15  H   UNL     1       6.635  31.485  57.435  1.00  0.00     0.170 HD
ENDROOT
BRANCH   8  16
HETATM   16  C   UNL     1       5.048  33.547  62.356  1.00  0.00    -0.039 A 
HETATM   17  C   UNL     1       4.681  33.295  63.697  1.00  0.00     0.021 A 
HETATM   18  C   UNL     1       4.616  34.318  64.660  1.00  0.00    -0.025 A 
HETATM   19  C   UNL     1       4.896  35.645  64.273  1.00  0.00    -0.026 A 
HETATM   20  C   UNL     1       4.292  34.045  65.999  1.00  0.00     0.012 A 
HETATM   21  C   UNL     1       5.233  35.908  62.939  1.00  0.00     0.013 A 
HETATM   22  C   UNL     1       4.841  36.667  65.235  1.00  0.00     0.012 A 
HETATM   23  C   UNL     1       5.314  34.875  61.997  1.00  0.00     0.009 A 
HETATM   24  C   UNL     1       4.522  36.381  66.564  1.00  0.00     0.001 A 
HETATM   25  C   UNL     1       4.249  35.071  66.946  1.00  0.00     0.001 A 
ENDBRANCH   8  16
TORSDOF 1
ENDMDL
MODEL 10
REMARK VINA RESULT:      -7.9     10.052     12.601
REMARK  1 active torsions:
REMARK  status: ('A' for Active; 'I' for Inactive)
REMARK    1  A    between atoms: C_8  and  C_9 
ROOT
HETATM    1  C   UNL     1       5.303  36.947  61.032  1.00  0.00     0.073 C 
HETATM    2  C   UNL     1       5.424  37.081  62.511  1.00  0.00     0.062 A 
HETATM    3  N   UNL     1       5.844  38.243  63.016  1.00  0.00    -0.178 NA
HETATM    4  N   UNL     1       5.751  38.070  64.334  1.00  0.00    -0.262 N 
HETATM    5  H   UNL     1       5.996  38.851  64.930  1.00  0.00     0.191 HD
HETATM    6  C   UNL     1       5.335  36.822  64.716  1.00  0.00     0.134 A 
HETATM    7  C   UNL     1       5.118  36.115  63.541  1.00  0.00     0.032 A 
HETATM    8  C   UNL     1       4.521  34.764  63.291  1.00  0.00     0.119 C 
HETATM    9  S   UNL     1       3.968  33.753  64.679  1.00  0.00    -0.141 SA
HETATM   10  C   UNL     1       5.198  34.049  65.979  1.00  0.00     0.136 C 
HETATM   11  C   UNL     1       6.662  33.817  65.646  1.00  0.00     0.031 C 
HETATM   12  C   UNL     1       4.977  35.375  66.682  1.00  0.00     0.236 C 
HETATM   13  O   UNL     1       4.720  35.411  67.891  1.00  0.00    -0.272 OA
HETATM   14  N   UNL     1       5.179  36.568  66.056  1.00  0.00    -0.311 N 
HETATM   15  H   UNL     1       5.164  37.345  66.707  1.00  0.00     0.170 HD
ENDROOT
BRANCH   8  16
HETATM   16  C   UNL     1       5.347  33.982  62.275  1.00  0.00    -0.039 A 
HETATM   17  C   UNL     1       6.656  33.595  62.640  1.00  0.00     0.021 A 
HETATM   18  C   UNL     1       7.473  32.827  61.793  1.00  0.00    -0.025 A 
HETATM   19  C   UNL     1       6.989  32.455  60.523  1.00  0.00    -0.026 A 
HETATM   20  C   UNL     1       8.756  32.412  62.189  1.00  0.00     0.012 A 
HETATM   21  C   UNL     1       5.704  32.859  60.139  1.00  0.00     0.013 A 
HETATM   22  C   UNL     1       7.800  31.679  59.678  1.00  0.00     0.012 A 
HETATM   23  C   UNL     1       4.894  33.605  61.003  1.00  0.00     0.009 A 
HETATM   24  C   UNL     1       9.071  31.271  60.086  1.00  0.00     0.001 A 
HETATM   25  C   UNL     1       9.548  31.636  61.342  1.00  0.00     0.001 A 
ENDBRANCH   8  16
TORSDOF 1
ENDMDL
