MODEL 1
REMARK VINA RESULT:      -8.8      0.000      0.000
REMARK  5 active torsions:
REMARK  status: ('A' for Active; 'I' for Inactive)
REMARK    1  A    between atoms: C_9  and  N_10 
REMARK       I    between atoms: N_10  and  C_11 
REMARK    2  A    between atoms: C_11  and  C_12 
REMARK    3  A    between atoms: C_12  and  N_13 
REMARK    4  A    between atoms: C_12  and  C_17 
REMARK    5  A    between atoms: C_17  and  C_18 
ROOT
HETATM    1  N   UNL     1       7.488  26.689  55.441  1.00  0.00    -0.325 N 
HETATM    2  C   UNL     1       6.329  27.247  55.943  1.00  0.00     0.253 C 
HETATM    3  O   UNL     1       5.188  26.791  55.869  1.00  0.00    -0.271 OA
HETATM    4  H   UNL     1       8.370  27.164  55.597  1.00  0.00     0.169 HD
ENDROOT
BRANCH   2   5
HETATM    5  C   UNL     1       6.519  28.577  56.681  1.00  0.00     0.280 C 
BRANCH   5   6
HETATM    6  N   UNL     1       6.993  29.622  55.696  1.00  0.00    -0.066 N 
HETATM    7  H   UNL     1       7.378  29.146  54.854  1.00  0.00     0.275 HD
HETATM    8  H   UNL     1       6.204  30.218  55.410  1.00  0.00     0.275 HD
HETATM    9  H   UNL     1       7.707  30.239  56.096  1.00  0.00     0.275 HD
ENDBRANCH   5   6
BRANCH   5  10
HETATM   10  C   UNL     1       7.542  28.425  57.815  1.00  0.00     0.103 C 
BRANCH  10  11
HETATM   11  C   UNL     1       8.756  29.261  57.598  1.00  0.00     0.053 A 
HETATM   12  N   UNL     1       9.661  28.921  56.612  1.00  0.00    -0.247 NA
HETATM   13  C   UNL     1      10.615  29.826  56.691  1.00  0.00     0.207 A 
HETATM   14  N   UNL     1      10.365  30.735  57.682  1.00  0.00    -0.359 N 
HETATM   15  H   UNL     1      10.959  31.517  57.936  1.00  0.00     0.166 HD
HETATM   16  C   UNL     1       9.177  30.386  58.268  1.00  0.00     0.116 A 
ENDBRANCH  10  11
ENDBRANCH   5  10
ENDBRANCH   2   5
BRANCH   1  17
HETATM   17  C   UNL     1       7.606  25.467  54.737  1.00  0.00     0.035 A 
HETATM   18  C   UNL     1       7.683  25.368  53.349  1.00  0.00     0.030 A 
HETATM   19  C   UNL     1       7.788  24.117  52.732  1.00  0.00     0.014 A 
HETATM   20  C   UNL     1       7.821  22.938  53.489  1.00  0.00    -0.026 A 
HETATM   21  C   UNL     1       7.923  21.677  52.879  1.00  0.00     0.012 A 
HETATM   22  C   UNL     1       7.749  23.025  54.896  1.00  0.00    -0.024 A 
HETATM   23  C   UNL     1       7.955  20.515  53.650  1.00  0.00     0.001 A 
HETATM   24  C   UNL     1       7.887  20.598  55.037  1.00  0.00     0.001 A 
HETATM   25  C   UNL     1       7.785  21.845  55.658  1.00  0.00     0.012 A 
HETATM   26  C   UNL     1       7.642  24.291  55.501  1.00  0.00     0.042 A 
ENDBRANCH   1  17
TORSDOF 5
ENDMDL
MODEL 2
REMARK VINA RESULT:      -8.5      1.746      2.201
REMARK  5 active torsions:
REMARK  status: ('A' for Active; 'I' for Inactive)
REMARK    1  A    between atoms: C_9  and  N_10 
REMARK       I    between atoms: N_10  and  C_11 
REMARK    2  A    between atoms: C_11  and  C_12 
REMARK    3  A    between atoms: C_12  and  N_13 
REMARK    4  A    between atoms: C_12  and  C_17 
REMARK    5  A    between atoms: C_17  and  C_18 
ROOT
HETATM    1  N   UNL     1       6.601  26.113  54.380  1.00  0.00    -0.325 N 
HETATM    2  C   UNL     1       5.396  26.645  53.967  1.00  0.00     0.253 C 
HETATM    3  O   UNL     1       4.546  26.108  53.257  1.00  0.00    -0.271 OA
HETATM    4  H   UNL     1       7.198  26.662  54.989  1.00  0.00     0.169 HD
ENDROOT
BRANCH   2   5
HETATM    5  C   UNL     1       5.107  28.063  54.477  1.00  0.00     0.280 C 
BRANCH   5   6
HETATM    6  N   UNL     1       6.351  28.907  54.315  1.00  0.00    -0.066 N 
HETATM    7  H   UNL     1       6.614  29.307  55.239  1.00  0.00     0.275 HD
HETATM    8  H   UNL     1       7.128  28.324  53.972  1.00  0.00     0.275 HD
HETATM    9  H   UNL     1       6.222  29.665  53.639  1.00  0.00     0.275 HD
ENDBRANCH   5   6
BRANCH   5  10
HETATM   10  C   UNL     1       4.685  28.031  55.952  1.00  0.00     0.103 C 
BRANCH  10  11
HETATM   11  C   UNL     1       5.738  28.579  56.854  1.00  0.00     0.053 A 
HETATM   12  N   UNL     1       6.910  27.877  57.054  1.00  0.00    -0.247 NA
HETATM   13  C   UNL     1       7.606  28.602  57.904  1.00  0.00     0.207 A 
HETATM   14  N   UNL     1       6.938  29.741  58.260  1.00  0.00    -0.359 N 
HETATM   15  H   UNL     1       7.269  30.450  58.905  1.00  0.00     0.166 HD
HETATM   16  C   UNL     1       5.742  29.740  57.592  1.00  0.00     0.116 A 
ENDBRANCH  10  11
ENDBRANCH   5  10
ENDBRANCH   2   5
BRANCH   1  17
HETATM   17  C   UNL     1       7.111  24.828  54.076  1.00  0.00     0.035 A 
HETATM   18  C   UNL     1       7.527  24.433  52.806  1.00  0.00     0.030 A 
HETATM   19  C   UNL     1       8.009  23.137  52.589  1.00  0.00     0.014 A 
HETATM   20  C   UNL     1       8.087  22.211  53.637  1.00  0.00    -0.026 A 
HETATM   21  C   UNL     1       8.567  20.907  53.429  1.00  0.00     0.012 A 
HETATM   22  C   UNL     1       7.673  22.600  54.929  1.00  0.00    -0.024 A 
HETATM   23  C   UNL     1       8.638  19.998  54.485  1.00  0.00     0.001 A 
HETATM   24  C   UNL     1       8.232  20.381  55.761  1.00  0.00     0.001 A 
HETATM   25  C   UNL     1       7.752  21.673  55.982  1.00  0.00     0.012 A 
HETATM   26  C   UNL     1       7.189  23.906  55.130  1.00  0.00     0.042 A 
ENDBRANCH   1  17
TORSDOF 5
ENDMDL
MODEL 3
REMARK VINA RESULT:      -8.3      3.587      5.349
REMARK  5 active torsions:
REMARK  status: ('A' for Active; 'I' for Inactive)
REMARK    1  A    between atoms: C_9  and  N_10 
REMARK       I    between atoms: N_10  and  C_11 
REMARK    2  A    between atoms: C_11  and  C_12 
REMARK    3  A    between atoms: C_12  and  N_13 
REMARK    4  A    between atoms: C_12  and  C_17 
REMARK    5  A    between atoms: C_17  and  C_18 
ROOT
HETATM    1  N   UNL     1       5.679  25.748  53.903  1.00  0.00    -0.325 N 
HETATM    2  C   UNL     1       6.078  27.067  53.985  1.00  0.00     0.253 C 
HETATM    3  O   UNL     1       7.119  27.503  54.476  1.00  0.00    -0.271 OA
HETATM    4  H   UNL     1       4.800  25.528  53.446  1.00  0.00     0.169 HD
ENDROOT
BRANCH   2   5
HETATM    5  C   UNL     1       5.100  28.078  53.373  1.00  0.00     0.280 C 
BRANCH   5   6
HETATM    6  N   UNL     1       3.726  27.450  53.302  1.00  0.00    -0.066 N 
HETATM    7  H   UNL     1       3.549  27.127  52.328  1.00  0.00     0.275 HD
HETATM    8  H   UNL     1       3.677  26.640  53.935  1.00  0.00     0.275 HD
HETATM    9  H   UNL     1       2.986  28.099  53.585  1.00  0.00     0.275 HD
ENDBRANCH   5   6
BRANCH   5  10
HETATM   10  C   UNL     1       5.559  28.493  51.969  1.00  0.00     0.103 C 
BRANCH  10  11
HETATM   11  C   UNL     1       4.857  27.732  50.896  1.00  0.00     0.053 A 
HETATM   12  N   UNL     1       5.161  26.403  50.680  1.00  0.00    -0.247 NA
HETATM   13  C   UNL     1       4.402  26.035  49.669  1.00  0.00     0.207 A 
HETATM   14  N   UNL     1       3.621  27.065  49.224  1.00  0.00    -0.359 N 
HETATM   15  H   UNL     1       2.963  27.025  48.454  1.00  0.00     0.166 HD
HETATM   16  C   UNL     1       3.901  28.157  50.004  1.00  0.00     0.116 A 
ENDBRANCH  10  11
ENDBRANCH   5  10
ENDBRANCH   2   5
BRANCH   1  17
HETATM   17  C   UNL     1       6.389  24.616  54.367  1.00  0.00     0.035 A 
HETATM   18  C   UNL     1       6.705  24.384  55.704  1.00  0.00     0.030 A 
HETATM   19  C   UNL     1       7.422  23.241  56.076  1.00  0.00     0.014 A 
HETATM   20  C   UNL     1       7.835  22.304  55.119  1.00  0.00    -0.026 A 
HETATM   21  C   UNL     1       8.557  21.156  55.482  1.00  0.00     0.012 A 
HETATM   22  C   UNL     1       7.516  22.524  53.762  1.00  0.00    -0.024 A 
HETATM   23  C   UNL     1       8.960  20.234  54.515  1.00  0.00     0.001 A 
HETATM   24  C   UNL     1       8.645  20.447  53.176  1.00  0.00     0.001 A 
HETATM   25  C   UNL     1       7.928  21.585  52.801  1.00  0.00     0.012 A 
HETATM   26  C   UNL     1       6.796  23.680  53.404  1.00  0.00     0.042 A 
ENDBRANCH   1  17
TORSDOF 5
ENDMDL
MODEL 4
REMARK VINA RESULT:      -8.3      4.011      5.549
REMARK  5 active torsions:
REMARK  status: ('A' for Active; 'I' for Inactive)
REMARK    1  A    between atoms: C_9  and  N_10 
REMARK       I    between atoms: N_10  and  C_11 
REMARK    2  A    between atoms: C_11  and  C_12 
REMARK    3  A    between atoms: C_12  and  N_13 
REMARK    4  A    between atoms: C_12  and  C_17 
REMARK    5  A    between atoms: C_17  and  C_18 
ROOT
HETATM    1  N   UNL     1       6.535  25.527  53.550  1.00  0.00    -0.325 N 
HETATM    2  C   UNL     1       5.224  25.822  53.235  1.00  0.00     0.253 C 
HETATM    3  O   UNL     1       4.303  25.026  53.047  1.00  0.00    -0.271 OA
HETATM    4  H   UNL     1       7.187  26.289  53.702  1.00  0.00     0.169 HD
ENDROOT
BRANCH   2   5
HETATM    5  C   UNL     1       4.904  27.318  53.128  1.00  0.00     0.280 C 
BRANCH   5   6
HETATM    6  N   UNL     1       3.404  27.504  53.164  1.00  0.00    -0.066 N 
HETATM    7  H   UNL     1       3.184  28.406  53.636  1.00  0.00     0.275 HD
HETATM    8  H   UNL     1       3.031  27.531  52.205  1.00  0.00     0.275 HD
HETATM    9  H   UNL     1       2.929  26.739  53.651  1.00  0.00     0.275 HD
ENDBRANCH   5   6
BRANCH   5  10
HETATM   10  C   UNL     1       5.473  27.900  51.827  1.00  0.00     0.103 C 
BRANCH  10  11
HETATM   11  C   UNL     1       4.571  27.669  50.662  1.00  0.00     0.053 A 
HETATM   12  N   UNL     1       3.588  28.590  50.356  1.00  0.00    -0.247 NA
HETATM   13  C   UNL     1       2.962  28.091  49.311  1.00  0.00     0.207 A 
HETATM   14  N   UNL     1       3.496  26.893  48.927  1.00  0.00    -0.359 N 
HETATM   15  H   UNL     1       3.177  26.318  48.155  1.00  0.00     0.166 HD
HETATM   16  C   UNL     1       4.529  26.613  49.783  1.00  0.00     0.116 A 
ENDBRANCH  10  11
ENDBRANCH   5  10
ENDBRANCH   2   5
BRANCH   1  17
HETATM   17  C   UNL     1       7.097  24.242  53.727  1.00  0.00     0.035 A 
HETATM   18  C   UNL     1       7.471  23.400  52.681  1.00  0.00     0.030 A 
HETATM   19  C   UNL     1       8.011  22.136  52.947  1.00  0.00     0.014 A 
HETATM   20  C   UNL     1       8.191  21.689  54.262  1.00  0.00    -0.026 A 
HETATM   21  C   UNL     1       8.730  20.421  54.538  1.00  0.00     0.012 A 
HETATM   22  C   UNL     1       7.822  22.533  55.330  1.00  0.00    -0.024 A 
HETATM   23  C   UNL     1       8.902  19.993  55.854  1.00  0.00     0.001 A 
HETATM   24  C   UNL     1       8.541  20.825  56.910  1.00  0.00     0.001 A 
HETATM   25  C   UNL     1       8.004  22.088  56.650  1.00  0.00     0.012 A 
HETATM   26  C   UNL     1       7.278  23.801  55.047  1.00  0.00     0.042 A 
ENDBRANCH   1  17
TORSDOF 5
ENDMDL
MODEL 5
REMARK VINA RESULT:      -8.2      2.795      4.220
REMARK  5 active torsions:
REMARK  status: ('A' for Active; 'I' for Inactive)
REMARK    1  A    between atoms: C_9  and  N_10 
REMARK       I    between atoms: N_10  and  C_11 
REMARK    2  A    between atoms: C_11  and  C_12 
REMARK    3  A    between atoms: C_12  and  N_13 
REMARK    4  A    between atoms: C_12  and  C_17 
REMARK    5  A    between atoms: C_17  and  C_18 
ROOT
HETATM    1  N   UNL     1       6.832  25.871  55.778  1.00  0.00    -0.325 N 
HETATM    2  C   UNL     1       5.702  26.295  56.447  1.00  0.00     0.253 C 
HETATM    3  O   UNL     1       4.931  25.610  57.120  1.00  0.00    -0.271 OA
HETATM    4  H   UNL     1       7.393  26.553  55.278  1.00  0.00     0.169 HD
ENDROOT
BRANCH   2   5
HETATM    5  C   UNL     1       5.407  27.795  56.331  1.00  0.00     0.280 C 
BRANCH   5   6
HETATM    6  N   UNL     1       3.912  28.010  56.417  1.00  0.00    -0.066 N 
HETATM    7  H   UNL     1       3.625  28.010  57.418  1.00  0.00     0.275 HD
HETATM    8  H   UNL     1       3.664  28.917  56.000  1.00  0.00     0.275 HD
HETATM    9  H   UNL     1       3.386  27.291  55.911  1.00  0.00     0.275 HD
ENDBRANCH   5   6
BRANCH   5  10
HETATM   10  C   UNL     1       5.940  28.351  55.004  1.00  0.00     0.103 C 
BRANCH  10  11
HETATM   11  C   UNL     1       4.934  28.262  53.908  1.00  0.00     0.053 A 
HETATM   12  N   UNL     1       4.013  29.275  53.733  1.00  0.00    -0.247 NA
HETATM   13  C   UNL     1       3.265  28.891  52.719  1.00  0.00     0.207 A 
HETATM   14  N   UNL     1       3.664  27.678  52.231  1.00  0.00    -0.359 N 
HETATM   15  H   UNL     1       3.237  27.177  51.459  1.00  0.00     0.166 HD
HETATM   16  C   UNL     1       4.732  27.266  52.982  1.00  0.00     0.116 A 
ENDBRANCH  10  11
ENDBRANCH   5  10
ENDBRANCH   2   5
BRANCH   1  17
HETATM   17  C   UNL     1       7.346  24.553  55.729  1.00  0.00     0.035 A 
HETATM   18  C   UNL     1       7.889  23.884  56.825  1.00  0.00     0.030 A 
HETATM   19  C   UNL     1       8.386  22.584  56.686  1.00  0.00     0.014 A 
HETATM   20  C   UNL     1       8.349  21.924  55.451  1.00  0.00    -0.026 A 
HETATM   21  C   UNL     1       8.849  20.620  55.301  1.00  0.00     0.012 A 
HETATM   22  C   UNL     1       7.798  22.588  54.335  1.00  0.00    -0.024 A 
HETATM   23  C   UNL     1       8.803  19.978  54.063  1.00  0.00     0.001 A 
HETATM   24  C   UNL     1       8.258  20.631  52.961  1.00  0.00     0.001 A 
HETATM   25  C   UNL     1       7.758  21.928  53.095  1.00  0.00     0.012 A 
HETATM   26  C   UNL     1       7.303  23.897  54.490  1.00  0.00     0.042 A 
ENDBRANCH   1  17
TORSDOF 5
ENDMDL
MODEL 6
REMARK VINA RESULT:      -8.1      1.482      1.631
REMARK  5 active torsions:
REMARK  status: ('A' for Active; 'I' for Inactive)
REMARK    1  A    between atoms: C_9  and  N_10 
REMARK       I    between atoms: N_10  and  C_11 
REMARK    2  A    between atoms: C_11  and  C_12 
REMARK    3  A    between atoms: C_12  and  N_13 
REMARK    4  A    between atoms: C_12  and  C_17 
REMARK    5  A    between atoms: C_17  and  C_18 
ROOT
HETATM    1  N   UNL     1       6.950  26.254  54.590  1.00  0.00    -0.325 N 
HETATM    2  C   UNL     1       7.327  26.926  55.735  1.00  0.00     0.253 C 
HETATM    3  O   UNL     1       8.056  26.515  56.637  1.00  0.00    -0.271 OA
HETATM    4  H   UNL     1       6.359  26.727  53.915  1.00  0.00     0.169 HD
ENDROOT
BRANCH   2   5
HETATM    5  C   UNL     1       6.768  28.349  55.864  1.00  0.00     0.280 C 
BRANCH   5   6
HETATM    6  N   UNL     1       7.871  29.339  55.561  1.00  0.00    -0.066 N 
HETATM    7  H   UNL     1       8.649  28.844  55.076  1.00  0.00     0.275 HD
HETATM    8  H   UNL     1       7.514  30.082  54.944  1.00  0.00     0.275 HD
HETATM    9  H   UNL     1       8.229  29.793  56.405  1.00  0.00     0.275 HD
ENDBRANCH   5   6
BRANCH   5  10
HETATM   10  C   UNL     1       6.223  28.590  57.278  1.00  0.00     0.103 C 
BRANCH  10  11
HETATM   11  C   UNL     1       7.019  29.604  58.026  1.00  0.00     0.053 A 
HETATM   12  N   UNL     1       8.215  29.244  58.616  1.00  0.00    -0.247 NA
HETATM   13  C   UNL     1       8.650  30.337  59.208  1.00  0.00     0.207 A 
HETATM   14  N   UNL     1       7.792  31.385  59.025  1.00  0.00    -0.359 N 
HETATM   15  H   UNL     1       7.910  32.323  59.391  1.00  0.00     0.166 HD
HETATM   16  C   UNL     1       6.745  30.929  58.268  1.00  0.00     0.116 A 
ENDBRANCH  10  11
ENDBRANCH   5  10
ENDBRANCH   2   5
BRANCH   1  17
HETATM   17  C   UNL     1       7.330  24.946  54.209  1.00  0.00     0.035 A 
HETATM   18  C   UNL     1       7.618  24.565  52.900  1.00  0.00     0.030 A 
HETATM   19  C   UNL     1       7.976  23.244  52.609  1.00  0.00     0.014 A 
HETATM   20  C   UNL     1       8.056  22.277  53.620  1.00  0.00    -0.026 A 
HETATM   21  C   UNL     1       8.412  20.948  53.337  1.00  0.00     0.012 A 
HETATM   22  C   UNL     1       7.771  22.651  54.950  1.00  0.00    -0.024 A 
HETATM   23  C   UNL     1       8.486  19.999  54.357  1.00  0.00     0.001 A 
HETATM   24  C   UNL     1       8.208  20.366  55.671  1.00  0.00     0.001 A 
HETATM   25  C   UNL     1       7.853  21.684  55.966  1.00  0.00     0.012 A 
HETATM   26  C   UNL     1       7.411  23.984  55.227  1.00  0.00     0.042 A 
ENDBRANCH   1  17
TORSDOF 5
ENDMDL
MODEL 7
REMARK VINA RESULT:      -8.1      1.733      2.563
REMARK  5 active torsions:
REMARK  status: ('A' for Active; 'I' for Inactive)
REMARK    1  A    between atoms: C_9  and  N_10 
REMARK       I    between atoms: N_10  and  C_11 
REMARK    2  A    between atoms: C_11  and  C_12 
REMARK    3  A    between atoms: C_12  and  N_13 
REMARK    4  A    between atoms: C_12  and  C_17 
REMARK    5  A    between atoms: C_17  and  C_18 
ROOT
HETATM    1  N   UNL     1       7.549  26.443  55.871  1.00  0.00    -0.325 N 
HETATM    2  C   UNL     1       7.641  27.242  56.994  1.00  0.00     0.253 C 
HETATM    3  O   UNL     1       7.902  26.888  58.143  1.00  0.00    -0.271 OA
HETATM    4  H   UNL     1       7.349  26.875  54.976  1.00  0.00     0.169 HD
ENDROOT
BRANCH   2   5
HETATM    5  C   UNL     1       7.397  28.735  56.746  1.00  0.00     0.280 C 
BRANCH   5   6
HETATM    6  N   UNL     1       7.321  28.980  55.255  1.00  0.00    -0.066 N 
HETATM    7  H   UNL     1       6.363  28.747  54.920  1.00  0.00     0.275 HD
HETATM    8  H   UNL     1       7.513  29.971  55.053  1.00  0.00     0.275 HD
HETATM    9  H   UNL     1       8.009  28.428  54.735  1.00  0.00     0.275 HD
ENDBRANCH   5   6
BRANCH   5  10
HETATM   10  C   UNL     1       8.524  29.576  57.358  1.00  0.00     0.103 C 
BRANCH  10  11
HETATM   11  C   UNL     1       8.088  30.301  58.585  1.00  0.00     0.053 A 
HETATM   12  N   UNL     1       8.772  30.126  59.771  1.00  0.00    -0.247 NA
HETATM   13  C   UNL     1       8.135  30.869  60.651  1.00  0.00     0.207 A 
HETATM   14  N   UNL     1       7.073  31.519  60.087  1.00  0.00    -0.359 N 
HETATM   15  H   UNL     1       6.431  32.140  60.567  1.00  0.00     0.166 HD
HETATM   16  C   UNL     1       7.033  31.165  58.764  1.00  0.00     0.116 A 
ENDBRANCH  10  11
ENDBRANCH   5  10
ENDBRANCH   2   5
BRANCH   1  17
HETATM   17  C   UNL     1       7.743  25.043  55.807  1.00  0.00     0.035 A 
HETATM   18  C   UNL     1       7.992  24.236  56.916  1.00  0.00     0.030 A 
HETATM   19  C   UNL     1       8.183  22.859  56.762  1.00  0.00     0.014 A 
HETATM   20  C   UNL     1       8.128  22.258  55.497  1.00  0.00    -0.026 A 
HETATM   21  C   UNL     1       8.321  20.877  55.332  1.00  0.00     0.012 A 
HETATM   22  C   UNL     1       7.871  23.063  54.367  1.00  0.00    -0.024 A 
HETATM   23  C   UNL     1       8.262  20.297  54.065  1.00  0.00     0.001 A 
HETATM   24  C   UNL     1       8.007  21.089  52.948  1.00  0.00     0.001 A 
HETATM   25  C   UNL     1       7.813  22.463  53.098  1.00  0.00     0.012 A 
HETATM   26  C   UNL     1       7.683  24.448  54.538  1.00  0.00     0.042 A 
ENDBRANCH   1  17
TORSDOF 5
ENDMDL
MODEL 8
REMARK VINA RESULT:      -7.9      4.356      6.537
REMARK  5 active torsions:
REMARK  status: ('A' for Active; 'I' for Inactive)
REMARK    1  A    between atoms: C_9  and  N_10 
REMARK       I    between atoms: N_10  and  C_11 
REMARK    2  A    between atoms: C_11  and  C_12 
REMARK    3  A    between atoms: C_12  and  N_13 
REMARK    4  A    between atoms: C_12  and  C_17 
REMARK    5  A    between atoms: C_17  and  C_18 
ROOT
HETATM    1  N   UNL     1       6.374  25.267  52.269  1.00  0.00    -0.325 N 
HETATM    2  C   UNL     1       5.316  26.149  52.354  1.00  0.00     0.253 C 
HETATM    3  O   UNL     1       4.562  26.321  53.311  1.00  0.00    -0.271 OA
HETATM    4  H   UNL     1       6.931  25.248  51.422  1.00  0.00     0.169 HD
ENDROOT
BRANCH   2   5
HETATM    5  C   UNL     1       5.088  27.008  51.104  1.00  0.00     0.280 C 
BRANCH   5   6
HETATM    6  N   UNL     1       3.910  27.925  51.346  1.00  0.00    -0.066 N 
HETATM    7  H   UNL     1       4.027  28.394  52.268  1.00  0.00     0.275 HD
HETATM    8  H   UNL     1       3.868  28.643  50.610  1.00  0.00     0.275 HD
HETATM    9  H   UNL     1       3.017  27.423  51.329  1.00  0.00     0.275 HD
ENDBRANCH   5   6
BRANCH   5  10
HETATM   10  C   UNL     1       4.820  26.122  49.881  1.00  0.00     0.103 C 
BRANCH  10  11
HETATM   11  C   UNL     1       4.130  26.862  48.786  1.00  0.00     0.053 A 
HETATM   12  N   UNL     1       4.552  28.130  48.436  1.00  0.00    -0.247 NA
HETATM   13  C   UNL     1       3.738  28.512  47.475  1.00  0.00     0.207 A 
HETATM   14  N   UNL     1       2.813  27.548  47.185  1.00  0.00    -0.359 N 
HETATM   15  H   UNL     1       2.079  27.616  46.488  1.00  0.00     0.166 HD
HETATM   16  C   UNL     1       3.054  26.486  48.017  1.00  0.00     0.116 A 
ENDBRANCH  10  11
ENDBRANCH   5  10
ENDBRANCH   2   5
BRANCH   1  17
HETATM   17  C   UNL     1       6.817  24.374  53.272  1.00  0.00     0.035 A 
HETATM   18  C   UNL     1       6.795  24.656  54.637  1.00  0.00     0.030 A 
HETATM   19  C   UNL     1       7.264  23.717  55.563  1.00  0.00     0.014 A 
HETATM   20  C   UNL     1       7.763  22.477  55.146  1.00  0.00    -0.026 A 
HETATM   21  C   UNL     1       8.238  21.530  56.067  1.00  0.00     0.012 A 
HETATM   22  C   UNL     1       7.787  22.177  53.767  1.00  0.00    -0.024 A 
HETATM   23  C   UNL     1       8.731  20.299  55.632  1.00  0.00     0.001 A 
HETATM   24  C   UNL     1       8.754  20.000  54.273  1.00  0.00     0.001 A 
HETATM   25  C   UNL     1       8.285  20.932  53.345  1.00  0.00     0.012 A 
HETATM   26  C   UNL     1       7.313  23.132  52.847  1.00  0.00     0.042 A 
ENDBRANCH   1  17
TORSDOF 5
ENDMDL
MODEL 9
REMARK VINA RESULT:      -7.9      2.790      3.711
REMARK  5 active torsions:
REMARK  status: ('A' for Active; 'I' for Inactive)
REMARK    1  A    between atoms: C_9  and  N_10 
REMARK       I    between atoms: N_10  and  C_11 
REMARK    2  A    between atoms: C_11  and  C_12 
REMARK    3  A    between atoms: C_12  and  N_13 
REMARK    4  A    between atoms: C_12  and  C_17 
REMARK    5  A    between atoms: C_17  and  C_18 
ROOT
HETATM    1  N   UNL     1       6.449  26.038  54.895  1.00  0.00    -0.325 N 
HETATM    2  C   UNL     1       6.007  26.306  56.174  1.00  0.00     0.253 C 
HETATM    3  O   UNL     1       5.984  25.535  57.134  1.00  0.00    -0.271 OA
HETATM    4  H   UNL     1       6.434  26.781  54.204  1.00  0.00     0.169 HD
ENDROOT
BRANCH   2   5
HETATM    5  C   UNL     1       5.506  27.738  56.399  1.00  0.00     0.280 C 
BRANCH   5   6
HETATM    6  N   UNL     1       3.999  27.717  56.527  1.00  0.00    -0.066 N 
HETATM    7  H   UNL     1       3.733  27.083  57.309  1.00  0.00     0.275 HD
HETATM    8  H   UNL     1       3.652  28.664  56.734  1.00  0.00     0.275 HD
HETATM    9  H   UNL     1       3.540  27.409  55.666  1.00  0.00     0.275 HD
ENDBRANCH   5   6
BRANCH   5  10
HETATM   10  C   UNL     1       5.919  28.645  55.233  1.00  0.00     0.103 C 
BRANCH  10  11
HETATM   11  C   UNL     1       4.774  28.970  54.335  1.00  0.00     0.053 A 
HETATM   12  N   UNL     1       4.229  27.990  53.529  1.00  0.00    -0.247 NA
HETATM   13  C   UNL     1       3.272  28.590  52.854  1.00  0.00     0.207 A 
HETATM   14  N   UNL     1       3.172  29.912  53.189  1.00  0.00    -0.359 N 
HETATM   15  H   UNL     1       2.516  30.579  52.798  1.00  0.00     0.166 HD
HETATM   16  C   UNL     1       4.127  30.167  54.138  1.00  0.00     0.116 A 
ENDBRANCH  10  11
ENDBRANCH   5  10
ENDBRANCH   2   5
BRANCH   1  17
HETATM   17  C   UNL     1       6.976  24.816  54.417  1.00  0.00     0.035 A 
HETATM   18  C   UNL     1       7.319  24.578  53.087  1.00  0.00     0.030 A 
HETATM   19  C   UNL     1       7.824  23.333  52.697  1.00  0.00     0.014 A 
HETATM   20  C   UNL     1       8.000  22.300  53.627  1.00  0.00    -0.026 A 
HETATM   21  C   UNL     1       8.503  21.046  53.245  1.00  0.00     0.012 A 
HETATM   22  C   UNL     1       7.661  22.530  54.977  1.00  0.00    -0.024 A 
HETATM   23  C   UNL     1       8.672  20.030  54.185  1.00  0.00     0.001 A 
HETATM   24  C   UNL     1       8.340  20.254  55.519  1.00  0.00     0.001 A 
HETATM   25  C   UNL     1       7.838  21.496  55.913  1.00  0.00     0.012 A 
HETATM   26  C   UNL     1       7.152  23.787  55.354  1.00  0.00     0.042 A 
ENDBRANCH   1  17
TORSDOF 5
ENDMDL
MODEL 10
REMARK VINA RESULT:      -7.8      5.421     10.511
REMARK  5 active torsions:
REMARK  status: ('A' for Active; 'I' for Inactive)
REMARK    1  A    between atoms: C_9  and  N_10 
REMARK       I    between atoms: N_10  and  C_11 
REMARK    2  A    between atoms: C_11  and  C_12 
REMARK    3  A    between atoms: C_12  and  N_13 
REMARK    4  A    between atoms: C_12  and  C_17 
REMARK    5  A    between atoms: C_17  and  C_18 
ROOT
HETATM    1  N   UNL     1       7.048  31.336  60.473  1.00  0.00    -0.325 N 
HETATM    2  C   UNL     1       7.839  31.649  59.385  1.00  0.00     0.253 C 
HETATM    3  O   UNL     1       8.716  32.509  59.322  1.00  0.00    -0.271 OA
HETATM    4  H   UNL     1       6.376  30.581  60.391  1.00  0.00     0.169 HD
ENDROOT
BRANCH   2   5
HETATM    5  C   UNL     1       7.580  30.802  58.133  1.00  0.00     0.280 C 
BRANCH   5   6
HETATM    6  N   UNL     1       6.244  30.108  58.276  1.00  0.00    -0.066 N 
HETATM    7  H   UNL     1       6.184  29.336  57.580  1.00  0.00     0.275 HD
HETATM    8  H   UNL     1       6.155  29.711  59.222  1.00  0.00     0.275 HD
HETATM    9  H   UNL     1       5.456  30.749  58.144  1.00  0.00     0.275 HD
ENDBRANCH   5   6
BRANCH   5  10
HETATM   10  C   UNL     1       8.692  29.762  57.944  1.00  0.00     0.103 C 
BRANCH  10  11
HETATM   11  C   UNL     1       8.194  28.512  57.302  1.00  0.00     0.053 A 
HETATM   12  N   UNL     1       7.808  27.441  58.083  1.00  0.00    -0.247 NA
HETATM   13  C   UNL     1       7.450  26.503  57.232  1.00  0.00     0.207 A 
HETATM   14  N   UNL     1       7.585  26.920  55.937  1.00  0.00    -0.359 N 
HETATM   15  H   UNL     1       7.379  26.372  55.109  1.00  0.00     0.166 HD
HETATM   16  C   UNL     1       8.058  28.205  55.968  1.00  0.00     0.116 A 
ENDBRANCH  10  11
ENDBRANCH   5  10
ENDBRANCH   2   5
BRANCH   1  17
HETATM   17  C   UNL     1       7.086  31.941  61.751  1.00  0.00     0.035 A 
HETATM   18  C   UNL     1       8.252  32.143  62.487  1.00  0.00     0.030 A 
HETATM   19  C   UNL     1       8.197  32.740  63.752  1.00  0.00     0.014 A 
HETATM   20  C   UNL     1       6.978  33.149  64.306  1.00  0.00    -0.026 A 
HETATM   21  C   UNL     1       6.913  33.747  65.575  1.00  0.00     0.012 A 
HETATM   22  C   UNL     1       5.790  32.955  63.568  1.00  0.00    -0.024 A 
HETATM   23  C   UNL     1       5.689  34.149  66.110  1.00  0.00     0.001 A 
HETATM   24  C   UNL     1       4.516  33.961  65.384  1.00  0.00     0.001 A 
HETATM   25  C   UNL     1       4.566  33.368  64.121  1.00  0.00     0.012 A 
HETATM   26  C   UNL     1       5.861  32.352  62.299  1.00  0.00     0.042 A 
ENDBRANCH   1  17
TORSDOF 5
ENDMDL
