MODEL 1
REMARK VINA RESULT:      -9.4      0.000      0.000
REMARK  8 active torsions:
REMARK  status: ('A' for Active; 'I' for Inactive)
REMARK    1  A    between atoms: C_8  and  C_9 
REMARK    2  A    between atoms: C_9  and  C_10 
REMARK       I    between atoms: C_10  and  N_11 
REMARK    3  A    between atoms: N_11  and  C_27 
REMARK    4  A    between atoms: N_11  and  C_12 
REMARK    5  A    between atoms: C_12  and  C_13 
REMARK    6  A    between atoms: C_12  and  C_22 
REMARK       I    between atoms: C_13  and  N_14 
REMARK    7  A    between atoms: N_14  and  C_15 
REMARK    8  A    between atoms: C_27  and  C_28 
ROOT
HETATM    1  C   UNL     1       5.739  26.648  56.926  1.00  0.00     0.225 C 
HETATM    2  N   UNL     1       5.545  27.993  56.600  1.00  0.00    -0.330 N 
HETATM    3  O   UNL     1       4.840  25.813  56.784  1.00  0.00    -0.273 OA
ENDROOT
BRANCH   2   4
HETATM    4  C   UNL     1       4.251  28.358  55.996  1.00  0.00     0.165 C 
BRANCH   4   5
HETATM    5  C   UNL     1       4.311  28.514  54.492  1.00  0.00    -0.037 A 
HETATM    6  C   UNL     1       4.592  27.403  53.676  1.00  0.00     0.048 A 
HETATM    7  C   UNL     1       4.681  27.599  52.314  1.00  0.00     0.105 A 
HETATM    8  C   UNL     1       4.482  28.833  51.744  1.00  0.00     0.105 A 
HETATM    9  O   UNL     1       4.982  26.646  51.390  1.00  0.00    -0.323 OA
HETATM   10  O   UNL     1       4.625  28.814  50.392  1.00  0.00    -0.323 OA
HETATM   11  C   UNL     1       4.172  29.938  52.502  1.00  0.00     0.040 A 
HETATM   12  C   UNL     1       4.941  27.424  50.174  1.00  0.00     0.352 A 
HETATM   13  C   UNL     1       4.082  29.770  53.887  1.00  0.00     0.012 A 
ENDBRANCH   4   5
ENDBRANCH   2   4
BRANCH   2  14
HETATM   14  C   UNL     1       6.423  29.071  57.129  1.00  0.00     0.219 C 
BRANCH  14  15
HETATM   15  C   UNL     1       5.675  30.426  57.347  1.00  0.00     0.246 C 
HETATM   16  N   UNL     1       5.160  30.693  58.594  1.00  0.00    -0.354 N 
HETATM   17  H   UNL     1       5.191  29.936  59.268  1.00  0.00     0.162 HD
HETATM   18  O   UNL     1       5.637  31.256  56.437  1.00  0.00    -0.271 OA
BRANCH  16  19
HETATM   19  C   UNL     1       4.315  31.829  58.969  1.00  0.00     0.084 C 
HETATM   20  C   UNL     1       3.246  31.536  60.036  1.00  0.00     0.025 C 
HETATM   21  C   UNL     1       3.630  31.852  61.479  1.00  0.00     0.002 C 
HETATM   22  C   UNL     1       4.323  33.199  61.621  1.00  0.00     0.000 C 
HETATM   23  C   UNL     1       5.520  33.320  60.688  1.00  0.00     0.002 C 
HETATM   24  C   UNL     1       5.119  33.109  59.232  1.00  0.00     0.025 C 
ENDBRANCH  16  19
ENDBRANCH  14  15
BRANCH  14  25
HETATM   25  C   UNL     1       7.748  29.169  56.386  1.00  0.00     0.014 A 
HETATM   26  S   UNL     1       9.155  29.704  57.237  1.00  0.00    -0.104 SA
HETATM   27  C   UNL     1      10.152  29.523  55.864  1.00  0.00     0.050 A 
HETATM   28  C   UNL     1       9.463  29.010  54.793  1.00  0.00     0.008 A 
HETATM   29  C   UNL     1       8.091  28.784  55.101  1.00  0.00     0.017 A 
ENDBRANCH  14  25
ENDBRANCH   2  14
BRANCH   1  30
HETATM   30  C   UNL     1       7.120  26.177  57.349  1.00  0.00     0.144 C 
BRANCH  30  31
HETATM   31  C   UNL     1       7.717  24.993  56.649  1.00  0.00    -0.021 A 
HETATM   32  C   UNL     1       7.752  24.633  55.257  1.00  0.00    -0.001 A 
HETATM   33  C   UNL     1       7.293  25.221  54.059  1.00  0.00     0.014 A 
HETATM   34  C   UNL     1       8.375  23.384  55.165  1.00  0.00     0.042 A 
HETATM   35  C   UNL     1       7.438  24.539  52.843  1.00  0.00     0.001 A 
HETATM   36  C   UNL     1       8.050  23.291  52.796  1.00  0.00     0.002 A 
HETATM   37  C   UNL     1       8.540  22.694  53.957  1.00  0.00     0.030 A 
HETATM   38  N   UNL     1       8.754  23.022  56.433  1.00  0.00    -0.365 N 
HETATM   39  H   UNL     1       9.241  22.166  56.663  1.00  0.00     0.165 HD
HETATM   40  C   UNL     1       8.359  23.971  57.330  1.00  0.00     0.097 A 
ENDBRANCH  30  31
ENDBRANCH   1  30
TORSDOF 8
ENDMDL
MODEL 2
REMARK VINA RESULT:      -9.4      2.896      6.409
REMARK  8 active torsions:
REMARK  status: ('A' for Active; 'I' for Inactive)
REMARK    1  A    between atoms: C_8  and  C_9 
REMARK    2  A    between atoms: C_9  and  C_10 
REMARK       I    between atoms: C_10  and  N_11 
REMARK    3  A    between atoms: N_11  and  C_27 
REMARK    4  A    between atoms: N_11  and  C_12 
REMARK    5  A    between atoms: C_12  and  C_13 
REMARK    6  A    between atoms: C_12  and  C_22 
REMARK       I    between atoms: C_13  and  N_14 
REMARK    7  A    between atoms: N_14  and  C_15 
REMARK    8  A    between atoms: C_27  and  C_28 
ROOT
HETATM    1  C   UNL     1       7.979  27.426  56.614  1.00  0.00     0.225 C 
HETATM    2  N   UNL     1       6.934  26.893  55.856  1.00  0.00    -0.330 N 
HETATM    3  O   UNL     1       8.298  26.943  57.704  1.00  0.00    -0.273 OA
ENDROOT
BRANCH   2   4
HETATM    4  C   UNL     1       6.286  25.672  56.369  1.00  0.00     0.165 C 
BRANCH   4   5
HETATM    5  C   UNL     1       7.035  24.403  56.027  1.00  0.00    -0.037 A 
HETATM    6  C   UNL     1       6.918  23.836  54.745  1.00  0.00     0.048 A 
HETATM    7  C   UNL     1       7.583  22.654  54.491  1.00  0.00     0.105 A 
HETATM    8  C   UNL     1       8.362  22.041  55.442  1.00  0.00     0.105 A 
HETATM    9  O   UNL     1       7.547  21.956  53.324  1.00  0.00    -0.323 OA
HETATM   10  O   UNL     1       8.919  20.884  54.995  1.00  0.00    -0.323 OA
HETATM   11  C   UNL     1       8.530  22.580  56.697  1.00  0.00     0.040 A 
HETATM   12  C   UNL     1       8.399  20.837  53.651  1.00  0.00     0.352 A 
HETATM   13  C   UNL     1       7.862  23.773  56.985  1.00  0.00     0.012 A 
ENDBRANCH   4   5
ENDBRANCH   2   4
BRANCH   2  14
HETATM   14  C   UNL     1       6.261  27.667  54.779  1.00  0.00     0.219 C 
BRANCH  14  15
HETATM   15  C   UNL     1       5.075  28.545  55.296  1.00  0.00     0.246 C 
HETATM   16  N   UNL     1       4.997  29.851  54.870  1.00  0.00    -0.354 N 
HETATM   17  H   UNL     1       5.786  30.201  54.338  1.00  0.00     0.162 HD
HETATM   18  O   UNL     1       4.199  28.037  55.996  1.00  0.00    -0.271 OA
BRANCH  16  19
HETATM   19  C   UNL     1       4.056  30.871  55.337  1.00  0.00     0.084 C 
HETATM   20  C   UNL     1       4.306  31.400  56.760  1.00  0.00     0.025 C 
HETATM   21  C   UNL     1       5.132  32.678  56.867  1.00  0.00     0.002 C 
HETATM   22  C   UNL     1       4.714  33.736  55.856  1.00  0.00     0.000 C 
HETATM   23  C   UNL     1       4.716  33.189  54.434  1.00  0.00     0.002 C 
HETATM   24  C   UNL     1       3.806  31.974  54.300  1.00  0.00     0.025 C 
ENDBRANCH  16  19
ENDBRANCH  14  15
BRANCH  14  25
HETATM   25  C   UNL     1       5.959  26.823  53.548  1.00  0.00     0.014 A 
HETATM   26  S   UNL     1       7.259  26.349  52.510  1.00  0.00    -0.104 SA
HETATM   27  C   UNL     1       6.221  25.474  51.477  1.00  0.00     0.050 A 
HETATM   28  C   UNL     1       4.924  25.479  51.928  1.00  0.00     0.008 A 
HETATM   29  C   UNL     1       4.780  26.231  53.128  1.00  0.00     0.017 A 
ENDBRANCH  14  25
ENDBRANCH   2  14
BRANCH   1  30
HETATM   30  C   UNL     1       8.820  28.551  56.034  1.00  0.00     0.144 C 
BRANCH  30  31
HETATM   31  C   UNL     1       9.442  29.538  56.977  1.00  0.00    -0.021 A 
HETATM   32  C   UNL     1       8.870  30.334  58.029  1.00  0.00    -0.001 A 
HETATM   33  C   UNL     1       7.582  30.482  58.585  1.00  0.00     0.014 A 
HETATM   34  C   UNL     1       9.892  31.139  58.544  1.00  0.00     0.042 A 
HETATM   35  C   UNL     1       7.357  31.433  59.589  1.00  0.00     0.001 A 
HETATM   36  C   UNL     1       8.396  32.226  60.064  1.00  0.00     0.002 A 
HETATM   37  C   UNL     1       9.688  32.086  59.556  1.00  0.00     0.030 A 
HETATM   38  N   UNL     1      11.046  30.812  57.878  1.00  0.00    -0.365 N 
HETATM   39  H   UNL     1      11.948  31.231  58.056  1.00  0.00     0.165 HD
HETATM   40  C   UNL     1      10.789  29.862  56.932  1.00  0.00     0.097 A 
ENDBRANCH  30  31
ENDBRANCH   1  30
TORSDOF 8
ENDMDL
MODEL 3
REMARK VINA RESULT:      -9.2      2.143      7.260
REMARK  8 active torsions:
REMARK  status: ('A' for Active; 'I' for Inactive)
REMARK    1  A    between atoms: C_8  and  C_9 
REMARK    2  A    between atoms: C_9  and  C_10 
REMARK       I    between atoms: C_10  and  N_11 
REMARK    3  A    between atoms: N_11  and  C_27 
REMARK    4  A    between atoms: N_11  and  C_12 
REMARK    5  A    between atoms: C_12  and  C_13 
REMARK    6  A    between atoms: C_12  and  C_22 
REMARK       I    between atoms: C_13  and  N_14 
REMARK    7  A    between atoms: N_14  and  C_15 
REMARK    8  A    between atoms: C_27  and  C_28 
ROOT
HETATM    1  C   UNL     1       4.676  28.715  53.822  1.00  0.00     0.225 C 
HETATM    2  N   UNL     1       5.184  28.550  55.113  1.00  0.00    -0.330 N 
HETATM    3  O   UNL     1       3.499  29.033  53.627  1.00  0.00    -0.273 OA
ENDROOT
BRANCH   2   4
HETATM    4  C   UNL     1       4.280  28.859  56.236  1.00  0.00     0.165 C 
BRANCH   4   5
HETATM    5  C   UNL     1       4.336  30.306  56.675  1.00  0.00    -0.037 A 
HETATM    6  C   UNL     1       3.671  30.717  57.843  1.00  0.00     0.048 A 
HETATM    7  C   UNL     1       3.712  32.054  58.182  1.00  0.00     0.105 A 
HETATM    8  C   UNL     1       4.397  32.974  57.425  1.00  0.00     0.105 A 
HETATM    9  O   UNL     1       3.094  32.624  59.251  1.00  0.00    -0.323 OA
HETATM   10  O   UNL     1       4.303  34.235  57.923  1.00  0.00    -0.323 OA
HETATM   11  C   UNL     1       5.089  32.607  56.294  1.00  0.00     0.040 A 
HETATM   12  C   UNL     1       3.476  34.006  59.082  1.00  0.00     0.352 A 
HETATM   13  C   UNL     1       5.059  31.260  55.923  1.00  0.00     0.012 A 
ENDBRANCH   4   5
ENDBRANCH   2   4
BRANCH   2  14
HETATM   14  C   UNL     1       6.432  27.786  55.382  1.00  0.00     0.219 C 
BRANCH  14  15
HETATM   15  C   UNL     1       6.192  26.252  55.559  1.00  0.00     0.246 C 
HETATM   16  N   UNL     1       6.964  25.382  54.824  1.00  0.00    -0.354 N 
HETATM   17  H   UNL     1       7.562  25.795  54.118  1.00  0.00     0.162 HD
HETATM   18  O   UNL     1       5.389  25.853  56.404  1.00  0.00    -0.271 OA
BRANCH  16  19
HETATM   19  C   UNL     1       6.808  23.929  54.740  1.00  0.00     0.084 C 
HETATM   20  C   UNL     1       6.866  23.338  53.321  1.00  0.00     0.025 C 
HETATM   21  C   UNL     1       8.227  22.822  52.861  1.00  0.00     0.002 C 
HETATM   22  C   UNL     1       8.933  21.997  53.926  1.00  0.00     0.000 C 
HETATM   23  C   UNL     1       9.041  22.751  55.245  1.00  0.00     0.002 C 
HETATM   24  C   UNL     1       7.670  23.175  55.761  1.00  0.00     0.025 C 
ENDBRANCH  16  19
ENDBRANCH  14  15
BRANCH  14  25
HETATM   25  C   UNL     1       7.303  28.438  56.447  1.00  0.00     0.014 A 
HETATM   26  S   UNL     1       8.725  29.296  55.965  1.00  0.00    -0.104 SA
HETATM   27  C   UNL     1       9.103  29.731  57.571  1.00  0.00     0.050 A 
HETATM   28  C   UNL     1       8.150  29.297  58.459  1.00  0.00     0.008 A 
HETATM   29  C   UNL     1       7.107  28.578  57.811  1.00  0.00     0.017 A 
ENDBRANCH  14  25
ENDBRANCH   2  14
BRANCH   1  30
HETATM   30  C   UNL     1       5.619  28.620  52.634  1.00  0.00     0.144 C 
BRANCH  30  31
HETATM   31  C   UNL     1       5.294  27.647  51.540  1.00  0.00    -0.021 A 
HETATM   32  C   UNL     1       5.178  27.823  50.118  1.00  0.00    -0.001 A 
HETATM   33  C   UNL     1       5.336  28.905  49.226  1.00  0.00     0.014 A 
HETATM   34  C   UNL     1       4.782  26.595  49.577  1.00  0.00     0.042 A 
HETATM   35  C   UNL     1       5.065  28.735  47.862  1.00  0.00     0.001 A 
HETATM   36  C   UNL     1       4.659  27.501  47.366  1.00  0.00     0.002 A 
HETATM   37  C   UNL     1       4.519  26.403  48.215  1.00  0.00     0.030 A 
HETATM   38  N   UNL     1       4.714  25.695  50.612  1.00  0.00    -0.365 N 
HETATM   39  H   UNL     1       4.464  24.721  50.508  1.00  0.00     0.165 HD
HETATM   40  C   UNL     1       5.010  26.314  51.792  1.00  0.00     0.097 A 
ENDBRANCH  30  31
ENDBRANCH   1  30
TORSDOF 8
ENDMDL
MODEL 4
REMARK VINA RESULT:      -9.1      2.780      7.559
REMARK  8 active torsions:
REMARK  status: ('A' for Active; 'I' for Inactive)
REMARK    1  A    between atoms: C_8  and  C_9 
REMARK    2  A    between atoms: C_9  and  C_10 
REMARK       I    between atoms: C_10  and  N_11 
REMARK    3  A    between atoms: N_11  and  C_27 
REMARK    4  A    between atoms: N_11  and  C_12 
REMARK    5  A    between atoms: C_12  and  C_13 
REMARK    6  A    between atoms: C_12  and  C_22 
REMARK       I    between atoms: C_13  and  N_14 
REMARK    7  A    between atoms: N_14  and  C_15 
REMARK    8  A    between atoms: C_27  and  C_28 
ROOT
HETATM    1  C   UNL     1       7.568  27.269  56.157  1.00  0.00     0.225 C 
HETATM    2  N   UNL     1       6.484  26.681  55.501  1.00  0.00    -0.330 N 
HETATM    3  O   UNL     1       8.144  26.703  57.091  1.00  0.00    -0.273 OA
ENDROOT
BRANCH   2   4
HETATM    4  C   UNL     1       6.111  25.315  55.912  1.00  0.00     0.165 C 
BRANCH   4   5
HETATM    5  C   UNL     1       6.737  24.236  55.056  1.00  0.00    -0.037 A 
HETATM    6  C   UNL     1       7.184  23.038  55.641  1.00  0.00     0.048 A 
HETATM    7  C   UNL     1       7.789  22.101  54.830  1.00  0.00     0.105 A 
HETATM    8  C   UNL     1       7.942  22.301  53.479  1.00  0.00     0.105 A 
HETATM    9  O   UNL     1       8.310  20.912  55.238  1.00  0.00    -0.323 OA
HETATM   10  O   UNL     1       8.571  21.264  52.865  1.00  0.00    -0.323 OA
HETATM   11  C   UNL     1       7.488  23.443  52.861  1.00  0.00     0.040 A 
HETATM   12  C   UNL     1       8.801  20.386  53.986  1.00  0.00     0.352 A 
HETATM   13  C   UNL     1       6.877  24.414  53.661  1.00  0.00     0.012 A 
ENDBRANCH   4   5
ENDBRANCH   2   4
BRANCH   2  14
HETATM   14  C   UNL     1       5.527  27.473  54.682  1.00  0.00     0.219 C 
BRANCH  14  15
HETATM   15  C   UNL     1       6.045  27.764  53.236  1.00  0.00     0.246 C 
HETATM   16  N   UNL     1       5.200  27.516  52.179  1.00  0.00    -0.354 N 
HETATM   17  H   UNL     1       4.330  27.042  52.397  1.00  0.00     0.162 HD
HETATM   18  O   UNL     1       7.150  28.283  53.076  1.00  0.00    -0.271 OA
BRANCH  16  19
HETATM   19  C   UNL     1       5.532  27.589  50.755  1.00  0.00     0.084 C 
HETATM   20  C   UNL     1       4.943  26.470  49.879  1.00  0.00     0.025 C 
HETATM   21  C   UNL     1       3.622  26.784  49.183  1.00  0.00     0.002 C 
HETATM   22  C   UNL     1       3.607  28.168  48.549  1.00  0.00     0.000 C 
HETATM   23  C   UNL     1       3.979  29.252  49.551  1.00  0.00     0.002 C 
HETATM   24  C   UNL     1       5.348  28.996  50.171  1.00  0.00     0.025 C 
ENDBRANCH  16  19
ENDBRANCH  14  15
BRANCH  14  25
HETATM   25  C   UNL     1       4.968  28.675  55.430  1.00  0.00     0.014 A 
HETATM   26  S   UNL     1       4.531  30.093  54.540  1.00  0.00    -0.104 SA
HETATM   27  C   UNL     1       3.998  30.905  55.943  1.00  0.00     0.050 A 
HETATM   28  C   UNL     1       4.083  30.112  57.060  1.00  0.00     0.008 A 
HETATM   29  C   UNL     1       4.616  28.826  56.760  1.00  0.00     0.017 A 
ENDBRANCH  14  25
ENDBRANCH   2  14
BRANCH   1  30
HETATM   30  C   UNL     1       8.130  28.581  55.634  1.00  0.00     0.144 C 
BRANCH  30  31
HETATM   31  C   UNL     1       8.982  29.409  56.550  1.00  0.00    -0.021 A 
HETATM   32  C   UNL     1       8.640  30.215  57.691  1.00  0.00    -0.001 A 
HETATM   33  C   UNL     1       7.449  30.516  58.384  1.00  0.00     0.014 A 
HETATM   34  C   UNL     1       9.817  30.832  58.132  1.00  0.00     0.042 A 
HETATM   35  C   UNL     1       7.467  31.428  59.447  1.00  0.00     0.001 A 
HETATM   36  C   UNL     1       8.655  32.032  59.846  1.00  0.00     0.002 A 
HETATM   37  C   UNL     1       9.856  31.736  59.201  1.00  0.00     0.030 A 
HETATM   38  N   UNL     1      10.839  30.380  57.335  1.00  0.00    -0.365 N 
HETATM   39  H   UNL     1      11.807  30.652  57.437  1.00  0.00     0.165 HD
HETATM   40  C   UNL     1      10.351  29.536  56.380  1.00  0.00     0.097 A 
ENDBRANCH  30  31
ENDBRANCH   1  30
TORSDOF 8
ENDMDL
MODEL 5
REMARK VINA RESULT:      -9.1      2.532      6.918
REMARK  8 active torsions:
REMARK  status: ('A' for Active; 'I' for Inactive)
REMARK    1  A    between atoms: C_8  and  C_9 
REMARK    2  A    between atoms: C_9  and  C_10 
REMARK       I    between atoms: C_10  and  N_11 
REMARK    3  A    between atoms: N_11  and  C_27 
REMARK    4  A    between atoms: N_11  and  C_12 
REMARK    5  A    between atoms: C_12  and  C_13 
REMARK    6  A    between atoms: C_12  and  C_22 
REMARK       I    between atoms: C_13  and  N_14 
REMARK    7  A    between atoms: N_14  and  C_15 
REMARK    8  A    between atoms: C_27  and  C_28 
ROOT
HETATM    1  C   UNL     1       7.714  27.271  56.900  1.00  0.00     0.225 C 
HETATM    2  N   UNL     1       7.171  28.421  56.322  1.00  0.00    -0.330 N 
HETATM    3  O   UNL     1       8.815  27.288  57.460  1.00  0.00    -0.273 OA
ENDROOT
BRANCH   2   4
HETATM    4  C   UNL     1       7.925  29.677  56.486  1.00  0.00     0.165 C 
BRANCH   4   5
HETATM    5  C   UNL     1       7.729  30.325  57.840  1.00  0.00    -0.037 A 
HETATM    6  C   UNL     1       8.619  30.048  58.893  1.00  0.00     0.048 A 
HETATM    7  C   UNL     1       8.377  30.625  60.122  1.00  0.00     0.105 A 
HETATM    8  C   UNL     1       7.314  31.470  60.330  1.00  0.00     0.105 A 
HETATM    9  O   UNL     1       9.113  30.433  61.250  1.00  0.00    -0.323 OA
HETATM   10  O   UNL     1       7.248  31.921  61.611  1.00  0.00    -0.323 OA
HETATM   11  C   UNL     1       6.439  31.794  59.319  1.00  0.00     0.040 A 
HETATM   12  C   UNL     1       8.392  31.260  62.189  1.00  0.00     0.352 A 
HETATM   13  C   UNL     1       6.656  31.217  58.064  1.00  0.00     0.012 A 
ENDBRANCH   4   5
ENDBRANCH   2   4
BRANCH   2  14
HETATM   14  C   UNL     1       6.085  28.360  55.307  1.00  0.00     0.219 C 
BRANCH  14  15
HETATM   15  C   UNL     1       6.614  28.220  53.843  1.00  0.00     0.246 C 
HETATM   16  N   UNL     1       5.695  28.152  52.821  1.00  0.00    -0.354 N 
HETATM   17  H   UNL     1       4.722  28.075  53.093  1.00  0.00     0.162 HD
HETATM   18  O   UNL     1       7.826  28.260  53.625  1.00  0.00    -0.271 OA
BRANCH  16  19
HETATM   19  C   UNL     1       5.973  27.886  51.409  1.00  0.00     0.084 C 
HETATM   20  C   UNL     1       5.908  26.407  50.989  1.00  0.00     0.025 C 
HETATM   21  C   UNL     1       4.579  25.929  50.410  1.00  0.00     0.002 C 
HETATM   22  C   UNL     1       3.992  26.906  49.403  1.00  0.00     0.000 C 
HETATM   23  C   UNL     1       3.874  28.310  49.980  1.00  0.00     0.002 C 
HETATM   24  C   UNL     1       5.222  28.832  50.463  1.00  0.00     0.025 C 
ENDBRANCH  16  19
ENDBRANCH  14  15
BRANCH  14  25
HETATM   25  C   UNL     1       5.022  29.429  55.517  1.00  0.00     0.014 A 
HETATM   26  S   UNL     1       3.834  29.207  56.755  1.00  0.00    -0.104 SA
HETATM   27  C   UNL     1       3.094  30.708  56.426  1.00  0.00     0.050 A 
HETATM   28  C   UNL     1       3.756  31.403  55.445  1.00  0.00     0.008 A 
HETATM   29  C   UNL     1       4.876  30.680  54.943  1.00  0.00     0.017 A 
ENDBRANCH  14  25
ENDBRANCH   2  14
BRANCH   1  30
HETATM   30  C   UNL     1       6.884  25.999  56.949  1.00  0.00     0.144 C 
BRANCH  30  31
HETATM   31  C   UNL     1       7.509  24.720  56.477  1.00  0.00    -0.021 A 
HETATM   32  C   UNL     1       7.565  24.117  55.173  1.00  0.00    -0.001 A 
HETATM   33  C   UNL     1       7.110  24.471  53.885  1.00  0.00     0.014 A 
HETATM   34  C   UNL     1       8.211  22.883  55.312  1.00  0.00     0.042 A 
HETATM   35  C   UNL     1       7.279  23.585  52.813  1.00  0.00     0.001 A 
HETATM   36  C   UNL     1       7.913  22.360  52.996  1.00  0.00     0.002 A 
HETATM   37  C   UNL     1       8.400  21.991  54.249  1.00  0.00     0.030 A 
HETATM   38  N   UNL     1       8.582  22.762  56.628  1.00  0.00    -0.365 N 
HETATM   39  H   UNL     1       9.081  21.971  57.011  1.00  0.00     0.165 HD
HETATM   40  C   UNL     1       8.161  23.850  57.336  1.00  0.00     0.097 A 
ENDBRANCH  30  31
ENDBRANCH   1  30
TORSDOF 8
ENDMDL
MODEL 6
REMARK VINA RESULT:      -8.8      2.352      7.522
REMARK  8 active torsions:
REMARK  status: ('A' for Active; 'I' for Inactive)
REMARK    1  A    between atoms: C_8  and  C_9 
REMARK    2  A    between atoms: C_9  and  C_10 
REMARK       I    between atoms: C_10  and  N_11 
REMARK    3  A    between atoms: N_11  and  C_27 
REMARK    4  A    between atoms: N_11  and  C_12 
REMARK    5  A    between atoms: C_12  and  C_13 
REMARK    6  A    between atoms: C_12  and  C_22 
REMARK       I    between atoms: C_13  and  N_14 
REMARK    7  A    between atoms: N_14  and  C_15 
REMARK    8  A    between atoms: C_27  and  C_28 
ROOT
HETATM    1  C   UNL     1       4.755  28.139  53.037  1.00  0.00     0.225 C 
HETATM    2  N   UNL     1       5.316  27.963  54.304  1.00  0.00    -0.330 N 
HETATM    3  O   UNL     1       3.572  28.466  52.894  1.00  0.00    -0.273 OA
ENDROOT
BRANCH   2   4
HETATM    4  C   UNL     1       4.463  28.271  55.466  1.00  0.00     0.165 C 
BRANCH   4   5
HETATM    5  C   UNL     1       4.685  29.659  56.026  1.00  0.00    -0.037 A 
HETATM    6  C   UNL     1       4.429  30.792  55.232  1.00  0.00     0.048 A 
HETATM    7  C   UNL     1       4.688  32.036  55.767  1.00  0.00     0.105 A 
HETATM    8  C   UNL     1       5.162  32.192  57.048  1.00  0.00     0.105 A 
HETATM    9  O   UNL     1       4.534  33.226  55.126  1.00  0.00    -0.323 OA
HETATM   10  O   UNL     1       5.361  33.496  57.377  1.00  0.00    -0.323 OA
HETATM   11  C   UNL     1       5.394  31.112  57.868  1.00  0.00     0.040 A 
HETATM   12  C   UNL     1       4.960  34.146  56.154  1.00  0.00     0.352 A 
HETATM   13  C   UNL     1       5.148  29.838  57.350  1.00  0.00     0.012 A 
ENDBRANCH   4   5
ENDBRANCH   2   4
BRANCH   2  14
HETATM   14  C   UNL     1       6.569  27.189  54.515  1.00  0.00     0.219 C 
BRANCH  14  15
HETATM   15  C   UNL     1       6.317  25.683  54.847  1.00  0.00     0.246 C 
HETATM   16  N   UNL     1       7.185  24.748  54.332  1.00  0.00    -0.354 N 
HETATM   17  H   UNL     1       7.869  25.085  53.665  1.00  0.00     0.162 HD
HETATM   18  O   UNL     1       5.412  25.372  55.623  1.00  0.00    -0.271 OA
BRANCH  16  19
HETATM   19  C   UNL     1       7.051  23.292  54.409  1.00  0.00     0.084 C 
HETATM   20  C   UNL     1       7.726  22.504  53.273  1.00  0.00     0.025 C 
HETATM   21  C   UNL     1       9.136  21.993  53.553  1.00  0.00     0.002 C 
HETATM   22  C   UNL     1       9.271  21.367  54.934  1.00  0.00     0.000 C 
HETATM   23  C   UNL     1       8.792  22.309  56.030  1.00  0.00     0.002 C 
HETATM   24  C   UNL     1       7.346  22.737  55.809  1.00  0.00     0.025 C 
ENDBRANCH  16  19
ENDBRANCH  14  15
BRANCH  14  25
HETATM   25  C   UNL     1       7.555  27.903  55.429  1.00  0.00     0.014 A 
HETATM   26  S   UNL     1       7.851  27.269  57.011  1.00  0.00    -0.104 SA
HETATM   27  C   UNL     1       8.995  28.483  57.371  1.00  0.00     0.050 A 
HETATM   28  C   UNL     1       9.206  29.321  56.304  1.00  0.00     0.008 A 
HETATM   29  C   UNL     1       8.399  28.973  55.184  1.00  0.00     0.017 A 
ENDBRANCH  14  25
ENDBRANCH   2  14
BRANCH   1  30
HETATM   30  C   UNL     1       5.645  28.045  51.809  1.00  0.00     0.144 C 
BRANCH  30  31
HETATM   31  C   UNL     1       5.043  28.337  50.467  1.00  0.00    -0.021 A 
HETATM   32  C   UNL     1       4.395  27.479  49.511  1.00  0.00    -0.001 A 
HETATM   33  C   UNL     1       4.059  26.110  49.461  1.00  0.00     0.014 A 
HETATM   34  C   UNL     1       4.089  28.260  48.391  1.00  0.00     0.042 A 
HETATM   35  C   UNL     1       3.475  25.573  48.306  1.00  0.00     0.001 A 
HETATM   36  C   UNL     1       3.200  26.380  47.207  1.00  0.00     0.002 A 
HETATM   37  C   UNL     1       3.493  27.743  47.234  1.00  0.00     0.030 A 
HETATM   38  N   UNL     1       4.479  29.546  48.670  1.00  0.00    -0.365 N 
HETATM   39  H   UNL     1       4.365  30.328  48.040  1.00  0.00     0.165 HD
HETATM   40  C   UNL     1       5.059  29.603  49.904  1.00  0.00     0.097 A 
ENDBRANCH  30  31
ENDBRANCH   1  30
TORSDOF 8
ENDMDL
MODEL 7
REMARK VINA RESULT:      -8.6      2.102      2.771
REMARK  8 active torsions:
REMARK  status: ('A' for Active; 'I' for Inactive)
REMARK    1  A    between atoms: C_8  and  C_9 
REMARK    2  A    between atoms: C_9  and  C_10 
REMARK       I    between atoms: C_10  and  N_11 
REMARK    3  A    between atoms: N_11  and  C_27 
REMARK    4  A    between atoms: N_11  and  C_12 
REMARK    5  A    between atoms: C_12  and  C_13 
REMARK    6  A    between atoms: C_12  and  C_22 
REMARK       I    between atoms: C_13  and  N_14 
REMARK    7  A    between atoms: N_14  and  C_15 
REMARK    8  A    between atoms: C_27  and  C_28 
ROOT
HETATM    1  C   UNL     1       6.269  25.793  55.106  1.00  0.00     0.225 C 
HETATM    2  N   UNL     1       5.838  27.115  55.234  1.00  0.00    -0.330 N 
HETATM    3  O   UNL     1       5.596  24.948  54.507  1.00  0.00    -0.273 OA
ENDROOT
BRANCH   2   4
HETATM    4  C   UNL     1       4.586  27.483  54.548  1.00  0.00     0.165 C 
BRANCH   4   5
HETATM    5  C   UNL     1       4.794  27.949  53.124  1.00  0.00    -0.037 A 
HETATM    6  C   UNL     1       4.693  27.037  52.058  1.00  0.00     0.048 A 
HETATM    7  C   UNL     1       4.935  27.496  50.780  1.00  0.00     0.105 A 
HETATM    8  C   UNL     1       5.245  28.811  50.528  1.00  0.00     0.105 A 
HETATM    9  O   UNL     1       4.918  26.743  49.647  1.00  0.00    -0.323 OA
HETATM   10  O   UNL     1       5.457  29.053  49.207  1.00  0.00    -0.323 OA
HETATM   11  C   UNL     1       5.321  29.742  51.537  1.00  0.00     0.040 A 
HETATM   12  C   UNL     1       5.247  27.738  48.654  1.00  0.00     0.352 A 
HETATM   13  C   UNL     1       5.088  29.303  52.844  1.00  0.00     0.012 A 
ENDBRANCH   4   5
ENDBRANCH   2   4
BRANCH   2  14
HETATM   14  C   UNL     1       6.389  28.032  56.268  1.00  0.00     0.219 C 
BRANCH  14  15
HETATM   15  C   UNL     1       5.348  29.078  56.785  1.00  0.00     0.246 C 
HETATM   16  N   UNL     1       5.224  30.266  56.102  1.00  0.00    -0.354 N 
HETATM   17  H   UNL     1       5.906  30.442  55.372  1.00  0.00     0.162 HD
HETATM   18  O   UNL     1       4.608  28.790  57.726  1.00  0.00    -0.271 OA
BRANCH  16  19
HETATM   19  C   UNL     1       4.417  31.423  56.495  1.00  0.00     0.084 C 
HETATM   20  C   UNL     1       5.055  32.797  56.227  1.00  0.00     0.025 C 
HETATM   21  C   UNL     1       4.671  33.473  54.914  1.00  0.00     0.002 C 
HETATM   22  C   UNL     1       3.179  33.394  54.626  1.00  0.00     0.000 C 
HETATM   23  C   UNL     1       2.668  31.960  54.684  1.00  0.00     0.002 C 
HETATM   24  C   UNL     1       2.957  31.316  56.035  1.00  0.00     0.025 C 
ENDBRANCH  16  19
ENDBRANCH  14  15
BRANCH  14  25
HETATM   25  C   UNL     1       7.749  28.598  55.888  1.00  0.00     0.014 A 
HETATM   26  S   UNL     1       8.815  29.145  57.136  1.00  0.00    -0.104 SA
HETATM   27  C   UNL     1      10.037  29.559  56.020  1.00  0.00     0.050 A 
HETATM   28  C   UNL     1       9.687  29.240  54.732  1.00  0.00     0.008 A 
HETATM   29  C   UNL     1       8.386  28.666  54.660  1.00  0.00     0.017 A 
ENDBRANCH  14  25
ENDBRANCH   2  14
BRANCH   1  30
HETATM   30  C   UNL     1       7.652  25.410  55.608  1.00  0.00     0.144 C 
BRANCH  30  31
HETATM   31  C   UNL     1       7.966  23.955  55.796  1.00  0.00    -0.021 A 
HETATM   32  C   UNL     1       8.063  22.876  54.851  1.00  0.00    -0.001 A 
HETATM   33  C   UNL     1       7.939  22.757  53.450  1.00  0.00     0.014 A 
HETATM   34  C   UNL     1       8.310  21.706  55.578  1.00  0.00     0.042 A 
HETATM   35  C   UNL     1       8.027  21.498  52.843  1.00  0.00     0.001 A 
HETATM   36  C   UNL     1       8.259  20.356  53.603  1.00  0.00     0.002 A 
HETATM   37  C   UNL     1       8.415  20.441  54.986  1.00  0.00     0.030 A 
HETATM   38  N   UNL     1       8.415  22.061  56.900  1.00  0.00    -0.365 N 
HETATM   39  H   UNL     1       8.606  21.414  57.652  1.00  0.00     0.165 HD
HETATM   40  C   UNL     1       8.202  23.401  57.044  1.00  0.00     0.097 A 
ENDBRANCH  30  31
ENDBRANCH   1  30
TORSDOF 8
ENDMDL
MODEL 8
REMARK VINA RESULT:      -8.5      2.621      4.065
REMARK  8 active torsions:
REMARK  status: ('A' for Active; 'I' for Inactive)
REMARK    1  A    between atoms: C_8  and  C_9 
REMARK    2  A    between atoms: C_9  and  C_10 
REMARK       I    between atoms: C_10  and  N_11 
REMARK    3  A    between atoms: N_11  and  C_27 
REMARK    4  A    between atoms: N_11  and  C_12 
REMARK    5  A    between atoms: C_12  and  C_13 
REMARK    6  A    between atoms: C_12  and  C_22 
REMARK       I    between atoms: C_13  and  N_14 
REMARK    7  A    between atoms: N_14  and  C_15 
REMARK    8  A    between atoms: C_27  and  C_28 
ROOT
HETATM    1  C   UNL     1       5.436  26.805  53.663  1.00  0.00     0.225 C 
HETATM    2  N   UNL     1       4.800  28.049  53.634  1.00  0.00    -0.330 N 
HETATM    3  O   UNL     1       4.849  25.772  53.327  1.00  0.00    -0.273 OA
ENDROOT
BRANCH   2   4
HETATM    4  C   UNL     1       3.426  28.089  53.099  1.00  0.00     0.165 C 
BRANCH   4   5
HETATM    5  C   UNL     1       3.360  28.463  51.635  1.00  0.00    -0.037 A 
HETATM    6  C   UNL     1       4.472  28.255  50.800  1.00  0.00     0.048 A 
HETATM    7  C   UNL     1       4.383  28.652  49.482  1.00  0.00     0.105 A 
HETATM    8  C   UNL     1       3.240  29.217  48.970  1.00  0.00     0.105 A 
HETATM    9  O   UNL     1       5.374  28.561  48.554  1.00  0.00    -0.323 OA
HETATM   10  O   UNL     1       3.363  29.547  47.657  1.00  0.00    -0.323 OA
HETATM   11  C   UNL     1       2.118  29.407  49.744  1.00  0.00     0.040 A 
HETATM   12  C   UNL     1       4.718  29.127  47.399  1.00  0.00     0.352 A 
HETATM   13  C   UNL     1       2.183  29.020  51.085  1.00  0.00     0.012 A 
ENDBRANCH   4   5
ENDBRANCH   2   4
BRANCH   2  14
HETATM   14  C   UNL     1       5.309  29.218  54.400  1.00  0.00     0.219 C 
BRANCH  14  15
HETATM   15  C   UNL     1       5.918  28.830  55.787  1.00  0.00     0.246 C 
HETATM   16  N   UNL     1       7.129  29.378  56.143  1.00  0.00    -0.354 N 
HETATM   17  H   UNL     1       7.613  29.908  55.428  1.00  0.00     0.162 HD
HETATM   18  O   UNL     1       5.273  28.121  56.560  1.00  0.00    -0.271 OA
BRANCH  16  19
HETATM   19  C   UNL     1       7.928  29.044  57.323  1.00  0.00     0.084 C 
HETATM   20  C   UNL     1       9.434  28.859  57.072  1.00  0.00     0.025 C 
HETATM   21  C   UNL     1      10.313  30.084  57.310  1.00  0.00     0.002 C 
HETATM   22  C   UNL     1       9.965  30.814  58.600  1.00  0.00     0.000 C 
HETATM   23  C   UNL     1       8.486  31.169  58.666  1.00  0.00     0.002 C 
HETATM   24  C   UNL     1       7.606  29.931  58.533  1.00  0.00     0.025 C 
ENDBRANCH  16  19
ENDBRANCH  14  15
BRANCH  14  25
HETATM   25  C   UNL     1       4.328  30.381  54.420  1.00  0.00     0.014 A 
HETATM   26  S   UNL     1       3.374  30.656  55.836  1.00  0.00    -0.104 SA
HETATM   27  C   UNL     1       2.625  32.033  55.161  1.00  0.00     0.050 A 
HETATM   28  C   UNL     1       3.121  32.328  53.915  1.00  0.00     0.008 A 
HETATM   29  C   UNL     1       4.114  31.396  53.502  1.00  0.00     0.017 A 
ENDBRANCH  14  25
ENDBRANCH   2  14
BRANCH   1  30
HETATM   30  C   UNL     1       6.916  26.734  53.999  1.00  0.00     0.144 C 
BRANCH  30  31
HETATM   31  C   UNL     1       7.428  25.522  54.719  1.00  0.00    -0.021 A 
HETATM   32  C   UNL     1       7.735  24.198  54.248  1.00  0.00    -0.001 A 
HETATM   33  C   UNL     1       7.707  23.550  52.996  1.00  0.00     0.014 A 
HETATM   34  C   UNL     1       8.108  23.437  55.361  1.00  0.00     0.042 A 
HETATM   35  C   UNL     1       8.013  22.186  52.906  1.00  0.00     0.001 A 
HETATM   36  C   UNL     1       8.365  21.459  54.038  1.00  0.00     0.002 A 
HETATM   37  C   UNL     1       8.429  22.076  55.288  1.00  0.00     0.030 A 
HETATM   38  N   UNL     1       8.086  24.269  56.452  1.00  0.00    -0.365 N 
HETATM   39  H   UNL     1       8.326  23.986  57.392  1.00  0.00     0.165 HD
HETATM   40  C   UNL     1       7.672  25.516  56.083  1.00  0.00     0.097 A 
ENDBRANCH  30  31
ENDBRANCH   1  30
TORSDOF 8
ENDMDL
MODEL 9
REMARK VINA RESULT:      -8.5      3.412      5.852
REMARK  8 active torsions:
REMARK  status: ('A' for Active; 'I' for Inactive)
REMARK    1  A    between atoms: C_8  and  C_9 
REMARK    2  A    between atoms: C_9  and  C_10 
REMARK       I    between atoms: C_10  and  N_11 
REMARK    3  A    between atoms: N_11  and  C_27 
REMARK    4  A    between atoms: N_11  and  C_12 
REMARK    5  A    between atoms: C_12  and  C_13 
REMARK    6  A    between atoms: C_12  and  C_22 
REMARK       I    between atoms: C_13  and  N_14 
REMARK    7  A    between atoms: N_14  and  C_15 
REMARK    8  A    between atoms: C_27  and  C_28 
ROOT
HETATM    1  C   UNL     1       4.905  25.866  52.203  1.00  0.00     0.225 C 
HETATM    2  N   UNL     1       5.280  27.203  52.044  1.00  0.00    -0.330 N 
HETATM    3  O   UNL     1       4.867  25.088  51.245  1.00  0.00    -0.273 OA
ENDROOT
BRANCH   2   4
HETATM    4  C   UNL     1       5.715  27.624  50.699  1.00  0.00     0.165 C 
BRANCH   4   5
HETATM    5  C   UNL     1       4.694  27.339  49.619  1.00  0.00    -0.037 A 
HETATM    6  C   UNL     1       3.399  27.880  49.710  1.00  0.00     0.048 A 
HETATM    7  C   UNL     1       2.487  27.558  48.726  1.00  0.00     0.105 A 
HETATM    8  C   UNL     1       2.819  26.751  47.665  1.00  0.00     0.105 A 
HETATM    9  O   UNL     1       1.188  27.962  48.682  1.00  0.00    -0.323 OA
HETATM   10  O   UNL     1       1.776  26.549  46.816  1.00  0.00    -0.323 OA
HETATM   11  C   UNL     1       4.083  26.229  47.521  1.00  0.00     0.040 A 
HETATM   12  C   UNL     1       0.745  27.320  47.467  1.00  0.00     0.352 A 
HETATM   13  C   UNL     1       5.026  26.533  48.507  1.00  0.00     0.012 A 
ENDBRANCH   4   5
ENDBRANCH   2   4
BRANCH   2  14
HETATM   14  C   UNL     1       4.948  28.245  53.053  1.00  0.00     0.219 C 
BRANCH  14  15
HETATM   15  C   UNL     1       4.270  29.510  52.434  1.00  0.00     0.246 C 
HETATM   16  N   UNL     1       5.032  30.337  51.642  1.00  0.00    -0.354 N 
HETATM   17  H   UNL     1       6.026  30.139  51.607  1.00  0.00     0.162 HD
HETATM   18  O   UNL     1       3.062  29.695  52.593  1.00  0.00    -0.271 OA
BRANCH  16  19
HETATM   19  C   UNL     1       4.632  31.631  51.085  1.00  0.00     0.084 C 
HETATM   20  C   UNL     1       5.786  32.552  50.656  1.00  0.00     0.025 C 
HETATM   21  C   UNL     1       6.188  32.488  49.185  1.00  0.00     0.002 C 
HETATM   22  C   UNL     1       4.989  32.487  48.248  1.00  0.00     0.000 C 
HETATM   23  C   UNL     1       3.997  31.387  48.603  1.00  0.00     0.002 C 
HETATM   24  C   UNL     1       3.513  31.512  50.043  1.00  0.00     0.025 C 
ENDBRANCH  16  19
ENDBRANCH  14  15
BRANCH  14  25
HETATM   25  C   UNL     1       6.097  28.523  54.012  1.00  0.00     0.014 A 
HETATM   26  S   UNL     1       5.760  29.254  55.543  1.00  0.00    -0.104 SA
HETATM   27  C   UNL     1       7.398  29.207  56.016  1.00  0.00     0.050 A 
HETATM   28  C   UNL     1       8.188  28.598  55.072  1.00  0.00     0.008 A 
HETATM   29  C   UNL     1       7.437  28.184  53.935  1.00  0.00     0.017 A 
ENDBRANCH  14  25
ENDBRANCH   2  14
BRANCH   1  30
HETATM   30  C   UNL     1       4.655  25.325  53.601  1.00  0.00     0.144 C 
BRANCH  30  31
HETATM   31  C   UNL     1       5.833  24.890  54.420  1.00  0.00    -0.021 A 
HETATM   32  C   UNL     1       6.895  23.962  54.135  1.00  0.00    -0.001 A 
HETATM   33  C   UNL     1       7.252  23.156  53.033  1.00  0.00     0.014 A 
HETATM   34  C   UNL     1       7.692  23.877  55.282  1.00  0.00     0.042 A 
HETATM   35  C   UNL     1       8.348  22.288  53.126  1.00  0.00     0.001 A 
HETATM   36  C   UNL     1       9.107  22.221  54.290  1.00  0.00     0.002 A 
HETATM   37  C   UNL     1       8.798  23.024  55.388  1.00  0.00     0.030 A 
HETATM   38  N   UNL     1       7.177  24.753  56.204  1.00  0.00    -0.365 N 
HETATM   39  H   UNL     1       7.564  24.908  57.125  1.00  0.00     0.165 HD
HETATM   40  C   UNL     1       6.060  25.358  55.704  1.00  0.00     0.097 A 
ENDBRANCH  30  31
ENDBRANCH   1  30
TORSDOF 8
ENDMDL
MODEL 10
REMARK VINA RESULT:      -8.3      2.847      7.418
REMARK  8 active torsions:
REMARK  status: ('A' for Active; 'I' for Inactive)
REMARK    1  A    between atoms: C_8  and  C_9 
REMARK    2  A    between atoms: C_9  and  C_10 
REMARK       I    between atoms: C_10  and  N_11 
REMARK    3  A    between atoms: N_11  and  C_27 
REMARK    4  A    between atoms: N_11  and  C_12 
REMARK    5  A    between atoms: C_12  and  C_13 
REMARK    6  A    between atoms: C_12  and  C_22 
REMARK       I    between atoms: C_13  and  N_14 
REMARK    7  A    between atoms: N_14  and  C_15 
REMARK    8  A    between atoms: C_27  and  C_28 
ROOT
HETATM    1  C   UNL     1       6.356  28.472  56.611  1.00  0.00     0.225 C 
HETATM    2  N   UNL     1       6.153  27.540  55.591  1.00  0.00    -0.330 N 
HETATM    3  O   UNL     1       5.972  28.262  57.765  1.00  0.00    -0.273 OA
ENDROOT
BRANCH   2   4
HETATM    4  C   UNL     1       5.539  26.253  55.969  1.00  0.00     0.165 C 
BRANCH   4   5
HETATM    5  C   UNL     1       6.538  25.125  56.102  1.00  0.00    -0.037 A 
HETATM    6  C   UNL     1       6.424  23.980  55.294  1.00  0.00     0.048 A 
HETATM    7  C   UNL     1       7.330  22.956  55.480  1.00  0.00     0.105 A 
HETATM    8  C   UNL     1       8.340  23.041  56.408  1.00  0.00     0.105 A 
HETATM    9  O   UNL     1       7.339  21.770  54.814  1.00  0.00    -0.323 OA
HETATM   10  O   UNL     1       9.115  21.924  56.440  1.00  0.00    -0.323 OA
HETATM   11  C   UNL     1       8.507  24.157  57.194  1.00  0.00     0.040 A 
HETATM   12  C   UNL     1       8.475  21.123  55.426  1.00  0.00     0.352 A 
HETATM   13  C   UNL     1       7.599  25.207  57.032  1.00  0.00     0.012 A 
ENDBRANCH   4   5
ENDBRANCH   2   4
BRANCH   2  14
HETATM   14  C   UNL     1       6.217  27.912  54.152  1.00  0.00     0.219 C 
BRANCH  14  15
HETATM   15  C   UNL     1       4.958  28.697  53.660  1.00  0.00     0.246 C 
HETATM   16  N   UNL     1       5.088  29.515  52.561  1.00  0.00    -0.354 N 
HETATM   17  H   UNL     1       6.029  29.653  52.209  1.00  0.00     0.162 HD
HETATM   18  O   UNL     1       3.868  28.506  54.202  1.00  0.00    -0.271 OA
BRANCH  16  19
HETATM   19  C   UNL     1       4.080  30.432  52.027  1.00  0.00     0.084 C 
HETATM   20  C   UNL     1       4.552  31.880  51.808  1.00  0.00     0.025 C 
HETATM   21  C   UNL     1       5.039  32.224  50.403  1.00  0.00     0.002 C 
HETATM   22  C   UNL     1       4.126  31.677  49.314  1.00  0.00     0.000 C 
HETATM   23  C   UNL     1       3.895  30.180  49.472  1.00  0.00     0.002 C 
HETATM   24  C   UNL     1       3.308  29.845  50.838  1.00  0.00     0.025 C 
ENDBRANCH  16  19
ENDBRANCH  14  15
BRANCH  14  25
HETATM   25  C   UNL     1       6.653  26.755  53.264  1.00  0.00     0.014 A 
HETATM   26  S   UNL     1       5.493  26.006  52.223  1.00  0.00    -0.104 SA
HETATM   27  C   UNL     1       6.647  24.926  51.581  1.00  0.00     0.050 A 
HETATM   28  C   UNL     1       7.902  25.155  52.088  1.00  0.00     0.008 A 
HETATM   29  C   UNL     1       7.909  26.220  53.033  1.00  0.00     0.017 A 
ENDBRANCH  14  25
ENDBRANCH   2  14
BRANCH   1  30
HETATM   30  C   UNL     1       7.174  29.721  56.324  1.00  0.00     0.144 C 
BRANCH  30  31
HETATM   31  C   UNL     1       8.174  30.170  57.348  1.00  0.00    -0.021 A 
HETATM   32  C   UNL     1       8.023  30.970  58.534  1.00  0.00    -0.001 A 
HETATM   33  C   UNL     1       6.941  31.595  59.189  1.00  0.00     0.014 A 
HETATM   34  C   UNL     1       9.298  31.145  59.083  1.00  0.00     0.042 A 
HETATM   35  C   UNL     1       7.170  32.383  60.325  1.00  0.00     0.001 A 
HETATM   36  C   UNL     1       8.455  32.545  60.832  1.00  0.00     0.002 A 
HETATM   37  C   UNL     1       9.544  31.919  60.224  1.00  0.00     0.030 A 
HETATM   38  N   UNL     1      10.180  30.439  58.303  1.00  0.00    -0.365 N 
HETATM   39  H   UNL     1      11.174  30.377  58.476  1.00  0.00     0.165 HD
HETATM   40  C   UNL     1       9.521  29.859  57.258  1.00  0.00     0.097 A 
ENDBRANCH  30  31
ENDBRANCH   1  30
TORSDOF 8
ENDMDL
