MODEL 1
REMARK VINA RESULT:      -8.5      0.000      0.000
REMARK  3 active torsions:
REMARK  status: ('A' for Active; 'I' for Inactive)
REMARK    1  A    between atoms: C_2  and  N_3 
REMARK    2  A    between atoms: N_10  and  C_11 
REMARK    3  A    between atoms: C_11  and  C_12 
ROOT
HETATM    1  N   UNL     1       6.426  29.791  57.353  1.00  0.00    -0.063 N 
HETATM    2  H   UNL     1       6.465  30.097  56.362  1.00  0.00     0.280 HD
HETATM    3  C   UNL     1       7.060  28.405  57.303  1.00  0.00     0.277 C 
HETATM    4  C   UNL     1       6.625  27.659  56.024  1.00  0.00     0.132 C 
HETATM    5  O   UNL     1       6.910  28.575  54.932  1.00  0.00    -0.373 OA
HETATM    6  C   UNL     1       6.785  27.938  53.647  1.00  0.00     0.199 C 
HETATM    7  C   UNL     1       7.751  26.750  53.525  1.00  0.00     0.299 C 
HETATM    8  N   UNL     1       7.576  25.752  54.591  1.00  0.00     0.097 N 
HETATM    9  C   UNL     1       7.511  26.382  55.910  1.00  0.00     0.314 C 
HETATM   10  C   UNL     1       5.114  27.334  56.099  1.00  0.00     0.209 C 
HETATM   11  O   UNL     1       4.306  28.418  55.657  1.00  0.00    -0.386 OA
HETATM   12  C   UNL     1       4.065  29.527  56.506  1.00  0.00     0.195 C 
HETATM   13  C   UNL     1       4.956  29.728  57.733  1.00  0.00     0.261 C 
ENDROOT
BRANCH   1  14
HETATM   14  C   UNL     1       7.197  30.835  58.154  1.00  0.00     0.180 C 
HETATM   15  C   UNL     1       8.176  30.162  59.112  1.00  0.00     0.039 C 
HETATM   16  C   UNL     1       6.247  31.788  58.872  1.00  0.00     0.039 C 
ENDBRANCH   1  14
BRANCH   8  17
HETATM   17  C   UNL     1       6.548  24.752  54.308  1.00  0.00     0.311 C 
BRANCH  17  18
HETATM   18  C   UNL     1       7.150  23.364  54.284  1.00  0.00    -0.030 A 
HETATM   19  C   UNL     1       7.343  22.663  55.488  1.00  0.00     0.012 A 
HETATM   20  C   UNL     1       7.898  21.383  55.483  1.00  0.00     0.043 A 
HETATM   21  C   UNL     1       8.268  20.803  54.274  1.00  0.00     0.116 A 
HETATM   22  F   UNL     1       8.798  19.575  54.267  1.00  0.00    -0.206 F 
HETATM   23  C   UNL     1       8.096  21.484  53.074  1.00  0.00     0.043 A 
HETATM   24  C   UNL     1       7.540  22.765  53.078  1.00  0.00     0.012 A 
ENDBRANCH  17  18
ENDBRANCH   8  17
TORSDOF 3
ENDMDL
MODEL 2
REMARK VINA RESULT:      -8.2      3.559      7.762
REMARK  3 active torsions:
REMARK  status: ('A' for Active; 'I' for Inactive)
REMARK    1  A    between atoms: C_2  and  N_3 
REMARK    2  A    between atoms: N_10  and  C_11 
REMARK    3  A    between atoms: C_11  and  C_12 
ROOT
HETATM    1  N   UNL     1       7.724  22.317  55.048  1.00  0.00    -0.063 N 
HETATM    2  H   UNL     1       6.717  22.552  55.139  1.00  0.00     0.280 HD
HETATM    3  C   UNL     1       8.399  23.401  55.881  1.00  0.00     0.277 C 
HETATM    4  C   UNL     1       7.682  24.755  55.688  1.00  0.00     0.132 C 
HETATM    5  O   UNL     1       6.277  24.481  55.941  1.00  0.00    -0.373 OA
HETATM    6  C   UNL     1       5.502  25.691  56.038  1.00  0.00     0.199 C 
HETATM    7  C   UNL     1       6.017  26.585  57.176  1.00  0.00     0.299 C 
HETATM    8  N   UNL     1       7.443  26.921  57.045  1.00  0.00     0.097 N 
HETATM    9  C   UNL     1       8.249  25.734  56.759  1.00  0.00     0.314 C 
HETATM   10  C   UNL     1       7.901  25.258  54.241  1.00  0.00     0.209 C 
HETATM   11  O   UNL     1       6.957  24.708  53.330  1.00  0.00    -0.386 OA
HETATM   12  C   UNL     1       7.113  23.385  52.847  1.00  0.00     0.195 C 
HETATM   13  C   UNL     1       8.069  22.438  53.574  1.00  0.00     0.261 C 
ENDROOT
BRANCH   1  14
HETATM   14  C   UNL     1       7.880  20.894  55.575  1.00  0.00     0.180 C 
HETATM   15  C   UNL     1       8.459  20.905  56.988  1.00  0.00     0.039 C 
HETATM   16  C   UNL     1       8.706  20.042  54.618  1.00  0.00     0.039 C 
ENDBRANCH   1  14
BRANCH   8  17
HETATM   17  C   UNL     1       7.706  28.090  56.208  1.00  0.00     0.311 C 
BRANCH  17  18
HETATM   18  C   UNL     1       8.489  29.130  56.979  1.00  0.00    -0.030 A 
HETATM   19  C   UNL     1       7.897  29.781  58.077  1.00  0.00     0.012 A 
HETATM   20  C   UNL     1       8.605  30.743  58.797  1.00  0.00     0.043 A 
HETATM   21  C   UNL     1       9.905  31.062  58.419  1.00  0.00     0.116 A 
HETATM   22  F   UNL     1      10.584  31.983  59.110  1.00  0.00    -0.206 F 
HETATM   23  C   UNL     1      10.503  30.439  57.329  1.00  0.00     0.043 A 
HETATM   24  C   UNL     1       9.796  29.475  56.607  1.00  0.00     0.012 A 
ENDBRANCH  17  18
ENDBRANCH   8  17
TORSDOF 3
ENDMDL
MODEL 3
REMARK VINA RESULT:      -8.2      1.435      2.547
REMARK  3 active torsions:
REMARK  status: ('A' for Active; 'I' for Inactive)
REMARK    1  A    between atoms: C_2  and  N_3 
REMARK    2  A    between atoms: N_10  and  C_11 
REMARK    3  A    between atoms: C_11  and  C_12 
ROOT
HETATM    1  N   UNL     1       5.535  29.574  57.618  1.00  0.00    -0.063 N 
HETATM    2  H   UNL     1       5.519  28.739  58.235  1.00  0.00     0.280 HD
HETATM    3  C   UNL     1       5.522  28.962  56.222  1.00  0.00     0.277 C 
HETATM    4  C   UNL     1       6.397  27.691  56.182  1.00  0.00     0.132 C 
HETATM    5  O   UNL     1       5.929  26.871  57.287  1.00  0.00    -0.373 OA
HETATM    6  C   UNL     1       6.481  25.542  57.243  1.00  0.00     0.199 C 
HETATM    7  C   UNL     1       6.098  24.830  55.937  1.00  0.00     0.299 C 
HETATM    8  N   UNL     1       6.503  25.573  54.734  1.00  0.00     0.097 N 
HETATM    9  C   UNL     1       6.122  26.983  54.822  1.00  0.00     0.314 C 
HETATM   10  C   UNL     1       7.884  28.078  56.366  1.00  0.00     0.209 C 
HETATM   11  O   UNL     1       8.245  28.198  57.736  1.00  0.00    -0.386 OA
HETATM   12  C   UNL     1       7.899  29.360  58.470  1.00  0.00     0.195 C 
HETATM   13  C   UNL     1       6.836  30.304  57.905  1.00  0.00     0.261 C 
ENDROOT
BRANCH   1  14
HETATM   14  C   UNL     1       4.305  30.399  57.984  1.00  0.00     0.180 C 
HETATM   15  C   UNL     1       3.297  30.396  56.837  1.00  0.00     0.039 C 
HETATM   16  C   UNL     1       4.695  31.810  58.407  1.00  0.00     0.039 C 
ENDBRANCH   1  14
BRANCH   8  17
HETATM   17  C   UNL     1       7.874  25.308  54.302  1.00  0.00     0.311 C 
BRANCH  17  18
HETATM   18  C   UNL     1       8.116  23.818  54.189  1.00  0.00    -0.030 A 
HETATM   19  C   UNL     1       8.875  23.156  55.170  1.00  0.00     0.012 A 
HETATM   20  C   UNL     1       9.108  21.783  55.079  1.00  0.00     0.043 A 
HETATM   21  C   UNL     1       8.588  21.071  54.004  1.00  0.00     0.116 A 
HETATM   22  F   UNL     1       8.809  19.755  53.917  1.00  0.00    -0.206 F 
HETATM   23  C   UNL     1       7.845  21.710  53.018  1.00  0.00     0.043 A 
HETATM   24  C   UNL     1       7.610  23.084  53.107  1.00  0.00     0.012 A 
ENDBRANCH  17  18
ENDBRANCH   8  17
TORSDOF 3
ENDMDL
MODEL 4
REMARK VINA RESULT:      -7.8      2.158      3.658
REMARK  3 active torsions:
REMARK  status: ('A' for Active; 'I' for Inactive)
REMARK    1  A    between atoms: C_2  and  N_3 
REMARK    2  A    between atoms: N_10  and  C_11 
REMARK    3  A    between atoms: C_11  and  C_12 
ROOT
HETATM    1  N   UNL     1       8.664  30.403  59.117  1.00  0.00    -0.063 N 
HETATM    2  H   UNL     1       9.075  29.462  59.272  1.00  0.00     0.280 HD
HETATM    3  C   UNL     1       7.459  30.102  58.233  1.00  0.00     0.277 C 
HETATM    4  C   UNL     1       7.802  28.997  57.211  1.00  0.00     0.132 C 
HETATM    5  O   UNL     1       8.353  27.907  58.000  1.00  0.00    -0.373 OA
HETATM    6  C   UNL     1       8.502  26.703  57.225  1.00  0.00     0.199 C 
HETATM    7  C   UNL     1       7.149  26.237  56.666  1.00  0.00     0.299 C 
HETATM    8  N   UNL     1       6.474  27.265  55.858  1.00  0.00     0.097 N 
HETATM    9  C   UNL     1       6.466  28.561  56.537  1.00  0.00     0.314 C 
HETATM   10  C   UNL     1       8.840  29.531  56.195  1.00  0.00     0.209 C 
HETATM   11  O   UNL     1      10.174  29.407  56.671  1.00  0.00    -0.386 OA
HETATM   12  C   UNL     1      10.688  30.331  57.614  1.00  0.00     0.195 C 
HETATM   13  C   UNL     1       9.714  31.222  58.385  1.00  0.00     0.261 C 
ENDROOT
BRANCH   1  14
HETATM   14  C   UNL     1       8.340  30.960  60.499  1.00  0.00     0.180 C 
HETATM   15  C   UNL     1       8.261  32.485  60.458  1.00  0.00     0.039 C 
HETATM   16  C   UNL     1       9.336  30.461  61.541  1.00  0.00     0.039 C 
ENDBRANCH   1  14
BRANCH   8  17
HETATM   17  C   UNL     1       6.880  27.281  54.454  1.00  0.00     0.311 C 
BRANCH  17  18
HETATM   18  C   UNL     1       7.119  25.873  53.954  1.00  0.00    -0.030 A 
HETATM   19  C   UNL     1       7.854  25.665  52.773  1.00  0.00     0.012 A 
HETATM   20  C   UNL     1       8.081  24.373  52.299  1.00  0.00     0.043 A 
HETATM   21  C   UNL     1       7.570  23.286  53.000  1.00  0.00     0.116 A 
HETATM   22  F   UNL     1       7.789  22.047  52.546  1.00  0.00    -0.206 F 
HETATM   23  C   UNL     1       6.831  23.472  54.163  1.00  0.00     0.043 A 
HETATM   24  C   UNL     1       6.602  24.765  54.639  1.00  0.00     0.012 A 
ENDBRANCH  17  18
ENDBRANCH   8  17
TORSDOF 3
ENDMDL
MODEL 5
REMARK VINA RESULT:      -7.7      3.351      7.874
REMARK  3 active torsions:
REMARK  status: ('A' for Active; 'I' for Inactive)
REMARK    1  A    between atoms: C_2  and  N_3 
REMARK    2  A    between atoms: N_10  and  C_11 
REMARK    3  A    between atoms: C_11  and  C_12 
ROOT
HETATM    1  N   UNL     1       6.996  24.971  54.156  1.00  0.00    -0.063 N 
HETATM    2  H   UNL     1       6.007  25.285  54.116  1.00  0.00     0.280 HD
HETATM    3  C   UNL     1       7.502  25.617  55.440  1.00  0.00     0.277 C 
HETATM    4  C   UNL     1       6.912  27.034  55.601  1.00  0.00     0.132 C 
HETATM    5  O   UNL     1       5.476  26.868  55.445  1.00  0.00    -0.373 OA
HETATM    6  C   UNL     1       4.754  28.061  55.806  1.00  0.00     0.199 C 
HETATM    7  C   UNL     1       5.025  28.447  57.268  1.00  0.00     0.299 C 
HETATM    8  N   UNL     1       6.455  28.627  57.562  1.00  0.00     0.097 N 
HETATM    9  C   UNL     1       7.253  27.516  57.043  1.00  0.00     0.314 C 
HETATM   10  C   UNL     1       7.488  27.965  54.506  1.00  0.00     0.209 C 
HETATM   11  O   UNL     1       6.762  27.877  53.287  1.00  0.00    -0.386 OA
HETATM   12  C   UNL     1       6.969  26.786  52.405  1.00  0.00     0.195 C 
HETATM   13  C   UNL     1       7.684  25.539  52.926  1.00  0.00     0.261 C 
ENDROOT
BRANCH   1  14
HETATM   14  C   UNL     1       6.960  23.446  54.159  1.00  0.00     0.180 C 
HETATM   15  C   UNL     1       7.538  22.899  55.462  1.00  0.00     0.039 C 
HETATM   16  C   UNL     1       7.662  22.877  52.931  1.00  0.00     0.039 C 
ENDBRANCH   1  14
BRANCH   8  17
HETATM   17  C   UNL     1       6.959  29.968  57.271  1.00  0.00     0.311 C 
BRANCH  17  18
HETATM   18  C   UNL     1       7.499  30.616  58.527  1.00  0.00    -0.030 A 
HETATM   19  C   UNL     1       6.801  31.683  59.120  1.00  0.00     0.012 A 
HETATM   20  C   UNL     1       7.286  32.292  60.277  1.00  0.00     0.043 A 
HETATM   21  C   UNL     1       8.474  31.841  60.841  1.00  0.00     0.116 A 
HETATM   22  F   UNL     1       8.939  32.423  61.952  1.00  0.00    -0.206 F 
HETATM   23  C   UNL     1       9.186  30.795  60.263  1.00  0.00     0.043 A 
HETATM   24  C   UNL     1       8.701  30.184  59.105  1.00  0.00     0.012 A 
ENDBRANCH  17  18
ENDBRANCH   8  17
TORSDOF 3
ENDMDL
MODEL 6
REMARK VINA RESULT:      -7.5      4.604      6.652
REMARK  3 active torsions:
REMARK  status: ('A' for Active; 'I' for Inactive)
REMARK    1  A    between atoms: C_2  and  N_3 
REMARK    2  A    between atoms: N_10  and  C_11 
REMARK    3  A    between atoms: C_11  and  C_12 
ROOT
HETATM    1  N   UNL     1       3.056  28.833  48.865  1.00  0.00    -0.063 N 
HETATM    2  H   UNL     1       2.843  29.171  49.823  1.00  0.00     0.280 HD
HETATM    3  C   UNL     1       3.688  27.470  49.122  1.00  0.00     0.277 C 
HETATM    4  C   UNL     1       4.592  27.520  50.372  1.00  0.00     0.132 C 
HETATM    5  O   UNL     1       3.761  28.091  51.420  1.00  0.00    -0.373 OA
HETATM    6  C   UNL     1       4.379  27.985  52.716  1.00  0.00     0.199 C 
HETATM    7  C   UNL     1       4.648  26.516  53.079  1.00  0.00     0.299 C 
HETATM    8  N   UNL     1       5.469  25.816  52.080  1.00  0.00     0.097 N 
HETATM    9  C   UNL     1       4.979  26.052  50.722  1.00  0.00     0.314 C 
HETATM   10  C   UNL     1       5.823  28.414  50.089  1.00  0.00     0.209 C 
HETATM   11  O   UNL     1       5.554  29.792  50.314  1.00  0.00    -0.386 OA
HETATM   12  C   UNL     1       4.838  30.550  49.353  1.00  0.00     0.195 C 
HETATM   13  C   UNL     1       4.050  29.815  48.268  1.00  0.00     0.261 C 
ENDROOT
BRANCH   1  14
HETATM   14  C   UNL     1       1.729  28.809  48.115  1.00  0.00     0.180 C 
HETATM   15  C   UNL     1       1.191  27.383  48.021  1.00  0.00     0.039 C 
HETATM   16  C   UNL     1       1.859  29.469  46.747  1.00  0.00     0.039 C 
ENDBRANCH   1  14
BRANCH   8  17
HETATM   17  C   UNL     1       6.909  25.972  52.277  1.00  0.00     0.311 C 
BRANCH  17  18
HETATM   18  C   UNL     1       7.455  24.841  53.122  1.00  0.00    -0.030 A 
HETATM   19  C   UNL     1       7.662  25.034  54.500  1.00  0.00     0.012 A 
HETATM   20  C   UNL     1       8.167  24.002  55.292  1.00  0.00     0.043 A 
HETATM   21  C   UNL     1       8.470  22.777  54.708  1.00  0.00     0.116 A 
HETATM   22  F   UNL     1       8.952  21.786  55.467  1.00  0.00    -0.206 F 
HETATM   23  C   UNL     1       8.283  22.571  53.345  1.00  0.00     0.043 A 
HETATM   24  C   UNL     1       7.779  23.602  52.551  1.00  0.00     0.012 A 
ENDBRANCH  17  18
ENDBRANCH   8  17
TORSDOF 3
ENDMDL
MODEL 7
REMARK VINA RESULT:      -7.2      1.939      3.371
REMARK  3 active torsions:
REMARK  status: ('A' for Active; 'I' for Inactive)
REMARK    1  A    between atoms: C_2  and  N_3 
REMARK    2  A    between atoms: N_10  and  C_11 
REMARK    3  A    between atoms: C_11  and  C_12 
ROOT
HETATM    1  N   UNL     1       4.716  29.378  54.402  1.00  0.00    -0.063 N 
HETATM    2  H   UNL     1       4.337  28.613  54.991  1.00  0.00     0.280 HD
HETATM    3  C   UNL     1       5.369  28.623  53.250  1.00  0.00     0.277 C 
HETATM    4  C   UNL     1       6.059  27.343  53.765  1.00  0.00     0.132 C 
HETATM    5  O   UNL     1       5.045  26.649  54.542  1.00  0.00    -0.373 OA
HETATM    6  C   UNL     1       5.455  25.315  54.895  1.00  0.00     0.199 C 
HETATM    7  C   UNL     1       5.737  24.476  53.640  1.00  0.00     0.299 C 
HETATM    8  N   UNL     1       6.742  25.084  52.753  1.00  0.00     0.097 N 
HETATM    9  C   UNL     1       6.462  26.500  52.518  1.00  0.00     0.314 C 
HETATM   10  C   UNL     1       7.273  27.725  54.647  1.00  0.00     0.209 C 
HETATM   11  O   UNL     1       6.900  27.983  55.995  1.00  0.00    -0.386 OA
HETATM   12  C   UNL     1       6.308  29.220  56.352  1.00  0.00     0.195 C 
HETATM   13  C   UNL     1       5.740  30.114  55.249  1.00  0.00     0.261 C 
ENDROOT
BRANCH   1  14
HETATM   14  C   UNL     1       3.527  30.254  54.022  1.00  0.00     0.180 C 
HETATM   15  C   UNL     1       3.219  30.124  52.532  1.00  0.00     0.039 C 
HETATM   16  C   UNL     1       3.755  31.703  54.441  1.00  0.00     0.039 C 
ENDBRANCH   1  14
BRANCH   8  17
HETATM   17  C   UNL     1       8.122  24.754  53.102  1.00  0.00     0.311 C 
BRANCH  17  18
HETATM   18  C   UNL     1       8.208  23.352  53.665  1.00  0.00    -0.030 A 
HETATM   19  C   UNL     1       7.949  22.247  52.834  1.00  0.00     0.012 A 
HETATM   20  C   UNL     1       8.022  20.949  53.338  1.00  0.00     0.043 A 
HETATM   21  C   UNL     1       8.348  20.751  54.676  1.00  0.00     0.116 A 
HETATM   22  F   UNL     1       8.420  19.506  55.160  1.00  0.00    -0.206 F 
HETATM   23  C   UNL     1       8.595  21.831  55.516  1.00  0.00     0.043 A 
HETATM   24  C   UNL     1       8.522  23.132  55.013  1.00  0.00     0.012 A 
ENDBRANCH  17  18
ENDBRANCH   8  17
TORSDOF 3
ENDMDL
MODEL 8
REMARK VINA RESULT:      -7.2      6.355      9.220
REMARK  3 active torsions:
REMARK  status: ('A' for Active; 'I' for Inactive)
REMARK    1  A    between atoms: C_2  and  N_3 
REMARK    2  A    between atoms: N_10  and  C_11 
REMARK    3  A    between atoms: C_11  and  C_12 
ROOT
HETATM    1  N   UNL     1       4.794  35.532  63.711  1.00  0.00    -0.063 N 
HETATM    2  H   UNL     1       4.004  34.980  63.325  1.00  0.00     0.280 HD
HETATM    3  C   UNL     1       5.911  35.268  62.707  1.00  0.00     0.277 C 
HETATM    4  C   UNL     1       5.874  33.799  62.233  1.00  0.00     0.132 C 
HETATM    5  O   UNL     1       4.505  33.573  61.800  1.00  0.00    -0.373 OA
HETATM    6  C   UNL     1       4.361  32.321  61.103  1.00  0.00     0.199 C 
HETATM    7  C   UNL     1       5.259  32.277  59.857  1.00  0.00     0.299 C 
HETATM    8  N   UNL     1       6.679  32.513  60.161  1.00  0.00     0.097 N 
HETATM    9  C   UNL     1       6.855  33.679  61.028  1.00  0.00     0.314 C 
HETATM   10  C   UNL     1       6.250  32.864  63.407  1.00  0.00     0.209 C 
HETATM   11  O   UNL     1       5.131  32.553  64.228  1.00  0.00    -0.386 OA
HETATM   12  C   UNL     1       4.660  33.488  65.183  1.00  0.00     0.195 C 
HETATM   13  C   UNL     1       5.110  34.946  65.077  1.00  0.00     0.261 C 
ENDROOT
BRANCH   1  14
HETATM   14  C   UNL     1       4.309  36.976  63.787  1.00  0.00     0.180 C 
HETATM   15  C   UNL     1       3.474  37.327  62.559  1.00  0.00     0.039 C 
HETATM   16  C   UNL     1       5.475  37.937  63.988  1.00  0.00     0.039 C 
ENDBRANCH   1  14
BRANCH   8  17
HETATM   17  C   UNL     1       7.414  31.311  60.550  1.00  0.00     0.311 C 
BRANCH  17  18
HETATM   18  C   UNL     1       8.367  30.893  59.451  1.00  0.00    -0.030 A 
HETATM   19  C   UNL     1       8.126  29.713  58.726  1.00  0.00     0.012 A 
HETATM   20  C   UNL     1       8.996  29.314  57.711  1.00  0.00     0.043 A 
HETATM   21  C   UNL     1      10.114  30.091  57.423  1.00  0.00     0.116 A 
HETATM   22  F   UNL     1      10.948  29.710  56.450  1.00  0.00    -0.206 F 
HETATM   23  C   UNL     1      10.376  31.254  58.137  1.00  0.00     0.043 A 
HETATM   24  C   UNL     1       9.505  31.656  59.153  1.00  0.00     0.012 A 
ENDBRANCH  17  18
ENDBRANCH   8  17
TORSDOF 3
ENDMDL
MODEL 9
REMARK VINA RESULT:      -6.8      4.267      7.551
REMARK  3 active torsions:
REMARK  status: ('A' for Active; 'I' for Inactive)
REMARK    1  A    between atoms: C_2  and  N_3 
REMARK    2  A    between atoms: N_10  and  C_11 
REMARK    3  A    between atoms: C_11  and  C_12 
ROOT
HETATM    1  N   UNL     1       7.961  24.007  55.305  1.00  0.00    -0.063 N 
HETATM    2  H   UNL     1       8.530  24.841  55.063  1.00  0.00     0.280 HD
HETATM    3  C   UNL     1       6.692  24.218  54.488  1.00  0.00     0.277 C 
HETATM    4  C   UNL     1       6.297  25.711  54.479  1.00  0.00     0.132 C 
HETATM    5  O   UNL     1       7.497  26.419  54.063  1.00  0.00    -0.373 OA
HETATM    6  C   UNL     1       7.231  27.803  53.771  1.00  0.00     0.199 C 
HETATM    7  C   UNL     1       6.194  27.940  52.646  1.00  0.00     0.299 C 
HETATM    8  N   UNL     1       4.931  27.245  52.939  1.00  0.00     0.097 N 
HETATM    9  C   UNL     1       5.167  25.883  53.421  1.00  0.00     0.314 C 
HETATM   10  C   UNL     1       5.859  26.142  55.899  1.00  0.00     0.209 C 
HETATM   11  O   UNL     1       6.963  26.511  56.716  1.00  0.00    -0.386 OA
HETATM   12  C   UNL     1       7.775  25.516  57.317  1.00  0.00     0.195 C 
HETATM   13  C   UNL     1       7.693  24.080  56.799  1.00  0.00     0.261 C 
ENDROOT
BRANCH   1  14
HETATM   14  C   UNL     1       8.797  22.792  54.915  1.00  0.00     0.180 C 
HETATM   15  C   UNL     1       8.506  22.380  53.474  1.00  0.00     0.039 C 
HETATM   16  C   UNL     1       8.589  21.644  55.898  1.00  0.00     0.039 C 
ENDBRANCH   1  14
BRANCH   8  17
HETATM   17  C   UNL     1       3.978  28.040  53.711  1.00  0.00     0.311 C 
BRANCH  17  18
HETATM   18  C   UNL     1       3.506  29.231  52.906  1.00  0.00    -0.030 A 
HETATM   19  C   UNL     1       3.638  30.529  53.434  1.00  0.00     0.012 A 
HETATM   20  C   UNL     1       3.206  31.637  52.705  1.00  0.00     0.043 A 
HETATM   21  C   UNL     1       2.637  31.452  51.450  1.00  0.00     0.116 A 
HETATM   22  F   UNL     1       2.225  32.514  50.750  1.00  0.00    -0.206 F 
HETATM   23  C   UNL     1       2.487  30.177  50.916  1.00  0.00     0.043 A 
HETATM   24  C   UNL     1       2.919  29.066  51.644  1.00  0.00     0.012 A 
ENDBRANCH  17  18
ENDBRANCH   8  17
TORSDOF 3
ENDMDL
MODEL 10
REMARK VINA RESULT:      -6.8      3.910      7.742
REMARK  3 active torsions:
REMARK  status: ('A' for Active; 'I' for Inactive)
REMARK    1  A    between atoms: C_2  and  N_3 
REMARK    2  A    between atoms: N_10  and  C_11 
REMARK    3  A    between atoms: C_11  and  C_12 
ROOT
HETATM    1  N   UNL     1       8.117  23.560  55.191  1.00  0.00    -0.063 N 
HETATM    2  H   UNL     1       8.737  24.337  54.890  1.00  0.00     0.280 HD
HETATM    3  C   UNL     1       6.732  24.071  54.814  1.00  0.00     0.277 C 
HETATM    4  C   UNL     1       6.620  25.585  55.093  1.00  0.00     0.132 C 
HETATM    5  O   UNL     1       7.766  26.181  54.427  1.00  0.00    -0.373 OA
HETATM    6  C   UNL     1       7.680  27.618  54.387  1.00  0.00     0.199 C 
HETATM    7  C   UNL     1       6.417  28.073  53.641  1.00  0.00     0.299 C 
HETATM    8  N   UNL     1       5.179  27.518  54.210  1.00  0.00     0.097 N 
HETATM    9  C   UNL     1       5.293  26.078  54.441  1.00  0.00     0.314 C 
HETATM   10  C   UNL     1       6.667  25.838  56.619  1.00  0.00     0.209 C 
HETATM   11  O   UNL     1       7.999  25.917  57.111  1.00  0.00    -0.386 OA
HETATM   12  C   UNL     1       8.755  24.738  57.328  1.00  0.00     0.195 C 
HETATM   13  C   UNL     1       8.283  23.428  56.695  1.00  0.00     0.261 C 
ENDROOT
BRANCH   1  14
HETATM   14  C   UNL     1       8.587  22.321  54.436  1.00  0.00     0.180 C 
HETATM   15  C   UNL     1       7.907  22.234  53.072  1.00  0.00     0.039 C 
HETATM   16  C   UNL     1       8.381  21.060  55.267  1.00  0.00     0.039 C 
ENDBRANCH   1  14
BRANCH   8  17
HETATM   17  C   UNL     1       4.627  28.301  55.314  1.00  0.00     0.311 C 
BRANCH  17  18
HETATM   18  C   UNL     1       4.354  29.723  54.872  1.00  0.00    -0.030 A 
HETATM   19  C   UNL     1       4.895  30.798  55.599  1.00  0.00     0.012 A 
HETATM   20  C   UNL     1       4.651  32.114  55.205  1.00  0.00     0.043 A 
HETATM   21  C   UNL     1       3.859  32.358  54.088  1.00  0.00     0.116 A 
HETATM   22  F   UNL     1       3.626  33.620  53.709  1.00  0.00    -0.206 F 
HETATM   23  C   UNL     1       3.305  31.309  53.364  1.00  0.00     0.043 A 
HETATM   24  C   UNL     1       3.549  29.991  53.756  1.00  0.00     0.012 A 
ENDBRANCH  17  18
ENDBRANCH   8  17
TORSDOF 3
ENDMDL
