MODEL 1
REMARK VINA RESULT:      -9.4      0.000      0.000
REMARK  6 active torsions:
REMARK  status: ('A' for Active; 'I' for Inactive)
REMARK    1  A    between atoms: C_7  and  S_8 
REMARK    2  A    between atoms: S_8  and  C_9 
REMARK    3  A    between atoms: C_9  and  C_10 
REMARK    4  A    between atoms: C_18  and  C_19 
REMARK    5  A    between atoms: C_26  and  C_27 
REMARK    6  A    between atoms: C_27  and  O_28 
ROOT
HETATM    1  C   UNL     1      11.263  30.308  57.398  1.00  0.00     0.070 C 
HETATM    2  C   UNL     1       9.819  29.879  57.440  1.00  0.00     0.037 C 
HETATM    3  N   UNL     1       9.456  28.899  56.520  1.00  0.00    -0.192 N 
HETATM    4  C   UNL     1       8.292  28.224  56.590  1.00  0.00     0.726 A 
HETATM    5  N   UNL     1       7.330  28.635  57.469  1.00  0.00    -0.082 N 
HETATM    6  N   UNL     1       6.278  27.788  57.478  1.00  0.00    -0.128 NA
HETATM    7  C   UNL     1       6.664  26.902  56.550  1.00  0.00     0.226 A 
HETATM    8  N   UNL     1       7.888  27.146  55.975  1.00  0.00    -0.035 NA
HETATM    9  C   UNL     1       7.477  29.793  58.358  1.00  0.00     0.203 C 
HETATM   10  C   UNL     1       8.905  30.328  58.337  1.00  0.00     0.070 C 
HETATM   11  H   UNL     1      10.191  28.517  55.928  1.00  0.00     0.184 HD
ENDROOT
BRANCH   7  12
HETATM   12  S   UNL     1       5.736  25.492  56.126  1.00  0.00    -0.083 SA
BRANCH  12  13
HETATM   13  C   UNL     1       6.884  24.161  56.569  1.00  0.00     0.123 C 
BRANCH  13  14
HETATM   14  C   UNL     1       7.267  23.352  55.351  1.00  0.00    -0.027 A 
HETATM   15  C   UNL     1       7.923  22.112  55.432  1.00  0.00     0.041 A 
HETATM   16 CL   UNL     1       8.321  21.380  56.945  1.00  0.00    -0.084 Cl
HETATM   17  C   UNL     1       8.286  21.423  54.269  1.00  0.00     0.024 A 
HETATM   18  C   UNL     1       8.010  21.961  53.014  1.00  0.00     0.002 A 
HETATM   19  C   UNL     1       7.367  23.192  52.916  1.00  0.00     0.001 A 
HETATM   20  C   UNL     1       7.000  23.882  54.074  1.00  0.00     0.009 A 
ENDBRANCH  13  14
ENDBRANCH  12  13
ENDBRANCH   7  12
BRANCH   9  21
HETATM   21  C   UNL     1       6.458  30.873  57.992  1.00  0.00    -0.028 A 
HETATM   22  C   UNL     1       5.980  30.961  56.672  1.00  0.00     0.011 A 
HETATM   23  C   UNL     1       5.028  31.922  56.321  1.00  0.00     0.024 A 
HETATM   24  C   UNL     1       4.542  32.801  57.285  1.00  0.00     0.034 A 
HETATM   25 CL   UNL     1       3.367  33.981  56.854  1.00  0.00    -0.084 Cl
HETATM   26  C   UNL     1       4.997  32.726  58.599  1.00  0.00     0.024 A 
HETATM   27  C   UNL     1       5.947  31.765  58.953  1.00  0.00     0.011 A 
ENDBRANCH   9  21
BRANCH  10  28
HETATM   28  C   UNL     1       9.180  31.307  59.410  1.00  0.00     0.293 C 
HETATM   29  O   UNL     1       9.378  32.491  59.184  1.00  0.00    -0.259 OA
BRANCH  28  30
HETATM   30  O   UNL     1       9.244  30.706  60.621  1.00  0.00    -0.323 OA
HETATM   31  C   UNL     1       8.566  31.416  61.659  1.00  0.00     0.213 C 
ENDBRANCH  28  30
ENDBRANCH  10  28
TORSDOF 6
ENDMDL
MODEL 2
REMARK VINA RESULT:      -9.1      3.183      4.221
REMARK  6 active torsions:
REMARK  status: ('A' for Active; 'I' for Inactive)
REMARK    1  A    between atoms: C_7  and  S_8 
REMARK    2  A    between atoms: S_8  and  C_9 
REMARK    3  A    between atoms: C_9  and  C_10 
REMARK    4  A    between atoms: C_18  and  C_19 
REMARK    5  A    between atoms: C_26  and  C_27 
REMARK    6  A    between atoms: C_27  and  O_28 
ROOT
HETATM    1  C   UNL     1       7.294  31.077  58.462  1.00  0.00     0.070 C 
HETATM    2  C   UNL     1       6.949  29.789  57.759  1.00  0.00     0.037 C 
HETATM    3  N   UNL     1       7.921  28.794  57.813  1.00  0.00    -0.192 N 
HETATM    4  C   UNL     1       7.680  27.515  57.469  1.00  0.00     0.726 A 
HETATM    5  N   UNL     1       6.502  27.196  56.853  1.00  0.00    -0.082 N 
HETATM    6  N   UNL     1       6.386  25.863  56.674  1.00  0.00    -0.128 NA
HETATM    7  C   UNL     1       7.553  25.441  57.179  1.00  0.00     0.226 A 
HETATM    8  N   UNL     1       8.377  26.428  57.664  1.00  0.00    -0.035 NA
HETATM    9  C   UNL     1       5.460  28.177  56.526  1.00  0.00     0.203 C 
HETATM   10  C   UNL     1       5.759  29.532  57.158  1.00  0.00     0.070 C 
HETATM   11  H   UNL     1       8.761  28.990  58.355  1.00  0.00     0.184 HD
ENDROOT
BRANCH   7  12
HETATM   12  S   UNL     1       7.998  23.763  57.294  1.00  0.00    -0.083 SA
BRANCH  12  13
HETATM   13  C   UNL     1       9.239  23.630  55.980  1.00  0.00     0.123 C 
BRANCH  13  14
HETATM   14  C   UNL     1       8.832  22.594  54.956  1.00  0.00    -0.027 A 
HETATM   15  C   UNL     1       8.180  22.920  53.755  1.00  0.00     0.041 A 
HETATM   16 CL   UNL     1       7.816  24.552  53.322  1.00  0.00    -0.084 Cl
HETATM   17  C   UNL     1       7.794  21.916  52.860  1.00  0.00     0.024 A 
HETATM   18  C   UNL     1       8.044  20.576  53.152  1.00  0.00     0.002 A 
HETATM   19  C   UNL     1       8.682  20.235  54.341  1.00  0.00     0.001 A 
HETATM   20  C   UNL     1       9.072  21.234  55.236  1.00  0.00     0.009 A 
ENDBRANCH  13  14
ENDBRANCH  12  13
ENDBRANCH   7  12
BRANCH   9  21
HETATM   21  C   UNL     1       5.290  28.279  55.009  1.00  0.00    -0.028 A 
HETATM   22  C   UNL     1       6.425  28.291  54.180  1.00  0.00     0.011 A 
HETATM   23  C   UNL     1       6.292  28.356  52.790  1.00  0.00     0.024 A 
HETATM   24  C   UNL     1       5.024  28.407  52.217  1.00  0.00     0.034 A 
HETATM   25 CL   UNL     1       4.861  28.483  50.506  1.00  0.00    -0.084 Cl
HETATM   26  C   UNL     1       3.887  28.391  53.020  1.00  0.00     0.024 A 
HETATM   27  C   UNL     1       4.017  28.323  54.409  1.00  0.00     0.011 A 
ENDBRANCH   9  21
BRANCH  10  28
HETATM   28  C   UNL     1       4.619  30.471  57.097  1.00  0.00     0.293 C 
HETATM   29  O   UNL     1       4.510  31.317  56.222  1.00  0.00    -0.259 OA
BRANCH  28  30
HETATM   30  O   UNL     1       3.787  30.304  58.151  1.00  0.00    -0.323 OA
HETATM   31  C   UNL     1       3.619  31.476  58.951  1.00  0.00     0.213 C 
ENDBRANCH  28  30
ENDBRANCH  10  28
TORSDOF 6
ENDMDL
MODEL 3
REMARK VINA RESULT:      -9.0      4.905      7.211
REMARK  6 active torsions:
REMARK  status: ('A' for Active; 'I' for Inactive)
REMARK    1  A    between atoms: C_7  and  S_8 
REMARK    2  A    between atoms: S_8  and  C_9 
REMARK    3  A    between atoms: C_9  and  C_10 
REMARK    4  A    between atoms: C_18  and  C_19 
REMARK    5  A    between atoms: C_26  and  C_27 
REMARK    6  A    between atoms: C_27  and  O_28 
ROOT
HETATM    1  C   UNL     1       5.984  29.716  57.552  1.00  0.00     0.070 C 
HETATM    2  C   UNL     1       5.912  29.172  56.148  1.00  0.00     0.037 C 
HETATM    3  N   UNL     1       4.688  29.330  55.503  1.00  0.00    -0.192 N 
HETATM    4  C   UNL     1       4.527  29.140  54.180  1.00  0.00     0.726 A 
HETATM    5  N   UNL     1       5.542  28.580  53.454  1.00  0.00    -0.082 N 
HETATM    6  N   UNL     1       5.249  28.559  52.136  1.00  0.00    -0.128 NA
HETATM    7  C   UNL     1       4.021  29.095  52.144  1.00  0.00     0.226 A 
HETATM    8  N   UNL     1       3.542  29.451  53.382  1.00  0.00    -0.035 NA
HETATM    9  C   UNL     1       6.821  28.155  54.032  1.00  0.00     0.203 C 
HETATM   10  C   UNL     1       6.956  28.620  55.478  1.00  0.00     0.070 C 
HETATM   11  H   UNL     1       3.958  29.834  56.003  1.00  0.00     0.184 HD
ENDROOT
BRANCH   7  12
HETATM   12  S   UNL     1       3.097  29.399  50.702  1.00  0.00    -0.083 SA
BRANCH  12  13
HETATM   13  C   UNL     1       4.234  28.813  49.417  1.00  0.00     0.123 C 
BRANCH  13  14
HETATM   14  C   UNL     1       3.671  27.601  48.710  1.00  0.00    -0.027 A 
HETATM   15  C   UNL     1       3.989  26.283  49.080  1.00  0.00     0.041 A 
HETATM   16 CL   UNL     1       5.033  25.929  50.410  1.00  0.00    -0.084 Cl
HETATM   17  C   UNL     1       3.466  25.199  48.367  1.00  0.00     0.024 A 
HETATM   18  C   UNL     1       2.628  25.411  47.274  1.00  0.00     0.002 A 
HETATM   19  C   UNL     1       2.309  26.710  46.889  1.00  0.00     0.001 A 
HETATM   20  C   UNL     1       2.826  27.795  47.600  1.00  0.00     0.009 A 
ENDBRANCH  13  14
ENDBRANCH  12  13
ENDBRANCH   7  12
BRANCH   9  21
HETATM   21  C   UNL     1       6.980  26.639  53.904  1.00  0.00    -0.028 A 
HETATM   22  C   UNL     1       7.801  26.107  52.894  1.00  0.00     0.011 A 
HETATM   23  C   UNL     1       7.982  24.727  52.775  1.00  0.00     0.024 A 
HETATM   24  C   UNL     1       7.347  23.865  53.666  1.00  0.00     0.034 A 
HETATM   25 CL   UNL     1       7.574  22.166  53.522  1.00  0.00    -0.084 Cl
HETATM   26  C   UNL     1       6.536  24.371  54.677  1.00  0.00     0.024 A 
HETATM   27  C   UNL     1       6.355  25.751  54.800  1.00  0.00     0.011 A 
ENDBRANCH   9  21
BRANCH  10  28
HETATM   28  C   UNL     1       8.323  28.465  56.018  1.00  0.00     0.293 C 
HETATM   29  O   UNL     1       8.602  27.639  56.874  1.00  0.00    -0.259 OA
BRANCH  28  30
HETATM   30  O   UNL     1       9.168  29.384  55.494  1.00  0.00    -0.323 OA
HETATM   31  C   UNL     1      10.299  29.672  56.318  1.00  0.00     0.213 C 
ENDBRANCH  28  30
ENDBRANCH  10  28
TORSDOF 6
ENDMDL
MODEL 4
REMARK VINA RESULT:      -8.8      1.930      2.602
REMARK  6 active torsions:
REMARK  status: ('A' for Active; 'I' for Inactive)
REMARK    1  A    between atoms: C_7  and  S_8 
REMARK    2  A    between atoms: S_8  and  C_9 
REMARK    3  A    between atoms: C_9  and  C_10 
REMARK    4  A    between atoms: C_18  and  C_19 
REMARK    5  A    between atoms: C_26  and  C_27 
REMARK    6  A    between atoms: C_27  and  O_28 
ROOT
HETATM    1  C   UNL     1      10.192  30.029  56.299  1.00  0.00     0.070 C 
HETATM    2  C   UNL     1       8.877  29.324  56.087  1.00  0.00     0.037 C 
HETATM    3  N   UNL     1       8.809  28.501  54.966  1.00  0.00    -0.192 N 
HETATM    4  C   UNL     1       7.818  27.610  54.770  1.00  0.00     0.726 A 
HETATM    5  N   UNL     1       6.723  27.634  55.588  1.00  0.00    -0.082 N 
HETATM    6  N   UNL     1       5.883  26.613  55.314  1.00  0.00    -0.128 NA
HETATM    7  C   UNL     1       6.524  26.029  54.292  1.00  0.00     0.226 A 
HETATM    8  N   UNL     1       7.708  26.623  53.923  1.00  0.00    -0.035 NA
HETATM    9  C   UNL     1       6.544  28.591  56.685  1.00  0.00     0.203 C 
HETATM   10  C   UNL     1       7.818  29.390  56.934  1.00  0.00     0.070 C 
HETATM   11  H   UNL     1       9.654  28.401  54.407  1.00  0.00     0.184 HD
ENDROOT
BRANCH   7  12
HETATM   12  S   UNL     1       5.962  24.582  53.508  1.00  0.00    -0.083 SA
BRANCH  12  13
HETATM   13  C   UNL     1       7.519  23.696  53.231  1.00  0.00     0.123 C 
BRANCH  13  14
HETATM   14  C   UNL     1       7.848  22.802  54.406  1.00  0.00    -0.027 A 
HETATM   15  C   UNL     1       7.932  21.403  54.303  1.00  0.00     0.041 A 
HETATM   16 CL   UNL     1       7.700  20.577  52.803  1.00  0.00    -0.084 Cl
HETATM   17  C   UNL     1       8.204  20.622  55.431  1.00  0.00     0.024 A 
HETATM   18  C   UNL     1       8.387  21.221  56.676  1.00  0.00     0.002 A 
HETATM   19  C   UNL     1       8.299  22.605  56.797  1.00  0.00     0.001 A 
HETATM   20  C   UNL     1       8.032  23.389  55.673  1.00  0.00     0.009 A 
ENDBRANCH  13  14
ENDBRANCH  12  13
ENDBRANCH   7  12
BRANCH   9  21
HETATM   21  C   UNL     1       5.347  29.500  56.402  1.00  0.00    -0.028 A 
HETATM   22  C   UNL     1       5.237  30.142  55.156  1.00  0.00     0.011 A 
HETATM   23  C   UNL     1       4.138  30.954  54.867  1.00  0.00     0.024 A 
HETATM   24  C   UNL     1       3.137  31.131  55.818  1.00  0.00     0.034 A 
HETATM   25 CL   UNL     1       1.782  32.128  55.459  1.00  0.00    -0.084 Cl
HETATM   26  C   UNL     1       3.222  30.499  57.055  1.00  0.00     0.024 A 
HETATM   27  C   UNL     1       4.319  29.684  57.347  1.00  0.00     0.011 A 
ENDBRANCH   9  21
BRANCH  10  28
HETATM   28  C   UNL     1       7.788  30.163  58.194  1.00  0.00     0.293 C 
HETATM   29  O   UNL     1       8.126  29.685  59.266  1.00  0.00    -0.259 OA
BRANCH  28  30
HETATM   30  O   UNL     1       7.286  31.405  57.998  1.00  0.00    -0.323 OA
HETATM   31  C   UNL     1       6.797  32.028  59.187  1.00  0.00     0.213 C 
ENDBRANCH  28  30
ENDBRANCH  10  28
TORSDOF 6
ENDMDL
MODEL 5
REMARK VINA RESULT:      -8.8      1.814      2.329
REMARK  6 active torsions:
REMARK  status: ('A' for Active; 'I' for Inactive)
REMARK    1  A    between atoms: C_7  and  S_8 
REMARK    2  A    between atoms: S_8  and  C_9 
REMARK    3  A    between atoms: C_9  and  C_10 
REMARK    4  A    between atoms: C_18  and  C_19 
REMARK    5  A    between atoms: C_26  and  C_27 
REMARK    6  A    between atoms: C_27  and  O_28 
ROOT
HETATM    1  C   UNL     1       9.737  31.337  58.564  1.00  0.00     0.070 C 
HETATM    2  C   UNL     1       8.580  30.461  58.154  1.00  0.00     0.037 C 
HETATM    3  N   UNL     1       8.919  29.311  57.445  1.00  0.00    -0.192 N 
HETATM    4  C   UNL     1       8.053  28.303  57.230  1.00  0.00     0.726 A 
HETATM    5  N   UNL     1       6.732  28.475  57.536  1.00  0.00    -0.082 N 
HETATM    6  N   UNL     1       6.032  27.335  57.353  1.00  0.00    -0.128 NA
HETATM    7  C   UNL     1       6.995  26.521  56.902  1.00  0.00     0.226 A 
HETATM    8  N   UNL     1       8.244  27.085  56.801  1.00  0.00    -0.035 NA
HETATM    9  C   UNL     1       6.177  29.716  58.089  1.00  0.00     0.203 C 
HETATM   10  C   UNL     1       7.283  30.688  58.485  1.00  0.00     0.070 C 
HETATM   11  H   UNL     1       9.909  29.126  57.300  1.00  0.00     0.184 HD
ENDROOT
BRANCH   7  12
HETATM   12  S   UNL     1       6.734  24.843  56.525  1.00  0.00    -0.083 SA
BRANCH  12  13
HETATM   13  C   UNL     1       8.190  24.471  55.512  1.00  0.00     0.123 C 
BRANCH  13  14
HETATM   14  C   UNL     1       8.088  23.089  54.906  1.00  0.00    -0.027 A 
HETATM   15  C   UNL     1       8.010  22.864  53.522  1.00  0.00     0.041 A 
HETATM   16 CL   UNL     1       8.061  24.158  52.377  1.00  0.00    -0.084 Cl
HETATM   17  C   UNL     1       7.880  21.565  53.018  1.00  0.00     0.024 A 
HETATM   18  C   UNL     1       7.817  20.476  53.885  1.00  0.00     0.002 A 
HETATM   19  C   UNL     1       7.886  20.681  55.260  1.00  0.00     0.001 A 
HETATM   20  C   UNL     1       8.019  21.976  55.767  1.00  0.00     0.009 A 
ENDBRANCH  13  14
ENDBRANCH  12  13
ENDBRANCH   7  12
BRANCH   9  21
HETATM   21  C   UNL     1       5.195  30.342  57.098  1.00  0.00    -0.028 A 
HETATM   22  C   UNL     1       3.836  30.456  57.441  1.00  0.00     0.011 A 
HETATM   23  C   UNL     1       2.926  31.049  56.562  1.00  0.00     0.024 A 
HETATM   24  C   UNL     1       3.366  31.538  55.335  1.00  0.00     0.034 A 
HETATM   25 CL   UNL     1       2.246  32.272  54.255  1.00  0.00    -0.084 Cl
HETATM   26  C   UNL     1       4.708  31.441  54.979  1.00  0.00     0.024 A 
HETATM   27  C   UNL     1       5.620  30.851  55.856  1.00  0.00     0.011 A 
ENDBRANCH   9  21
BRANCH  10  28
HETATM   28  C   UNL     1       6.802  31.826  59.296  1.00  0.00     0.293 C 
HETATM   29  O   UNL     1       6.332  32.837  58.796  1.00  0.00    -0.259 OA
BRANCH  28  30
HETATM   30  O   UNL     1       7.013  31.615  60.616  1.00  0.00    -0.323 OA
HETATM   31  C   UNL     1       6.089  32.292  61.469  1.00  0.00     0.213 C 
ENDBRANCH  28  30
ENDBRANCH  10  28
TORSDOF 6
ENDMDL
MODEL 6
REMARK VINA RESULT:      -8.6      5.653      7.426
REMARK  6 active torsions:
REMARK  status: ('A' for Active; 'I' for Inactive)
REMARK    1  A    between atoms: C_7  and  S_8 
REMARK    2  A    between atoms: S_8  and  C_9 
REMARK    3  A    between atoms: C_9  and  C_10 
REMARK    4  A    between atoms: C_18  and  C_19 
REMARK    5  A    between atoms: C_26  and  C_27 
REMARK    6  A    between atoms: C_27  and  O_28 
ROOT
HETATM    1  C   UNL     1       7.999  23.664  52.631  1.00  0.00     0.070 C 
HETATM    2  C   UNL     1       7.237  24.882  53.089  1.00  0.00     0.037 C 
HETATM    3  N   UNL     1       6.770  25.715  52.076  1.00  0.00    -0.192 N 
HETATM    4  C   UNL     1       5.864  26.689  52.289  1.00  0.00     0.726 A 
HETATM    5  N   UNL     1       5.525  27.022  53.571  1.00  0.00    -0.082 N 
HETATM    6  N   UNL     1       4.535  27.940  53.595  1.00  0.00    -0.128 NA
HETATM    7  C   UNL     1       4.349  28.140  52.283  1.00  0.00     0.226 A 
HETATM    8  N   UNL     1       5.156  27.399  51.454  1.00  0.00    -0.035 NA
HETATM    9  C   UNL     1       6.098  26.381  54.760  1.00  0.00     0.203 C 
HETATM   10  C   UNL     1       6.934  25.163  54.382  1.00  0.00     0.070 C 
HETATM   11  H   UNL     1       6.934  25.421  51.116  1.00  0.00     0.184 HD
ENDROOT
BRANCH   7  12
HETATM   12  S   UNL     1       3.133  29.204  51.638  1.00  0.00    -0.083 SA
BRANCH  12  13
HETATM   13  C   UNL     1       3.728  29.444  49.943  1.00  0.00     0.123 C 
BRANCH  13  14
HETATM   14  C   UNL     1       3.047  28.486  48.992  1.00  0.00    -0.027 A 
HETATM   15  C   UNL     1       3.735  27.794  47.981  1.00  0.00     0.041 A 
HETATM   16 CL   UNL     1       5.441  27.950  47.757  1.00  0.00    -0.084 Cl
HETATM   17  C   UNL     1       3.047  26.946  47.105  1.00  0.00     0.024 A 
HETATM   18  C   UNL     1       1.668  26.783  47.219  1.00  0.00     0.002 A 
HETATM   19  C   UNL     1       0.970  27.467  48.210  1.00  0.00     0.001 A 
HETATM   20  C   UNL     1       1.653  28.312  49.088  1.00  0.00     0.009 A 
ENDBRANCH  13  14
ENDBRANCH  12  13
ENDBRANCH   7  12
BRANCH   9  21
HETATM   21  C   UNL     1       6.905  27.397  55.570  1.00  0.00    -0.028 A 
HETATM   22  C   UNL     1       6.681  27.523  56.952  1.00  0.00     0.011 A 
HETATM   23  C   UNL     1       7.425  28.425  57.716  1.00  0.00     0.024 A 
HETATM   24  C   UNL     1       8.402  29.209  57.107  1.00  0.00     0.034 A 
HETATM   25 CL   UNL     1       9.321  30.317  58.048  1.00  0.00    -0.084 Cl
HETATM   26  C   UNL     1       8.644  29.096  55.741  1.00  0.00     0.024 A 
HETATM   27  C   UNL     1       7.903  28.193  54.975  1.00  0.00     0.011 A 
ENDBRANCH   9  21
BRANCH  10  28
HETATM   28  C   UNL     1       7.303  24.323  55.541  1.00  0.00     0.293 C 
HETATM   29  O   UNL     1       6.475  23.713  56.201  1.00  0.00    -0.259 OA
BRANCH  28  30
HETATM   30  O   UNL     1       8.632  24.384  55.791  1.00  0.00    -0.323 OA
HETATM   31  C   UNL     1       8.957  24.543  57.173  1.00  0.00     0.213 C 
ENDBRANCH  28  30
ENDBRANCH  10  28
TORSDOF 6
ENDMDL
MODEL 7
REMARK VINA RESULT:      -8.4      5.312      8.431
REMARK  6 active torsions:
REMARK  status: ('A' for Active; 'I' for Inactive)
REMARK    1  A    between atoms: C_7  and  S_8 
REMARK    2  A    between atoms: S_8  and  C_9 
REMARK    3  A    between atoms: C_9  and  C_10 
REMARK    4  A    between atoms: C_18  and  C_19 
REMARK    5  A    between atoms: C_26  and  C_27 
REMARK    6  A    between atoms: C_27  and  O_28 
ROOT
HETATM    1  C   UNL     1       5.220  28.647  57.331  1.00  0.00     0.070 C 
HETATM    2  C   UNL     1       5.359  28.223  55.892  1.00  0.00     0.037 C 
HETATM    3  N   UNL     1       4.205  28.324  55.120  1.00  0.00    -0.192 N 
HETATM    4  C   UNL     1       4.212  28.236  53.776  1.00  0.00     0.726 A 
HETATM    5  N   UNL     1       5.353  27.837  53.136  1.00  0.00    -0.082 N 
HETATM    6  N   UNL     1       5.212  27.904  51.795  1.00  0.00    -0.128 NA
HETATM    7  C   UNL     1       3.943  28.323  51.697  1.00  0.00     0.226 A 
HETATM    8  N   UNL     1       3.296  28.525  52.892  1.00  0.00    -0.035 NA
HETATM    9  C   UNL     1       6.596  27.481  53.829  1.00  0.00     0.203 C 
HETATM   10  C   UNL     1       6.522  27.829  55.311  1.00  0.00     0.070 C 
HETATM   11  H   UNL     1       3.377  28.714  55.565  1.00  0.00     0.184 HD
ENDROOT
BRANCH   7  12
HETATM   12  S   UNL     1       3.160  28.666  50.182  1.00  0.00    -0.083 SA
BRANCH  12  13
HETATM   13  C   UNL     1       4.576  28.733  49.052  1.00  0.00     0.123 C 
BRANCH  13  14
HETATM   14  C   UNL     1       4.961  30.164  48.754  1.00  0.00    -0.027 A 
HETATM   15  C   UNL     1       4.470  30.873  47.645  1.00  0.00     0.041 A 
HETATM   16 CL   UNL     1       3.344  30.176  46.534  1.00  0.00    -0.084 Cl
HETATM   17  C   UNL     1       4.888  32.185  47.397  1.00  0.00     0.024 A 
HETATM   18  C   UNL     1       5.806  32.805  48.243  1.00  0.00     0.002 A 
HETATM   19  C   UNL     1       6.308  32.114  49.342  1.00  0.00     0.001 A 
HETATM   20  C   UNL     1       5.890  30.805  49.595  1.00  0.00     0.009 A 
ENDBRANCH  13  14
ENDBRANCH  12  13
ENDBRANCH   7  12
BRANCH   9  21
HETATM   21  C   UNL     1       6.920  26.003  53.605  1.00  0.00    -0.028 A 
HETATM   22  C   UNL     1       7.782  25.628  52.560  1.00  0.00     0.011 A 
HETATM   23  C   UNL     1       8.113  24.287  52.354  1.00  0.00     0.024 A 
HETATM   24  C   UNL     1       7.588  23.307  53.193  1.00  0.00     0.034 A 
HETATM   25 CL   UNL     1       8.000  21.655  52.943  1.00  0.00    -0.084 Cl
HETATM   26  C   UNL     1       6.738  23.657  54.238  1.00  0.00     0.024 A 
HETATM   27  C   UNL     1       6.407  24.998  54.447  1.00  0.00     0.011 A 
ENDBRANCH   9  21
BRANCH  10  28
HETATM   28  C   UNL     1       7.829  27.753  55.997  1.00  0.00     0.293 C 
HETATM   29  O   UNL     1       8.107  26.860  56.783  1.00  0.00    -0.259 OA
BRANCH  28  30
HETATM   30  O   UNL     1       8.610  28.814  55.688  1.00  0.00    -0.323 OA
HETATM   31  C   UNL     1       9.045  29.566  56.822  1.00  0.00     0.213 C 
ENDBRANCH  28  30
ENDBRANCH  10  28
TORSDOF 6
ENDMDL
MODEL 8
REMARK VINA RESULT:      -8.4      2.598      4.221
REMARK  6 active torsions:
REMARK  status: ('A' for Active; 'I' for Inactive)
REMARK    1  A    between atoms: C_7  and  S_8 
REMARK    2  A    between atoms: S_8  and  C_9 
REMARK    3  A    between atoms: C_9  and  C_10 
REMARK    4  A    between atoms: C_18  and  C_19 
REMARK    5  A    between atoms: C_26  and  C_27 
REMARK    6  A    between atoms: C_27  and  O_28 
ROOT
HETATM    1  C   UNL     1       2.802  31.426  56.601  1.00  0.00     0.070 C 
HETATM    2  C   UNL     1       4.151  30.936  57.061  1.00  0.00     0.037 C 
HETATM    3  N   UNL     1       4.274  29.557  57.203  1.00  0.00    -0.192 N 
HETATM    4  C   UNL     1       5.461  28.939  57.351  1.00  0.00     0.726 A 
HETATM    5  N   UNL     1       6.584  29.686  57.572  1.00  0.00    -0.082 N 
HETATM    6  N   UNL     1       7.692  28.915  57.594  1.00  0.00    -0.128 NA
HETATM    7  C   UNL     1       7.154  27.701  57.411  1.00  0.00     0.226 A 
HETATM    8  N   UNL     1       5.787  27.677  57.272  1.00  0.00    -0.035 NA
HETATM    9  C   UNL     1       6.584  31.150  57.669  1.00  0.00     0.203 C 
HETATM   10  C   UNL     1       5.232  31.731  57.270  1.00  0.00     0.070 C 
HETATM   11  H   UNL     1       3.471  28.986  56.945  1.00  0.00     0.184 HD
ENDROOT
BRANCH   7  12
HETATM   12  S   UNL     1       8.096  26.244  57.285  1.00  0.00    -0.083 SA
BRANCH  12  13
HETATM   13  C   UNL     1       6.899  25.106  56.538  1.00  0.00     0.123 C 
BRANCH  13  14
HETATM   14  C   UNL     1       7.240  24.840  55.088  1.00  0.00    -0.027 A 
HETATM   15  C   UNL     1       7.542  23.560  54.596  1.00  0.00     0.041 A 
HETATM   16 CL   UNL     1       7.516  22.158  55.606  1.00  0.00    -0.084 Cl
HETATM   17  C   UNL     1       7.885  23.377  53.252  1.00  0.00     0.024 A 
HETATM   18  C   UNL     1       7.941  24.466  52.384  1.00  0.00     0.002 A 
HETATM   19  C   UNL     1       7.652  25.743  52.857  1.00  0.00     0.001 A 
HETATM   20  C   UNL     1       7.305  25.929  54.197  1.00  0.00     0.009 A 
ENDBRANCH  13  14
ENDBRANCH  12  13
ENDBRANCH   7  12
BRANCH   9  21
HETATM   21  C   UNL     1       6.999  31.586  59.075  1.00  0.00    -0.028 A 
HETATM   22  C   UNL     1       6.030  31.687  60.089  1.00  0.00     0.011 A 
HETATM   23  C   UNL     1       6.391  32.057  61.387  1.00  0.00     0.024 A 
HETATM   24  C   UNL     1       7.724  32.325  61.686  1.00  0.00     0.034 A 
HETATM   25 CL   UNL     1       8.169  32.775  63.285  1.00  0.00    -0.084 Cl
HETATM   26  C   UNL     1       8.700  32.224  60.699  1.00  0.00     0.024 A 
HETATM   27  C   UNL     1       8.343  31.853  59.401  1.00  0.00     0.011 A 
ENDBRANCH   9  21
BRANCH  10  28
HETATM   28  C   UNL     1       5.256  33.197  57.081  1.00  0.00     0.293 C 
HETATM   29  O   UNL     1       5.045  33.980  57.994  1.00  0.00    -0.259 OA
BRANCH  28  30
HETATM   30  O   UNL     1       5.470  33.523  55.785  1.00  0.00    -0.323 OA
HETATM   31  C   UNL     1       4.758  34.684  55.353  1.00  0.00     0.213 C 
ENDBRANCH  28  30
ENDBRANCH  10  28
TORSDOF 6
ENDMDL
MODEL 9
REMARK VINA RESULT:      -8.2      2.401      3.342
REMARK  6 active torsions:
REMARK  status: ('A' for Active; 'I' for Inactive)
REMARK    1  A    between atoms: C_7  and  S_8 
REMARK    2  A    between atoms: S_8  and  C_9 
REMARK    3  A    between atoms: C_9  and  C_10 
REMARK    4  A    between atoms: C_18  and  C_19 
REMARK    5  A    between atoms: C_26  and  C_27 
REMARK    6  A    between atoms: C_27  and  O_28 
ROOT
HETATM    1  C   UNL     1       7.805  31.708  59.527  1.00  0.00     0.070 C 
HETATM    2  C   UNL     1       6.876  30.960  58.605  1.00  0.00     0.037 C 
HETATM    3  N   UNL     1       7.451  29.910  57.894  1.00  0.00    -0.192 N 
HETATM    4  C   UNL     1       6.724  28.989  57.234  1.00  0.00     0.726 A 
HETATM    5  N   UNL     1       5.380  29.181  57.076  1.00  0.00    -0.082 N 
HETATM    6  N   UNL     1       4.797  28.116  56.484  1.00  0.00    -0.128 NA
HETATM    7  C   UNL     1       5.862  27.329  56.283  1.00  0.00     0.226 A 
HETATM    8  N   UNL     1       7.062  27.838  56.718  1.00  0.00    -0.035 NA
HETATM    9  C   UNL     1       4.658  30.354  57.581  1.00  0.00     0.203 C 
HETATM   10  C   UNL     1       5.545  31.201  58.487  1.00  0.00     0.070 C 
HETATM   11  H   UNL     1       8.429  29.699  58.081  1.00  0.00     0.184 HD
ENDROOT
BRANCH   7  12
HETATM   12  S   UNL     1       5.761  25.739  55.585  1.00  0.00    -0.083 SA
BRANCH  12  13
HETATM   13  C   UNL     1       7.510  25.364  55.289  1.00  0.00     0.123 C 
BRANCH  13  14
HETATM   14  C   UNL     1       7.677  23.967  54.734  1.00  0.00    -0.027 A 
HETATM   15  C   UNL     1       7.851  23.704  53.366  1.00  0.00     0.041 A 
HETATM   16 CL   UNL     1       7.927  24.967  52.189  1.00  0.00    -0.084 Cl
HETATM   17  C   UNL     1       7.964  22.388  52.903  1.00  0.00     0.024 A 
HETATM   18  C   UNL     1       7.896  21.319  53.795  1.00  0.00     0.002 A 
HETATM   19  C   UNL     1       7.716  21.562  55.154  1.00  0.00     0.001 A 
HETATM   20  C   UNL     1       7.607  22.874  55.620  1.00  0.00     0.009 A 
ENDBRANCH  13  14
ENDBRANCH  12  13
ENDBRANCH   7  12
BRANCH   9  21
HETATM   21  C   UNL     1       4.091  31.167  56.416  1.00  0.00    -0.028 A 
HETATM   22  C   UNL     1       4.965  31.849  55.551  1.00  0.00     0.011 A 
HETATM   23  C   UNL     1       4.470  32.575  54.465  1.00  0.00     0.024 A 
HETATM   24  C   UNL     1       3.098  32.623  54.230  1.00  0.00     0.034 A 
HETATM   25 CL   UNL     1       2.491  33.513  52.889  1.00  0.00    -0.084 Cl
HETATM   26  C   UNL     1       2.217  31.949  55.070  1.00  0.00     0.024 A 
HETATM   27  C   UNL     1       2.708  31.221  56.156  1.00  0.00     0.011 A 
ENDBRANCH   9  21
BRANCH  10  28
HETATM   28  C   UNL     1       4.800  32.232  59.240  1.00  0.00     0.293 C 
HETATM   29  O   UNL     1       3.971  31.952  60.092  1.00  0.00    -0.259 OA
BRANCH  28  30
HETATM   30  O   UNL     1       5.114  33.477  58.812  1.00  0.00    -0.323 OA
HETATM   31  C   UNL     1       3.991  34.235  58.357  1.00  0.00     0.213 C 
ENDBRANCH  28  30
ENDBRANCH  10  28
TORSDOF 6
ENDMDL
MODEL 10
REMARK VINA RESULT:      -8.1      6.664      8.598
REMARK  6 active torsions:
REMARK  status: ('A' for Active; 'I' for Inactive)
REMARK    1  A    between atoms: C_7  and  S_8 
REMARK    2  A    between atoms: S_8  and  C_9 
REMARK    3  A    between atoms: C_9  and  C_10 
REMARK    4  A    between atoms: C_18  and  C_19 
REMARK    5  A    between atoms: C_26  and  C_27 
REMARK    6  A    between atoms: C_27  and  O_28 
ROOT
HETATM    1  C   UNL     1       5.907  32.164  49.842  1.00  0.00     0.070 C 
HETATM    2  C   UNL     1       5.311  30.861  50.311  1.00  0.00     0.037 C 
HETATM    3  N   UNL     1       6.104  30.114  51.178  1.00  0.00    -0.192 N 
HETATM    4  C   UNL     1       5.633  29.070  51.886  1.00  0.00     0.726 A 
HETATM    5  N   UNL     1       4.385  28.582  51.613  1.00  0.00    -0.082 N 
HETATM    6  N   UNL     1       4.037  27.609  52.481  1.00  0.00    -0.128 NA
HETATM    7  C   UNL     1       5.143  27.540  53.235  1.00  0.00     0.226 A 
HETATM    8  N   UNL     1       6.146  28.412  52.890  1.00  0.00    -0.035 NA
HETATM    9  C   UNL     1       3.507  29.125  50.570  1.00  0.00     0.203 C 
HETATM   10  C   UNL     1       4.064  30.425  50.000  1.00  0.00     0.070 C 
HETATM   11  H   UNL     1       6.993  30.519  51.464  1.00  0.00     0.184 HD
ENDROOT
BRANCH   7  12
HETATM   12  S   UNL     1       5.305  26.480  54.605  1.00  0.00    -0.083 SA
BRANCH  12  13
HETATM   13  C   UNL     1       7.089  26.158  54.601  1.00  0.00     0.123 C 
BRANCH  13  14
HETATM   14  C   UNL     1       7.371  24.684  54.412  1.00  0.00    -0.027 A 
HETATM   15  C   UNL     1       7.589  24.103  53.153  1.00  0.00     0.041 A 
HETATM   16 CL   UNL     1       7.592  25.036  51.698  1.00  0.00    -0.084 Cl
HETATM   17  C   UNL     1       7.811  22.726  53.033  1.00  0.00     0.024 A 
HETATM   18  C   UNL     1       7.808  21.911  54.164  1.00  0.00     0.002 A 
HETATM   19  C   UNL     1       7.585  22.470  55.419  1.00  0.00     0.001 A 
HETATM   20  C   UNL     1       7.367  23.844  55.542  1.00  0.00     0.009 A 
ENDBRANCH  13  14
ENDBRANCH  12  13
ENDBRANCH   7  12
BRANCH   9  21
HETATM   21  C   UNL     1       3.272  28.078  49.481  1.00  0.00    -0.028 A 
HETATM   22  C   UNL     1       1.969  27.844  49.007  1.00  0.00     0.011 A 
HETATM   23  C   UNL     1       1.734  26.912  47.994  1.00  0.00     0.024 A 
HETATM   24  C   UNL     1       2.800  26.207  47.440  1.00  0.00     0.034 A 
HETATM   25 CL   UNL     1       2.512  25.062  46.189  1.00  0.00    -0.084 Cl
HETATM   26  C   UNL     1       4.099  26.427  47.890  1.00  0.00     0.024 A 
HETATM   27  C   UNL     1       4.336  27.361  48.902  1.00  0.00     0.011 A 
ENDBRANCH   9  21
BRANCH  10  28
HETATM   28  C   UNL     1       3.096  31.156  49.155  1.00  0.00     0.293 C 
HETATM   29  O   UNL     1       2.146  31.766  49.621  1.00  0.00    -0.259 OA
BRANCH  28  30
HETATM   30  O   UNL     1       3.372  30.997  47.839  1.00  0.00    -0.323 OA
HETATM   31  C   UNL     1       2.214  30.948  47.004  1.00  0.00     0.213 C 
ENDBRANCH  28  30
ENDBRANCH  10  28
TORSDOF 6
ENDMDL
