MODEL 1
REMARK VINA RESULT:     -10.5      0.000      0.000
REMARK  6 active torsions:
REMARK  status: ('A' for Active; 'I' for Inactive)
REMARK    1  A    between atoms: C_4  and  O_5 
REMARK    2  A    between atoms: O_5  and  C_6 
REMARK    3  A    between atoms: C_6  and  C_7 
REMARK       I    between atoms: C_7  and  N_8 
REMARK    4  A    between atoms: N_8  and  C_9 
REMARK    5  A    between atoms: C_16  and  C_17 
REMARK       I    between atoms: C_17  and  N_18 
REMARK    6  A    between atoms: C_23  and  C_24 
ROOT
HETATM    1  C   UNL     1       7.400  25.931  57.544  1.00  0.00     0.246 C 
HETATM    2  N   UNL     1       7.283  27.190  56.977  1.00  0.00    -0.325 N 
HETATM    3  O   UNL     1       8.075  25.630  58.523  1.00  0.00    -0.271 OA
HETATM    4  H   UNL     1       6.571  27.279  56.259  1.00  0.00     0.169 HD
ENDROOT
BRANCH   2   5
HETATM    5  C   UNL     1       8.026  28.346  57.301  1.00  0.00     0.035 A 
HETATM    6  C   UNL     1       7.609  29.290  58.252  1.00  0.00     0.046 A 
HETATM    7  C   UNL     1       8.436  30.393  58.558  1.00  0.00     0.030 A 
HETATM    8  C   UNL     1       9.653  30.520  57.899  1.00  0.00     0.063 A 
HETATM    9  C   UNL     1       8.373  31.513  59.441  1.00  0.00     0.156 A 
HETATM   10  N   UNL     1      10.218  31.659  58.400  1.00  0.00    -0.277 N 
HETATM   11  C   UNL     1      10.099  29.604  56.942  1.00  0.00     0.034 A 
HETATM   12  H   UNL     1      11.114  32.062  58.150  1.00  0.00     0.189 HD
HETATM   13  N   UNL     1       9.478  32.286  59.331  1.00  0.00    -0.168 NA
HETATM   14  C   UNL     1       9.260  28.516  56.661  1.00  0.00     0.032 A 
BRANCH   9  15
HETATM   15  C   UNL     1       7.294  31.852  60.380  1.00  0.00     0.270 C 
HETATM   16  N   UNL     1       7.311  31.121  61.538  1.00  0.00    -0.365 N 
HETATM   17  H   UNL     1       8.035  30.423  61.662  1.00  0.00     0.159 HD
HETATM   18  H   UNL     1       6.607  31.285  62.241  1.00  0.00     0.159 HD
HETATM   19  O   UNL     1       6.434  32.702  60.183  1.00  0.00    -0.266 OA
ENDBRANCH   9  15
ENDBRANCH   2   5
BRANCH   1  20
HETATM   20  C   UNL     1       6.675  24.849  56.745  1.00  0.00     0.278 C 
BRANCH  20  21
HETATM   21  O   UNL     1       7.022  24.870  55.360  1.00  0.00    -0.342 OA
BRANCH  21  22
HETATM   22  C   UNL     1       7.347  23.620  54.885  1.00  0.00     0.076 A 
HETATM   23  C   UNL     1       7.696  22.584  55.765  1.00  0.00     0.044 A 
HETATM   24  C   UNL     1       8.008  21.306  55.288  1.00  0.00    -0.059 A 
HETATM   25  C   UNL     1       8.351  20.192  56.232  1.00  0.00     0.048 C 
HETATM   26  C   UNL     1       8.007  21.082  53.912  1.00  0.00     0.007 A 
HETATM   27  C   UNL     1       7.697  22.119  53.029  1.00  0.00     0.011 A 
HETATM   28  C   UNL     1       7.368  23.407  53.495  1.00  0.00    -0.021 A 
BRANCH  28  29
HETATM   29  C   UNL     1       7.024  24.469  52.461  1.00  0.00     0.013 C 
HETATM   30  C   UNL     1       5.552  24.881  52.525  1.00  0.00     0.015 C 
HETATM   31  C   UNL     1       7.952  25.683  52.523  1.00  0.00     0.015 C 
ENDBRANCH  28  29
ENDBRANCH  21  22
ENDBRANCH  20  21
ENDBRANCH   1  20
TORSDOF 6
ENDMDL
MODEL 2
REMARK VINA RESULT:     -10.3      0.729      2.600
REMARK  6 active torsions:
REMARK  status: ('A' for Active; 'I' for Inactive)
REMARK    1  A    between atoms: C_4  and  O_5 
REMARK    2  A    between atoms: O_5  and  C_6 
REMARK    3  A    between atoms: C_6  and  C_7 
REMARK       I    between atoms: C_7  and  N_8 
REMARK    4  A    between atoms: N_8  and  C_9 
REMARK    5  A    between atoms: C_16  and  C_17 
REMARK       I    between atoms: C_17  and  N_18 
REMARK    6  A    between atoms: C_23  and  C_24 
ROOT
HETATM    1  C   UNL     1       7.349  26.111  57.568  1.00  0.00     0.246 C 
HETATM    2  N   UNL     1       7.221  27.390  57.051  1.00  0.00    -0.325 N 
HETATM    3  O   UNL     1       8.059  25.772  58.510  1.00  0.00    -0.271 OA
HETATM    4  H   UNL     1       6.484  27.508  56.364  1.00  0.00     0.169 HD
ENDROOT
BRANCH   2   5
HETATM    5  C   UNL     1       7.984  28.529  57.388  1.00  0.00     0.035 A 
HETATM    6  C   UNL     1       7.604  29.448  58.378  1.00  0.00     0.046 A 
HETATM    7  C   UNL     1       8.450  30.533  58.692  1.00  0.00     0.030 A 
HETATM    8  C   UNL     1       9.648  30.670  58.001  1.00  0.00     0.063 A 
HETATM    9  C   UNL     1       8.423  31.627  59.609  1.00  0.00     0.156 A 
HETATM   10  N   UNL     1      10.239  31.788  58.520  1.00  0.00    -0.277 N 
HETATM   11  C   UNL     1      10.058  29.779  57.006  1.00  0.00     0.034 A 
HETATM   12  H   UNL     1      11.131  32.191  58.255  1.00  0.00     0.189 HD
HETATM   13  N   UNL     1       9.532  32.394  59.489  1.00  0.00    -0.168 NA
HETATM   14  C   UNL     1       9.201  28.707  56.717  1.00  0.00     0.032 A 
BRANCH   9  15
HETATM   15  C   UNL     1       7.375  31.948  60.589  1.00  0.00     0.270 C 
HETATM   16  N   UNL     1       7.309  31.074  61.641  1.00  0.00    -0.365 N 
HETATM   17  H   UNL     1       7.958  30.297  61.670  1.00  0.00     0.159 HD
HETATM   18  H   UNL     1       6.618  31.215  62.362  1.00  0.00     0.159 HD
HETATM   19  O   UNL     1       6.606  32.899  60.508  1.00  0.00    -0.266 OA
ENDBRANCH   9  15
ENDBRANCH   2   5
BRANCH   1  20
HETATM   20  C   UNL     1       6.587  25.063  56.760  1.00  0.00     0.278 C 
BRANCH  20  21
HETATM   21  O   UNL     1       7.303  23.831  56.654  1.00  0.00    -0.342 OA
BRANCH  21  22
HETATM   22  C   UNL     1       7.561  23.488  55.347  1.00  0.00     0.076 A 
HETATM   23  C   UNL     1       7.364  24.412  54.308  1.00  0.00     0.044 A 
HETATM   24  C   UNL     1       7.643  24.075  52.980  1.00  0.00    -0.059 A 
HETATM   25  C   UNL     1       7.462  25.073  51.875  1.00  0.00     0.048 C 
HETATM   26  C   UNL     1       8.084  22.784  52.691  1.00  0.00     0.007 A 
HETATM   27  C   UNL     1       8.245  21.848  53.715  1.00  0.00     0.011 A 
HETATM   28  C   UNL     1       7.981  22.178  55.060  1.00  0.00    -0.021 A 
BRANCH  28  29
HETATM   29  C   UNL     1       8.205  21.100  56.110  1.00  0.00     0.013 C 
HETATM   30  C   UNL     1       7.114  20.029  56.078  1.00  0.00     0.015 C 
HETATM   31  C   UNL     1       9.603  20.484  56.043  1.00  0.00     0.015 C 
ENDBRANCH  28  29
ENDBRANCH  21  22
ENDBRANCH  20  21
ENDBRANCH   1  20
TORSDOF 6
ENDMDL
MODEL 3
REMARK VINA RESULT:      -9.9      1.642      2.256
REMARK  6 active torsions:
REMARK  status: ('A' for Active; 'I' for Inactive)
REMARK    1  A    between atoms: C_4  and  O_5 
REMARK    2  A    between atoms: O_5  and  C_6 
REMARK    3  A    between atoms: C_6  and  C_7 
REMARK       I    between atoms: C_7  and  N_8 
REMARK    4  A    between atoms: N_8  and  C_9 
REMARK    5  A    between atoms: C_16  and  C_17 
REMARK       I    between atoms: C_17  and  N_18 
REMARK    6  A    between atoms: C_23  and  C_24 
ROOT
HETATM    1  C   UNL     1       7.481  25.947  57.510  1.00  0.00     0.246 C 
HETATM    2  N   UNL     1       6.847  26.957  56.805  1.00  0.00    -0.325 N 
HETATM    3  O   UNL     1       7.758  25.954  58.705  1.00  0.00    -0.271 OA
HETATM    4  H   UNL     1       6.575  26.719  55.856  1.00  0.00     0.169 HD
ENDROOT
BRANCH   2   5
HETATM    5  C   UNL     1       6.529  28.253  57.265  1.00  0.00     0.035 A 
HETATM    6  C   UNL     1       7.464  29.110  57.865  1.00  0.00     0.046 A 
HETATM    7  C   UNL     1       7.079  30.413  58.249  1.00  0.00     0.030 A 
HETATM    8  C   UNL     1       5.768  30.816  58.026  1.00  0.00     0.063 A 
HETATM    9  C   UNL     1       7.718  31.539  58.851  1.00  0.00     0.156 A 
HETATM   10  N   UNL     1       5.702  32.100  58.489  1.00  0.00    -0.277 N 
HETATM   11  C   UNL     1       4.808  29.990  57.436  1.00  0.00     0.034 A 
HETATM   12  H   UNL     1       4.895  32.714  58.486  1.00  0.00     0.189 HD
HETATM   13  N   UNL     1       6.855  32.572  58.995  1.00  0.00    -0.168 NA
HETATM   14  C   UNL     1       5.219  28.703  57.060  1.00  0.00     0.032 A 
BRANCH   9  15
HETATM   15  C   UNL     1       9.119  31.649  59.281  1.00  0.00     0.270 C 
HETATM   16  N   UNL     1       9.405  30.965  60.432  1.00  0.00    -0.365 N 
HETATM   17  H   UNL     1       8.662  30.452  60.891  1.00  0.00     0.159 HD
HETATM   18  H   UNL     1      10.343  30.985  60.803  1.00  0.00     0.159 HD
HETATM   19  O   UNL     1       9.985  32.288  58.694  1.00  0.00    -0.266 OA
ENDBRANCH   9  15
ENDBRANCH   2   5
BRANCH   1  20
HETATM   20  C   UNL     1       7.946  24.798  56.617  1.00  0.00     0.278 C 
BRANCH  20  21
HETATM   21  O   UNL     1       6.865  24.176  55.922  1.00  0.00    -0.342 OA
BRANCH  21  22
HETATM   22  C   UNL     1       7.291  23.165  55.092  1.00  0.00     0.076 A 
HETATM   23  C   UNL     1       7.777  21.958  55.619  1.00  0.00     0.044 A 
HETATM   24  C   UNL     1       8.193  20.919  54.780  1.00  0.00    -0.059 A 
HETATM   25  C   UNL     1       8.684  19.619  55.345  1.00  0.00     0.048 C 
HETATM   26  C   UNL     1       8.157  21.113  53.400  1.00  0.00     0.007 A 
HETATM   27  C   UNL     1       7.710  22.326  52.870  1.00  0.00     0.011 A 
HETATM   28  C   UNL     1       7.275  23.376  53.703  1.00  0.00    -0.021 A 
BRANCH  28  29
HETATM   29  C   UNL     1       6.785  24.653  53.036  1.00  0.00     0.013 C 
HETATM   30  C   UNL     1       7.648  25.043  51.835  1.00  0.00     0.015 C 
HETATM   31  C   UNL     1       5.301  24.603  52.671  1.00  0.00     0.015 C 
ENDBRANCH  28  29
ENDBRANCH  21  22
ENDBRANCH  20  21
ENDBRANCH   1  20
TORSDOF 6
ENDMDL
MODEL 4
REMARK VINA RESULT:      -9.5      3.196      3.724
REMARK  6 active torsions:
REMARK  status: ('A' for Active; 'I' for Inactive)
REMARK    1  A    between atoms: C_4  and  O_5 
REMARK    2  A    between atoms: O_5  and  C_6 
REMARK    3  A    between atoms: C_6  and  C_7 
REMARK       I    between atoms: C_7  and  N_8 
REMARK    4  A    between atoms: N_8  and  C_9 
REMARK    5  A    between atoms: C_16  and  C_17 
REMARK       I    between atoms: C_17  and  N_18 
REMARK    6  A    between atoms: C_23  and  C_24 
ROOT
HETATM    1  C   UNL     1       5.882  25.704  56.801  1.00  0.00     0.246 C 
HETATM    2  N   UNL     1       6.158  26.889  56.140  1.00  0.00    -0.325 N 
HETATM    3  O   UNL     1       4.786  25.335  57.213  1.00  0.00    -0.271 OA
HETATM    4  H   UNL     1       7.093  26.961  55.750  1.00  0.00     0.169 HD
ENDROOT
BRANCH   2   5
HETATM    5  C   UNL     1       5.286  27.981  55.940  1.00  0.00     0.035 A 
HETATM    6  C   UNL     1       4.920  28.875  56.957  1.00  0.00     0.046 A 
HETATM    7  C   UNL     1       4.085  29.974  56.662  1.00  0.00     0.030 A 
HETATM    8  C   UNL     1       3.636  30.142  55.358  1.00  0.00     0.063 A 
HETATM    9  C   UNL     1       3.526  31.066  57.392  1.00  0.00     0.156 A 
HETATM   10  N   UNL     1       2.867  31.271  55.384  1.00  0.00    -0.277 N 
HETATM   11  C   UNL     1       3.974  29.271  54.319  1.00  0.00     0.034 A 
HETATM   12  H   UNL     1       2.377  31.699  54.606  1.00  0.00     0.189 HD
HETATM   13  N   UNL     1       2.775  31.857  56.590  1.00  0.00    -0.168 NA
HETATM   14  C   UNL     1       4.809  28.190  54.639  1.00  0.00     0.032 A 
BRANCH   9  15
HETATM   15  C   UNL     1       3.697  31.369  58.820  1.00  0.00     0.270 C 
HETATM   16  N   UNL     1       3.098  30.467  59.658  1.00  0.00    -0.365 N 
HETATM   17  H   UNL     1       2.597  29.685  59.253  1.00  0.00     0.159 HD
HETATM   18  H   UNL     1       3.162  30.595  60.656  1.00  0.00     0.159 HD
HETATM   19  O   UNL     1       4.308  32.334  59.265  1.00  0.00    -0.266 OA
ENDBRANCH   9  15
ENDBRANCH   2   5
BRANCH   1  20
HETATM   20  C   UNL     1       7.135  24.886  57.106  1.00  0.00     0.278 C 
BRANCH  20  21
HETATM   21  O   UNL     1       8.051  24.864  56.010  1.00  0.00    -0.342 OA
BRANCH  21  22
HETATM   22  C   UNL     1       8.040  23.659  55.346  1.00  0.00     0.076 A 
HETATM   23  C   UNL     1       8.542  22.497  55.954  1.00  0.00     0.044 A 
HETATM   24  C   UNL     1       8.516  21.266  55.290  1.00  0.00    -0.059 A 
HETATM   25  C   UNL     1       9.025  20.020  55.953  1.00  0.00     0.048 C 
HETATM   26  C   UNL     1       8.018  21.213  53.989  1.00  0.00     0.007 A 
HETATM   27  C   UNL     1       7.552  22.372  53.364  1.00  0.00     0.011 A 
HETATM   28  C   UNL     1       7.559  23.617  54.026  1.00  0.00    -0.021 A 
BRANCH  28  29
HETATM   29  C   UNL     1       7.013  24.822  53.274  1.00  0.00     0.013 C 
HETATM   30  C   UNL     1       7.686  25.005  51.913  1.00  0.00     0.015 C 
HETATM   31  C   UNL     1       5.489  24.806  53.152  1.00  0.00     0.015 C 
ENDBRANCH  28  29
ENDBRANCH  21  22
ENDBRANCH  20  21
ENDBRANCH   1  20
TORSDOF 6
ENDMDL
MODEL 5
REMARK VINA RESULT:      -9.5      5.410      8.901
REMARK  6 active torsions:
REMARK  status: ('A' for Active; 'I' for Inactive)
REMARK    1  A    between atoms: C_4  and  O_5 
REMARK    2  A    between atoms: O_5  and  C_6 
REMARK    3  A    between atoms: C_6  and  C_7 
REMARK       I    between atoms: C_7  and  N_8 
REMARK    4  A    between atoms: N_8  and  C_9 
REMARK    5  A    between atoms: C_16  and  C_17 
REMARK       I    between atoms: C_17  and  N_18 
REMARK    6  A    between atoms: C_23  and  C_24 
ROOT
HETATM    1  C   UNL     1       6.102  25.538  51.689  1.00  0.00     0.246 C 
HETATM    2  N   UNL     1       6.046  26.540  50.734  1.00  0.00    -0.325 N 
HETATM    3  O   UNL     1       5.148  25.029  52.269  1.00  0.00    -0.271 OA
HETATM    4  H   UNL     1       6.923  26.739  50.262  1.00  0.00     0.169 HD
ENDROOT
BRANCH   2   5
HETATM    5  C   UNL     1       4.915  27.289  50.343  1.00  0.00     0.035 A 
HETATM    6  C   UNL     1       4.123  26.967  49.231  1.00  0.00     0.046 A 
HETATM    7  C   UNL     1       2.975  27.736  48.939  1.00  0.00     0.030 A 
HETATM    8  C   UNL     1       2.658  28.806  49.766  1.00  0.00     0.063 A 
HETATM    9  C   UNL     1       1.950  27.717  47.945  1.00  0.00     0.156 A 
HETATM   10  N   UNL     1       1.516  29.342  49.241  1.00  0.00    -0.277 N 
HETATM   11  C   UNL     1       3.425  29.160  50.879  1.00  0.00     0.034 A 
HETATM   12  H   UNL     1       0.995  30.139  49.589  1.00  0.00     0.189 HD
HETATM   13  N   UNL     1       1.058  28.715  48.143  1.00  0.00    -0.168 NA
HETATM   14  C   UNL     1       4.556  28.377  51.149  1.00  0.00     0.032 A 
BRANCH   9  15
HETATM   15  C   UNL     1       1.804  26.772  46.828  1.00  0.00     0.270 C 
HETATM   16  N   UNL     1       0.696  26.992  46.054  1.00  0.00    -0.365 N 
HETATM   17  H   UNL     1       0.077  27.757  46.295  1.00  0.00     0.159 HD
HETATM   18  H   UNL     1       0.514  26.391  45.264  1.00  0.00     0.159 HD
HETATM   19  O   UNL     1       2.578  25.855  46.578  1.00  0.00    -0.266 OA
ENDBRANCH   9  15
ENDBRANCH   2   5
BRANCH   1  20
HETATM   20  C   UNL     1       7.530  25.167  52.082  1.00  0.00     0.278 C 
BRANCH  20  21
HETATM   21  O   UNL     1       7.729  25.187  53.496  1.00  0.00    -0.342 OA
BRANCH  21  22
HETATM   22  C   UNL     1       7.860  23.921  54.022  1.00  0.00     0.076 A 
HETATM   23  C   UNL     1       7.985  22.803  53.183  1.00  0.00     0.044 A 
HETATM   24  C   UNL     1       8.137  21.517  53.712  1.00  0.00    -0.059 A 
HETATM   25  C   UNL     1       8.301  20.326  52.814  1.00  0.00     0.048 C 
HETATM   26  C   UNL     1       8.123  21.353  55.096  1.00  0.00     0.007 A 
HETATM   27  C   UNL     1       7.961  22.457  55.936  1.00  0.00     0.011 A 
HETATM   28  C   UNL     1       7.820  23.760  55.417  1.00  0.00    -0.021 A 
BRANCH  28  29
HETATM   29  C   UNL     1       7.669  24.904  56.408  1.00  0.00     0.013 C 
HETATM   30  C   UNL     1       6.241  25.018  56.945  1.00  0.00     0.015 C 
HETATM   31  C   UNL     1       8.694  24.850  57.542  1.00  0.00     0.015 C 
ENDBRANCH  28  29
ENDBRANCH  21  22
ENDBRANCH  20  21
ENDBRANCH   1  20
TORSDOF 6
ENDMDL
MODEL 6
REMARK VINA RESULT:      -9.2      3.605      5.017
REMARK  6 active torsions:
REMARK  status: ('A' for Active; 'I' for Inactive)
REMARK    1  A    between atoms: C_4  and  O_5 
REMARK    2  A    between atoms: O_5  and  C_6 
REMARK    3  A    between atoms: C_6  and  C_7 
REMARK       I    between atoms: C_7  and  N_8 
REMARK    4  A    between atoms: N_8  and  C_9 
REMARK    5  A    between atoms: C_16  and  C_17 
REMARK       I    between atoms: C_17  and  N_18 
REMARK    6  A    between atoms: C_23  and  C_24 
ROOT
HETATM    1  C   UNL     1       5.599  26.058  52.552  1.00  0.00     0.246 C 
HETATM    2  N   UNL     1       5.759  27.432  52.466  1.00  0.00    -0.325 N 
HETATM    3  O   UNL     1       4.631  25.463  53.015  1.00  0.00    -0.271 OA
HETATM    4  H   UNL     1       6.561  27.742  51.927  1.00  0.00     0.169 HD
ENDROOT
BRANCH   2   5
HETATM    5  C   UNL     1       4.928  28.427  53.025  1.00  0.00     0.035 A 
HETATM    6  C   UNL     1       4.926  28.754  54.389  1.00  0.00     0.046 A 
HETATM    7  C   UNL     1       4.102  29.800  54.861  1.00  0.00     0.030 A 
HETATM    8  C   UNL     1       3.303  30.483  53.953  1.00  0.00     0.063 A 
HETATM    9  C   UNL     1       3.842  30.415  56.122  1.00  0.00     0.156 A 
HETATM   10  N   UNL     1       2.639  31.422  54.691  1.00  0.00    -0.277 N 
HETATM   11  C   UNL     1       3.274  30.183  52.589  1.00  0.00     0.034 A 
HETATM   12  H   UNL     1       1.968  32.105  54.357  1.00  0.00     0.189 HD
HETATM   13  N   UNL     1       2.935  31.413  56.002  1.00  0.00    -0.168 NA
HETATM   14  C   UNL     1       4.105  29.143  52.147  1.00  0.00     0.032 A 
BRANCH   9  15
HETATM   15  C   UNL     1       4.439  30.078  57.423  1.00  0.00     0.270 C 
HETATM   16  N   UNL     1       3.555  30.113  58.468  1.00  0.00    -0.365 N 
HETATM   17  H   UNL     1       2.591  30.360  58.282  1.00  0.00     0.159 HD
HETATM   18  H   UNL     1       3.877  29.896  59.399  1.00  0.00     0.159 HD
HETATM   19  O   UNL     1       5.617  29.789  57.601  1.00  0.00    -0.266 OA
ENDBRANCH   9  15
ENDBRANCH   2   5
BRANCH   1  20
HETATM   20  C   UNL     1       6.840  25.285  52.110  1.00  0.00     0.278 C 
BRANCH  20  21
HETATM   21  O   UNL     1       7.844  25.242  53.124  1.00  0.00    -0.342 OA
BRANCH  21  22
HETATM   22  C   UNL     1       7.888  24.024  53.763  1.00  0.00     0.076 A 
HETATM   23  C   UNL     1       8.060  22.836  53.035  1.00  0.00     0.044 A 
HETATM   24  C   UNL     1       8.125  21.596  53.681  1.00  0.00    -0.059 A 
HETATM   25  C   UNL     1       8.339  20.331  52.904  1.00  0.00     0.048 C 
HETATM   26  C   UNL     1       7.975  21.550  55.066  1.00  0.00     0.007 A 
HETATM   27  C   UNL     1       7.765  22.725  55.792  1.00  0.00     0.011 A 
HETATM   28  C   UNL     1       7.712  23.982  55.157  1.00  0.00    -0.021 A 
BRANCH  28  29
HETATM   29  C   UNL     1       7.500  25.209  56.030  1.00  0.00     0.013 C 
HETATM   30  C   UNL     1       6.017  25.509  56.254  1.00  0.00     0.015 C 
HETATM   31  C   UNL     1       8.267  25.138  57.352  1.00  0.00     0.015 C 
ENDBRANCH  28  29
ENDBRANCH  21  22
ENDBRANCH  20  21
ENDBRANCH   1  20
TORSDOF 6
ENDMDL
MODEL 7
REMARK VINA RESULT:      -9.1      5.411      8.054
REMARK  6 active torsions:
REMARK  status: ('A' for Active; 'I' for Inactive)
REMARK    1  A    between atoms: C_4  and  O_5 
REMARK    2  A    between atoms: O_5  and  C_6 
REMARK    3  A    between atoms: C_6  and  C_7 
REMARK       I    between atoms: C_7  and  N_8 
REMARK    4  A    between atoms: N_8  and  C_9 
REMARK    5  A    between atoms: C_16  and  C_17 
REMARK       I    between atoms: C_17  and  N_18 
REMARK    6  A    between atoms: C_23  and  C_24 
ROOT
HETATM    1  C   UNL     1       5.847  25.586  51.614  1.00  0.00     0.246 C 
HETATM    2  N   UNL     1       5.698  26.120  50.344  1.00  0.00    -0.325 N 
HETATM    3  O   UNL     1       4.971  25.472  52.465  1.00  0.00    -0.271 OA
HETATM    4  H   UNL     1       6.498  26.005  49.729  1.00  0.00     0.169 HD
ENDROOT
BRANCH   2   5
HETATM    5  C   UNL     1       4.566  26.781  49.821  1.00  0.00     0.035 A 
HETATM    6  C   UNL     1       4.181  28.075  50.203  1.00  0.00     0.046 A 
HETATM    7  C   UNL     1       3.065  28.686  49.592  1.00  0.00     0.030 A 
HETATM    8  C   UNL     1       2.366  27.982  48.619  1.00  0.00     0.063 A 
HETATM    9  C   UNL     1       2.396  29.943  49.695  1.00  0.00     0.156 A 
HETATM   10  N   UNL     1       1.363  28.820  48.219  1.00  0.00    -0.277 N 
HETATM   11  C   UNL     1       2.715  26.691  48.216  1.00  0.00     0.034 A 
HETATM   12  H   UNL     1       0.654  28.638  47.516  1.00  0.00     0.189 HD
HETATM   13  N   UNL     1       1.346  30.010  48.843  1.00  0.00    -0.168 NA
HETATM   14  C   UNL     1       3.830  26.109  48.836  1.00  0.00     0.032 A 
BRANCH   9  15
HETATM   15  C   UNL     1       2.738  31.070  50.575  1.00  0.00     0.270 C 
HETATM   16  N   UNL     1       1.746  31.414  51.453  1.00  0.00    -0.365 N 
HETATM   17  H   UNL     1       0.878  30.891  51.436  1.00  0.00     0.159 HD
HETATM   18  H   UNL     1       1.891  32.177  52.096  1.00  0.00     0.159 HD
HETATM   19  O   UNL     1       3.803  31.677  50.556  1.00  0.00    -0.266 OA
ENDBRANCH   9  15
ENDBRANCH   2   5
BRANCH   1  20
HETATM   20  C   UNL     1       7.296  25.233  51.946  1.00  0.00     0.278 C 
BRANCH  20  21
HETATM   21  O   UNL     1       7.562  25.293  53.348  1.00  0.00    -0.342 OA
BRANCH  21  22
HETATM   22  C   UNL     1       7.707  24.043  53.905  1.00  0.00     0.076 A 
HETATM   23  C   UNL     1       7.881  22.910  53.095  1.00  0.00     0.044 A 
HETATM   24  C   UNL     1       8.048  21.639  53.656  1.00  0.00    -0.059 A 
HETATM   25  C   UNL     1       8.264  20.434  52.790  1.00  0.00     0.048 C 
HETATM   26  C   UNL     1       7.999  21.505  55.043  1.00  0.00     0.007 A 
HETATM   27  C   UNL     1       7.789  22.623  55.853  1.00  0.00     0.011 A 
HETATM   28  C   UNL     1       7.633  23.910  55.302  1.00  0.00    -0.021 A 
BRANCH  28  29
HETATM   29  C   UNL     1       7.429  25.072  56.263  1.00  0.00     0.013 C 
HETATM   30  C   UNL     1       5.994  25.139  56.790  1.00  0.00     0.015 C 
HETATM   31  C   UNL     1       8.449  25.089  57.403  1.00  0.00     0.015 C 
ENDBRANCH  28  29
ENDBRANCH  21  22
ENDBRANCH  20  21
ENDBRANCH   1  20
TORSDOF 6
ENDMDL
MODEL 8
REMARK VINA RESULT:      -9.1      4.812      9.740
REMARK  6 active torsions:
REMARK  status: ('A' for Active; 'I' for Inactive)
REMARK    1  A    between atoms: C_4  and  O_5 
REMARK    2  A    between atoms: O_5  and  C_6 
REMARK    3  A    between atoms: C_6  and  C_7 
REMARK       I    between atoms: C_7  and  N_8 
REMARK    4  A    between atoms: N_8  and  C_9 
REMARK    5  A    between atoms: C_16  and  C_17 
REMARK       I    between atoms: C_17  and  N_18 
REMARK    6  A    between atoms: C_23  and  C_24 
ROOT
HETATM    1  C   UNL     1       5.377  32.429  58.962  1.00  0.00     0.246 C 
HETATM    2  N   UNL     1       5.427  31.054  58.799  1.00  0.00    -0.325 N 
HETATM    3  O   UNL     1       5.685  33.274  58.128  1.00  0.00    -0.271 OA
HETATM    4  H   UNL     1       5.001  30.512  59.545  1.00  0.00     0.169 HD
ENDROOT
BRANCH   2   5
HETATM    5  C   UNL     1       5.982  30.340  57.716  1.00  0.00     0.035 A 
HETATM    6  C   UNL     1       5.230  29.890  56.620  1.00  0.00     0.046 A 
HETATM    7  C   UNL     1       5.872  29.229  55.550  1.00  0.00     0.030 A 
HETATM    8  C   UNL     1       7.246  29.035  55.611  1.00  0.00     0.063 A 
HETATM    9  C   UNL     1       5.470  28.660  54.304  1.00  0.00     0.156 A 
HETATM   10  N   UNL     1       7.570  28.386  54.453  1.00  0.00    -0.277 N 
HETATM   11  C   UNL     1       8.027  29.463  56.687  1.00  0.00     0.034 A 
HETATM   12  H   UNL     1       8.491  28.084  54.155  1.00  0.00     0.189 HD
HETATM   13  N   UNL     1       6.529  28.141  53.639  1.00  0.00    -0.168 NA
HETATM   14  C   UNL     1       7.366  30.121  57.734  1.00  0.00     0.032 A 
BRANCH   9  15
HETATM   15  C   UNL     1       4.113  28.606  53.740  1.00  0.00     0.270 C 
HETATM   16  N   UNL     1       3.715  27.352  53.363  1.00  0.00    -0.365 N 
HETATM   17  H   UNL     1       4.356  26.578  53.491  1.00  0.00     0.159 HD
HETATM   18  H   UNL     1       2.798  27.219  52.964  1.00  0.00     0.159 HD
HETATM   19  O   UNL     1       3.374  29.573  53.598  1.00  0.00    -0.266 OA
ENDBRANCH   9  15
ENDBRANCH   2   5
BRANCH   1  20
HETATM   20  C   UNL     1       4.997  32.847  60.381  1.00  0.00     0.278 C 
BRANCH  20  21
HETATM   21  O   UNL     1       5.260  31.821  61.340  1.00  0.00    -0.342 OA
BRANCH  21  22
HETATM   22  C   UNL     1       5.969  32.288  62.423  1.00  0.00     0.076 A 
HETATM   23  C   UNL     1       5.319  32.944  63.480  1.00  0.00     0.044 A 
HETATM   24  C   UNL     1       6.032  33.404  64.592  1.00  0.00    -0.059 A 
HETATM   25  C   UNL     1       5.332  34.077  65.735  1.00  0.00     0.048 C 
HETATM   26  C   UNL     1       7.416  33.237  64.620  1.00  0.00     0.007 A 
HETATM   27  C   UNL     1       8.074  32.619  63.554  1.00  0.00     0.011 A 
HETATM   28  C   UNL     1       7.367  32.139  62.434  1.00  0.00    -0.021 A 
BRANCH  28  29
HETATM   29  C   UNL     1       8.165  31.460  61.330  1.00  0.00     0.013 C 
HETATM   30  C   UNL     1       8.768  32.470  60.352  1.00  0.00     0.015 C 
HETATM   31  C   UNL     1       9.222  30.494  61.866  1.00  0.00     0.015 C 
ENDBRANCH  28  29
ENDBRANCH  21  22
ENDBRANCH  20  21
ENDBRANCH   1  20
TORSDOF 6
ENDMDL
MODEL 9
REMARK VINA RESULT:      -9.0      4.047      6.044
REMARK  6 active torsions:
REMARK  status: ('A' for Active; 'I' for Inactive)
REMARK    1  A    between atoms: C_4  and  O_5 
REMARK    2  A    between atoms: O_5  and  C_6 
REMARK    3  A    between atoms: C_6  and  C_7 
REMARK       I    between atoms: C_7  and  N_8 
REMARK    4  A    between atoms: N_8  and  C_9 
REMARK    5  A    between atoms: C_16  and  C_17 
REMARK       I    between atoms: C_17  and  N_18 
REMARK    6  A    between atoms: C_23  and  C_24 
ROOT
HETATM    1  C   UNL     1       6.552  26.833  55.981  1.00  0.00     0.246 C 
HETATM    2  N   UNL     1       5.207  27.046  55.723  1.00  0.00    -0.325 N 
HETATM    3  O   UNL     1       7.474  27.603  55.731  1.00  0.00    -0.271 OA
HETATM    4  H   UNL     1       4.574  26.362  56.125  1.00  0.00     0.169 HD
ENDROOT
BRANCH   2   5
HETATM    5  C   UNL     1       4.635  28.106  54.987  1.00  0.00     0.035 A 
HETATM    6  C   UNL     1       4.369  28.035  53.611  1.00  0.00     0.046 A 
HETATM    7  C   UNL     1       3.744  29.121  52.959  1.00  0.00     0.030 A 
HETATM    8  C   UNL     1       3.409  30.245  53.702  1.00  0.00     0.063 A 
HETATM    9  C   UNL     1       3.312  29.411  51.629  1.00  0.00     0.156 A 
HETATM   10  N   UNL     1       2.827  31.105  52.814  1.00  0.00    -0.277 N 
HETATM   11  C   UNL     1       3.662  30.355  55.072  1.00  0.00     0.034 A 
HETATM   12  H   UNL     1       2.455  32.029  53.006  1.00  0.00     0.189 HD
HETATM   13  N   UNL     1       2.751  30.641  51.555  1.00  0.00    -0.168 NA
HETATM   14  C   UNL     1       4.279  29.261  55.696  1.00  0.00     0.032 A 
BRANCH   9  15
HETATM   15  C   UNL     1       3.420  28.548  50.444  1.00  0.00     0.270 C 
HETATM   16  N   UNL     1       2.219  28.264  49.850  1.00  0.00    -0.365 N 
HETATM   17  H   UNL     1       1.374  28.651  50.252  1.00  0.00     0.159 HD
HETATM   18  H   UNL     1       2.196  27.677  49.030  1.00  0.00     0.159 HD
HETATM   19  O   UNL     1       4.468  28.097  49.997  1.00  0.00    -0.266 OA
ENDBRANCH   9  15
ENDBRANCH   2   5
BRANCH   1  20
HETATM   20  C   UNL     1       6.839  25.436  56.528  1.00  0.00     0.278 C 
BRANCH  20  21
HETATM   21  O   UNL     1       6.096  24.423  55.849  1.00  0.00    -0.342 OA
BRANCH  21  22
HETATM   22  C   UNL     1       6.904  23.587  55.113  1.00  0.00     0.076 A 
HETATM   23  C   UNL     1       7.624  22.553  55.733  1.00  0.00     0.044 A 
HETATM   24  C   UNL     1       8.433  21.689  54.987  1.00  0.00    -0.059 A 
HETATM   25  C   UNL     1       9.178  20.566  55.647  1.00  0.00     0.048 C 
HETATM   26  C   UNL     1       8.548  21.893  53.613  1.00  0.00     0.007 A 
HETATM   27  C   UNL     1       7.864  22.943  52.996  1.00  0.00     0.011 A 
HETATM   28  C   UNL     1       7.035  23.813  53.732  1.00  0.00    -0.021 A 
BRANCH  28  29
HETATM   29  C   UNL     1       6.313  24.916  52.972  1.00  0.00     0.013 C 
HETATM   30  C   UNL     1       7.101  25.382  51.746  1.00  0.00     0.015 C 
HETATM   31  C   UNL     1       4.874  24.545  52.610  1.00  0.00     0.015 C 
ENDBRANCH  28  29
ENDBRANCH  21  22
ENDBRANCH  20  21
ENDBRANCH   1  20
TORSDOF 6
ENDMDL
MODEL 10
REMARK VINA RESULT:      -9.0      3.685      6.632
REMARK  6 active torsions:
REMARK  status: ('A' for Active; 'I' for Inactive)
REMARK    1  A    between atoms: C_4  and  O_5 
REMARK    2  A    between atoms: O_5  and  C_6 
REMARK    3  A    between atoms: C_6  and  C_7 
REMARK       I    between atoms: C_7  and  N_8 
REMARK    4  A    between atoms: N_8  and  C_9 
REMARK    5  A    between atoms: C_16  and  C_17 
REMARK       I    between atoms: C_17  and  N_18 
REMARK    6  A    between atoms: C_23  and  C_24 
ROOT
HETATM    1  C   UNL     1       8.268  31.395  59.933  1.00  0.00     0.246 C 
HETATM    2  N   UNL     1       7.651  31.035  61.120  1.00  0.00    -0.325 N 
HETATM    3  O   UNL     1       8.614  32.525  59.603  1.00  0.00    -0.271 OA
HETATM    4  H   UNL     1       7.565  30.036  61.279  1.00  0.00     0.169 HD
ENDROOT
BRANCH   2   5
HETATM    5  C   UNL     1       7.154  31.897  62.122  1.00  0.00     0.035 A 
HETATM    6  C   UNL     1       5.838  32.382  62.140  1.00  0.00     0.046 A 
HETATM    7  C   UNL     1       5.403  33.197  63.208  1.00  0.00     0.030 A 
HETATM    8  C   UNL     1       6.300  33.505  64.223  1.00  0.00     0.063 A 
HETATM    9  C   UNL     1       4.187  33.847  63.577  1.00  0.00     0.156 A 
HETATM   10  N   UNL     1       5.601  34.288  65.097  1.00  0.00    -0.277 N 
HETATM   11  C   UNL     1       7.620  33.045  64.237  1.00  0.00     0.034 A 
HETATM   12  H   UNL     1       5.939  34.698  65.961  1.00  0.00     0.189 HD
HETATM   13  N   UNL     1       4.325  34.518  64.743  1.00  0.00    -0.168 NA
HETATM   14  C   UNL     1       8.024  32.234  63.167  1.00  0.00     0.032 A 
BRANCH   9  15
HETATM   15  C   UNL     1       2.909  33.835  62.849  1.00  0.00     0.270 C 
HETATM   16  N   UNL     1       1.806  33.784  63.659  1.00  0.00    -0.365 N 
HETATM   17  H   UNL     1       1.940  33.758  64.662  1.00  0.00     0.159 HD
HETATM   18  H   UNL     1       0.886  33.771  63.246  1.00  0.00     0.159 HD
HETATM   19  O   UNL     1       2.796  33.862  61.629  1.00  0.00    -0.266 OA
ENDBRANCH   9  15
ENDBRANCH   2   5
BRANCH   1  20
HETATM   20  C   UNL     1       8.390  30.233  58.949  1.00  0.00     0.278 C 
BRANCH  20  21
HETATM   21  O   UNL     1       7.448  30.325  57.879  1.00  0.00    -0.342 OA
BRANCH  21  22
HETATM   22  C   UNL     1       6.925  29.098  57.537  1.00  0.00     0.076 A 
HETATM   23  C   UNL     1       7.689  27.928  57.673  1.00  0.00     0.044 A 
HETATM   24  C   UNL     1       7.157  26.677  57.345  1.00  0.00    -0.059 A 
HETATM   25  C   UNL     1       7.964  25.424  57.520  1.00  0.00     0.048 C 
HETATM   26  C   UNL     1       5.859  26.609  56.839  1.00  0.00     0.007 A 
HETATM   27  C   UNL     1       5.108  27.773  56.666  1.00  0.00     0.011 A 
HETATM   28  C   UNL     1       5.626  29.039  57.005  1.00  0.00    -0.021 A 
BRANCH  28  29
HETATM   29  C   UNL     1       4.728  30.250  56.802  1.00  0.00     0.013 C 
HETATM   30  C   UNL     1       3.837  30.107  55.566  1.00  0.00     0.015 C 
HETATM   31  C   UNL     1       3.911  30.602  58.047  1.00  0.00     0.015 C 
ENDBRANCH  28  29
ENDBRANCH  21  22
ENDBRANCH  20  21
ENDBRANCH   1  20
TORSDOF 6
ENDMDL
