MODEL 1
REMARK VINA RESULT:     -10.6      0.000      0.000
REMARK  9 active torsions:
REMARK  status: ('A' for Active; 'I' for Inactive)
REMARK    1  A    between atoms: C_7  and  O_8 
REMARK    2  A    between atoms: O_8  and  C_9 
REMARK    3  A    between atoms: C_10  and  N_11 
REMARK    4  A    between atoms: N_11  and  C_12 
REMARK    5  A    between atoms: C_14  and  C_15 
REMARK       I    between atoms: C_15  and  N_16 
REMARK    6  A    between atoms: N_16  and  C_17 
REMARK    7  A    between atoms: C_17  and  C_18 
REMARK    8  A    between atoms: C_18  and  N_19 
REMARK    9  A    between atoms: N_29  and  C_30 
ROOT
HETATM    1  C   UNL     1       6.611  26.064  56.621  1.00  0.00     0.122 C 
HETATM    2  C   UNL     1       5.980  27.236  56.438  1.00  0.00     0.119 C 
HETATM    3  C   UNL     1       6.675  28.513  56.854  1.00  0.00     0.293 C 
HETATM    4  O   UNL     1       6.108  29.571  56.564  1.00  0.00    -0.264 OA
HETATM    5  N   UNL     1       7.911  28.383  57.485  1.00  0.00    -0.195 N 
HETATM    6  N   UNL     1       8.635  27.211  57.455  1.00  0.00    -0.174 NA
HETATM    7  C   UNL     1       8.023  26.153  57.046  1.00  0.00     0.178 C 
ENDROOT
BRANCH   2   8
HETATM    8  N   UNL     1       4.685  27.424  55.926  1.00  0.00    -0.253 NA
HETATM    9  H   UNL     1       4.149  27.965  56.620  1.00  0.00     0.134 HD
BRANCH   8  10
HETATM   10  C   UNL     1       4.403  27.969  54.644  1.00  0.00     0.014 A 
HETATM   11  C   UNL     1       4.768  27.222  53.514  1.00  0.00     0.040 A 
HETATM   12  C   UNL     1       4.513  27.708  52.226  1.00  0.00     0.033 A 
HETATM   13  C   UNL     1       3.864  28.934  52.049  1.00  0.00     0.017 A 
HETATM   14  C   UNL     1       3.484  29.674  53.164  1.00  0.00     0.003 A 
HETATM   15  C   UNL     1       3.759  29.199  54.450  1.00  0.00     0.024 A 
BRANCH  12  16
HETATM   16  C   UNL     1       4.929  26.894  51.059  1.00  0.00     0.251 C 
HETATM   17  N   UNL     1       4.095  26.930  49.958  1.00  0.00    -0.355 N 
HETATM   18  H   UNL     1       3.383  27.657  49.981  1.00  0.00     0.162 HD
HETATM   19  O   UNL     1       5.938  26.201  51.089  1.00  0.00    -0.268 OA
BRANCH  17  20
HETATM   20  C   UNL     1       4.551  26.554  48.620  1.00  0.00     0.150 C 
BRANCH  20  21
HETATM   21  C   UNL     1       3.902  27.266  47.413  1.00  0.00     0.253 C 
BRANCH  21  22
HETATM   22  N   UNL     1       2.765  26.465  46.812  1.00  0.00    -0.077 N 
HETATM   23  H   UNL     1       2.924  26.541  45.793  1.00  0.00     0.279 HD
HETATM   24  C   UNL     1       2.759  25.022  47.197  1.00  0.00     0.269 C 
HETATM   25  C   UNL     1       1.437  27.121  47.047  1.00  0.00     0.269 C 
ENDBRANCH  21  22
ENDBRANCH  20  21
ENDBRANCH  17  20
ENDBRANCH  12  16
ENDBRANCH   8  10
ENDBRANCH   2   8
BRANCH   1  26
HETATM   26  O   UNL     1       5.996  24.854  56.309  1.00  0.00    -0.307 OA
BRANCH  26  27
HETATM   27  C   UNL     1       6.678  23.916  55.576  1.00  0.00     0.076 A 
HETATM   28  C   UNL     1       6.729  24.104  54.198  1.00  0.00     0.039 A 
HETATM   29  C   UNL     1       7.416  23.190  53.400  1.00  0.00     0.027 A 
HETATM   30  C   UNL     1       8.043  22.083  53.980  1.00  0.00     0.040 A 
HETATM   31  C   UNL     1       7.966  21.861  55.365  1.00  0.00    -0.038 A 
HETATM   32 CL   UNL     1       8.908  21.012  52.937  1.00  0.00    -0.084 Cl
HETATM   33  C   UNL     1       8.649  20.692  56.019  1.00  0.00     0.050 C 
HETATM   34  C   UNL     1       7.262  22.784  56.157  1.00  0.00     0.045 A 
ENDBRANCH  26  27
ENDBRANCH   1  26
BRANCH   5  35
HETATM   35  C   UNL     1       8.637  29.506  57.999  1.00  0.00     0.084 A 
HETATM   36  C   UNL     1       9.748  30.083  57.353  1.00  0.00     0.063 A 
HETATM   37 CL   UNL     1      10.205  29.705  55.722  1.00  0.00    -0.082 Cl
HETATM   38  C   UNL     1      10.447  31.143  57.951  1.00  0.00     0.026 A 
HETATM   39  C   UNL     1      10.033  31.665  59.175  1.00  0.00     0.002 A 
HETATM   40  C   UNL     1       8.904  31.147  59.797  1.00  0.00     0.002 A 
HETATM   41  C   UNL     1       8.209  30.086  59.211  1.00  0.00     0.033 A 
ENDBRANCH   5  35
TORSDOF 9
ENDMDL
MODEL 2
REMARK VINA RESULT:     -10.5      1.315      1.547
REMARK  9 active torsions:
REMARK  status: ('A' for Active; 'I' for Inactive)
REMARK    1  A    between atoms: C_7  and  O_8 
REMARK    2  A    between atoms: O_8  and  C_9 
REMARK    3  A    between atoms: C_10  and  N_11 
REMARK    4  A    between atoms: N_11  and  C_12 
REMARK    5  A    between atoms: C_14  and  C_15 
REMARK       I    between atoms: C_15  and  N_16 
REMARK    6  A    between atoms: N_16  and  C_17 
REMARK    7  A    between atoms: C_17  and  C_18 
REMARK    8  A    between atoms: C_18  and  N_19 
REMARK    9  A    between atoms: N_29  and  C_30 
ROOT
HETATM    1  C   UNL     1       6.732  26.268  55.966  1.00  0.00     0.122 C 
HETATM    2  C   UNL     1       7.171  27.240  55.148  1.00  0.00     0.119 C 
HETATM    3  C   UNL     1       7.857  28.447  55.750  1.00  0.00     0.293 C 
HETATM    4  O   UNL     1       8.343  29.258  54.956  1.00  0.00    -0.264 OA
HETATM    5  N   UNL     1       7.917  28.510  57.140  1.00  0.00    -0.195 N 
HETATM    6  N   UNL     1       7.674  27.416  57.941  1.00  0.00    -0.174 NA
HETATM    7  C   UNL     1       7.135  26.387  57.381  1.00  0.00     0.178 C 
ENDROOT
BRANCH   2   8
HETATM    8  N   UNL     1       7.027  27.295  53.752  1.00  0.00    -0.253 NA
HETATM    9  H   UNL     1       7.258  26.365  53.375  1.00  0.00     0.134 HD
BRANCH   8  10
HETATM   10  C   UNL     1       5.858  27.751  53.084  1.00  0.00     0.014 A 
HETATM   11  C   UNL     1       5.708  27.435  51.726  1.00  0.00     0.040 A 
HETATM   12  C   UNL     1       4.577  27.856  51.017  1.00  0.00     0.033 A 
HETATM   13  C   UNL     1       3.565  28.574  51.663  1.00  0.00     0.017 A 
HETATM   14  C   UNL     1       3.699  28.879  53.014  1.00  0.00     0.003 A 
HETATM   15  C   UNL     1       4.839  28.477  53.716  1.00  0.00     0.024 A 
BRANCH  12  16
HETATM   16  C   UNL     1       4.464  27.513  49.579  1.00  0.00     0.251 C 
HETATM   17  N   UNL     1       3.719  26.391  49.273  1.00  0.00    -0.355 N 
HETATM   18  H   UNL     1       3.164  26.020  50.041  1.00  0.00     0.162 HD
HETATM   19  O   UNL     1       5.032  28.173  48.718  1.00  0.00    -0.268 OA
BRANCH  17  20
HETATM   20  C   UNL     1       3.161  26.163  47.941  1.00  0.00     0.150 C 
BRANCH  20  21
HETATM   21  C   UNL     1       1.676  26.520  47.712  1.00  0.00     0.253 C 
BRANCH  21  22
HETATM   22  N   UNL     1       1.485  27.504  46.577  1.00  0.00    -0.077 N 
HETATM   23  H   UNL     1       2.094  27.133  45.827  1.00  0.00     0.279 HD
HETATM   24  C   UNL     1       0.084  27.590  46.067  1.00  0.00     0.269 C 
HETATM   25  C   UNL     1       2.054  28.852  46.907  1.00  0.00     0.269 C 
ENDBRANCH  21  22
ENDBRANCH  20  21
ENDBRANCH  17  20
ENDBRANCH  12  16
ENDBRANCH   8  10
ENDBRANCH   2   8
BRANCH   1  26
HETATM   26  O   UNL     1       6.043  25.163  55.472  1.00  0.00    -0.307 OA
BRANCH  26  27
HETATM   27  C   UNL     1       6.745  24.086  54.993  1.00  0.00     0.076 A 
HETATM   28  C   UNL     1       6.813  23.938  53.611  1.00  0.00     0.039 A 
HETATM   29  C   UNL     1       7.521  22.868  53.064  1.00  0.00     0.027 A 
HETATM   30  C   UNL     1       8.151  21.941  53.899  1.00  0.00     0.040 A 
HETATM   31  C   UNL     1       8.057  22.057  55.296  1.00  0.00    -0.038 A 
HETATM   32 CL   UNL     1       9.042  20.663  53.155  1.00  0.00    -0.084 Cl
HETATM   33  C   UNL     1       8.743  21.089  56.220  1.00  0.00     0.050 C 
HETATM   34  C   UNL     1       7.333  23.135  55.836  1.00  0.00     0.045 A 
ENDBRANCH  26  27
ENDBRANCH   1  26
BRANCH   5  35
HETATM   35  C   UNL     1       8.467  29.634  57.838  1.00  0.00     0.084 A 
HETATM   36  C   UNL     1       9.837  29.961  57.839  1.00  0.00     0.063 A 
HETATM   37 CL   UNL     1      10.993  29.230  56.771  1.00  0.00    -0.082 Cl
HETATM   38  C   UNL     1      10.310  31.043  58.598  1.00  0.00     0.026 A 
HETATM   39  C   UNL     1       9.428  31.832  59.335  1.00  0.00     0.002 A 
HETATM   40  C   UNL     1       8.067  31.560  59.298  1.00  0.00     0.002 A 
HETATM   41  C   UNL     1       7.591  30.479  58.551  1.00  0.00     0.033 A 
ENDBRANCH   5  35
TORSDOF 9
ENDMDL
MODEL 3
REMARK VINA RESULT:     -10.4      3.495      9.708
REMARK  9 active torsions:
REMARK  status: ('A' for Active; 'I' for Inactive)
REMARK    1  A    between atoms: C_7  and  O_8 
REMARK    2  A    between atoms: O_8  and  C_9 
REMARK    3  A    between atoms: C_10  and  N_11 
REMARK    4  A    between atoms: N_11  and  C_12 
REMARK    5  A    between atoms: C_14  and  C_15 
REMARK       I    between atoms: C_15  and  N_16 
REMARK    6  A    between atoms: N_16  and  C_17 
REMARK    7  A    between atoms: C_17  and  C_18 
REMARK    8  A    between atoms: C_18  and  N_19 
REMARK    9  A    between atoms: N_29  and  C_30 
ROOT
HETATM    1  C   UNL     1       5.718  26.812  56.492  1.00  0.00     0.122 C 
HETATM    2  C   UNL     1       6.940  26.460  56.925  1.00  0.00     0.119 C 
HETATM    3  C   UNL     1       7.612  25.250  56.313  1.00  0.00     0.293 C 
HETATM    4  O   UNL     1       8.776  25.031  56.660  1.00  0.00    -0.264 OA
HETATM    5  N   UNL     1       6.874  24.522  55.383  1.00  0.00    -0.195 N 
HETATM    6  N   UNL     1       5.735  25.021  54.789  1.00  0.00    -0.174 NA
HETATM    7  C   UNL     1       5.219  26.083  55.308  1.00  0.00     0.178 C 
ENDROOT
BRANCH   2   8
HETATM    8  N   UNL     1       7.682  27.076  57.947  1.00  0.00    -0.253 NA
HETATM    9  H   UNL     1       8.333  26.375  58.328  1.00  0.00     0.134 HD
BRANCH   8  10
HETATM   10  C   UNL     1       8.400  28.293  57.793  1.00  0.00     0.014 A 
HETATM   11  C   UNL     1       8.056  29.372  58.620  1.00  0.00     0.040 A 
HETATM   12  C   UNL     1       8.729  30.594  58.514  1.00  0.00     0.033 A 
HETATM   13  C   UNL     1       9.777  30.747  57.600  1.00  0.00     0.017 A 
HETATM   14  C   UNL     1      10.135  29.677  56.786  1.00  0.00     0.003 A 
HETATM   15  C   UNL     1       9.447  28.463  56.877  1.00  0.00     0.024 A 
BRANCH  12  16
HETATM   16  C   UNL     1       8.324  31.714  59.397  1.00  0.00     0.251 C 
HETATM   17  N   UNL     1       7.081  31.608  59.991  1.00  0.00    -0.355 N 
HETATM   18  H   UNL     1       6.647  30.690  59.919  1.00  0.00     0.162 HD
HETATM   19  O   UNL     1       9.042  32.692  59.559  1.00  0.00    -0.268 OA
BRANCH  17  20
HETATM   20  C   UNL     1       6.717  32.372  61.183  1.00  0.00     0.150 C 
BRANCH  20  21
HETATM   21  C   UNL     1       6.740  31.639  62.542  1.00  0.00     0.253 C 
BRANCH  21  22
HETATM   22  N   UNL     1       6.366  32.547  63.695  1.00  0.00    -0.077 N 
HETATM   23  H   UNL     1       5.945  31.903  64.386  1.00  0.00     0.279 HD
HETATM   24  C   UNL     1       7.524  33.247  64.327  1.00  0.00     0.269 C 
HETATM   25  C   UNL     1       5.263  33.493  63.324  1.00  0.00     0.269 C 
ENDBRANCH  21  22
ENDBRANCH  20  21
ENDBRANCH  17  20
ENDBRANCH  12  16
ENDBRANCH   8  10
ENDBRANCH   2   8
BRANCH   1  26
HETATM   26  O   UNL     1       5.030  27.881  57.059  1.00  0.00    -0.307 OA
BRANCH  26  27
HETATM   27  C   UNL     1       4.860  29.037  56.339  1.00  0.00     0.076 A 
HETATM   28  C   UNL     1       5.314  30.218  56.922  1.00  0.00     0.039 A 
HETATM   29  C   UNL     1       5.180  31.424  56.235  1.00  0.00     0.027 A 
HETATM   30  C   UNL     1       4.583  31.450  54.971  1.00  0.00     0.040 A 
HETATM   31  C   UNL     1       4.087  30.272  54.389  1.00  0.00    -0.038 A 
HETATM   32 CL   UNL     1       4.484  32.972  54.161  1.00  0.00    -0.084 Cl
HETATM   33  C   UNL     1       3.461  30.266  53.022  1.00  0.00     0.050 C 
HETATM   34  C   UNL     1       4.219  29.064  55.096  1.00  0.00     0.045 A 
ENDBRANCH  26  27
ENDBRANCH   1  26
BRANCH   5  35
HETATM   35  C   UNL     1       7.361  23.313  54.788  1.00  0.00     0.084 A 
HETATM   36  C   UNL     1       7.771  23.211  53.444  1.00  0.00     0.063 A 
HETATM   37 CL   UNL     1       8.017  24.586  52.415  1.00  0.00    -0.082 Cl
HETATM   38  C   UNL     1       8.178  21.976  52.916  1.00  0.00     0.026 A 
HETATM   39  C   UNL     1       8.216  20.838  53.721  1.00  0.00     0.002 A 
HETATM   40  C   UNL     1       7.871  20.933  55.063  1.00  0.00     0.002 A 
HETATM   41  C   UNL     1       7.457  22.158  55.592  1.00  0.00     0.033 A 
ENDBRANCH   5  35
TORSDOF 9
ENDMDL
MODEL 4
REMARK VINA RESULT:     -10.4      1.500      1.939
REMARK  9 active torsions:
REMARK  status: ('A' for Active; 'I' for Inactive)
REMARK    1  A    between atoms: C_7  and  O_8 
REMARK    2  A    between atoms: O_8  and  C_9 
REMARK    3  A    between atoms: C_10  and  N_11 
REMARK    4  A    between atoms: N_11  and  C_12 
REMARK    5  A    between atoms: C_14  and  C_15 
REMARK       I    between atoms: C_15  and  N_16 
REMARK    6  A    between atoms: N_16  and  C_17 
REMARK    7  A    between atoms: C_17  and  C_18 
REMARK    8  A    between atoms: C_18  and  N_19 
REMARK    9  A    between atoms: N_29  and  C_30 
ROOT
HETATM    1  C   UNL     1       6.730  25.740  56.270  1.00  0.00     0.122 C 
HETATM    2  C   UNL     1       6.220  26.898  55.820  1.00  0.00     0.119 C 
HETATM    3  C   UNL     1       6.875  28.196  56.236  1.00  0.00     0.293 C 
HETATM    4  O   UNL     1       6.444  29.226  55.710  1.00  0.00    -0.264 OA
HETATM    5  N   UNL     1       7.933  28.108  57.140  1.00  0.00    -0.195 N 
HETATM    6  N   UNL     1       8.581  26.922  57.404  1.00  0.00    -0.174 NA
HETATM    7  C   UNL     1       8.016  25.839  56.989  1.00  0.00     0.178 C 
ENDROOT
BRANCH   2   8
HETATM    8  N   UNL     1       5.082  27.060  55.012  1.00  0.00    -0.253 NA
HETATM    9  H   UNL     1       4.698  27.998  55.195  1.00  0.00     0.134 HD
BRANCH   8  10
HETATM   10  C   UNL     1       5.062  26.854  53.606  1.00  0.00     0.014 A 
HETATM   11  C   UNL     1       5.285  27.961  52.774  1.00  0.00     0.040 A 
HETATM   12  C   UNL     1       5.277  27.818  51.381  1.00  0.00     0.033 A 
HETATM   13  C   UNL     1       5.077  26.562  50.801  1.00  0.00     0.017 A 
HETATM   14  C   UNL     1       4.871  25.455  51.619  1.00  0.00     0.003 A 
HETATM   15  C   UNL     1       4.856  25.603  53.009  1.00  0.00     0.024 A 
BRANCH  12  16
HETATM   16  C   UNL     1       5.502  29.016  50.537  1.00  0.00     0.251 C 
HETATM   17  N   UNL     1       5.127  28.912  49.211  1.00  0.00    -0.355 N 
HETATM   18  H   UNL     1       4.560  28.097  48.988  1.00  0.00     0.162 HD
HETATM   19  O   UNL     1       6.025  30.027  50.989  1.00  0.00    -0.268 OA
BRANCH  17  20
HETATM   20  C   UNL     1       4.880  30.086  48.375  1.00  0.00     0.150 C 
BRANCH  20  21
HETATM   21  C   UNL     1       4.296  29.854  46.964  1.00  0.00     0.253 C 
BRANCH  21  22
HETATM   22  N   UNL     1       2.782  29.824  46.963  1.00  0.00    -0.077 N 
HETATM   23  H   UNL     1       2.531  30.228  46.044  1.00  0.00     0.279 HD
HETATM   24  C   UNL     1       2.195  28.454  47.068  1.00  0.00     0.269 C 
HETATM   25  C   UNL     1       2.205  30.769  47.974  1.00  0.00     0.269 C 
ENDBRANCH  21  22
ENDBRANCH  20  21
ENDBRANCH  17  20
ENDBRANCH  12  16
ENDBRANCH   8  10
ENDBRANCH   2   8
BRANCH   1  26
HETATM   26  O   UNL     1       6.134  24.519  55.965  1.00  0.00    -0.307 OA
BRANCH  26  27
HETATM   27  C   UNL     1       6.867  23.544  55.338  1.00  0.00     0.076 A 
HETATM   28  C   UNL     1       7.050  23.674  53.964  1.00  0.00     0.039 A 
HETATM   29  C   UNL     1       7.795  22.720  53.272  1.00  0.00     0.027 A 
HETATM   30  C   UNL     1       8.349  21.631  53.952  1.00  0.00     0.040 A 
HETATM   31  C   UNL     1       8.139  21.468  55.332  1.00  0.00    -0.038 A 
HETATM   32 CL   UNL     1       9.291  20.509  53.040  1.00  0.00    -0.084 Cl
HETATM   33  C   UNL     1       8.741  20.320  56.094  1.00  0.00     0.050 C 
HETATM   34  C   UNL     1       7.378  22.431  56.017  1.00  0.00     0.045 A 
ENDBRANCH  26  27
ENDBRANCH   1  26
BRANCH   5  35
HETATM   35  C   UNL     1       8.588  29.264  57.675  1.00  0.00     0.084 A 
HETATM   36  C   UNL     1       9.677  29.906  57.053  1.00  0.00     0.063 A 
HETATM   37 CL   UNL     1      10.181  29.568  55.428  1.00  0.00    -0.082 Cl
HETATM   38  C   UNL     1      10.307  30.997  57.671  1.00  0.00     0.026 A 
HETATM   39  C   UNL     1       9.845  31.486  58.893  1.00  0.00     0.002 A 
HETATM   40  C   UNL     1       8.736  30.902  59.491  1.00  0.00     0.002 A 
HETATM   41  C   UNL     1       8.109  29.810  58.885  1.00  0.00     0.033 A 
ENDBRANCH   5  35
TORSDOF 9
ENDMDL
MODEL 5
REMARK VINA RESULT:     -10.3      2.845      8.783
REMARK  9 active torsions:
REMARK  status: ('A' for Active; 'I' for Inactive)
REMARK    1  A    between atoms: C_7  and  O_8 
REMARK    2  A    between atoms: O_8  and  C_9 
REMARK    3  A    between atoms: C_10  and  N_11 
REMARK    4  A    between atoms: N_11  and  C_12 
REMARK    5  A    between atoms: C_14  and  C_15 
REMARK       I    between atoms: C_15  and  N_16 
REMARK    6  A    between atoms: N_16  and  C_17 
REMARK    7  A    between atoms: C_17  and  C_18 
REMARK    8  A    between atoms: C_18  and  N_19 
REMARK    9  A    between atoms: N_29  and  C_30 
ROOT
HETATM    1  C   UNL     1       6.537  26.766  53.009  1.00  0.00     0.122 C 
HETATM    2  C   UNL     1       5.935  26.190  54.063  1.00  0.00     0.119 C 
HETATM    3  C   UNL     1       6.417  24.834  54.528  1.00  0.00     0.293 C 
HETATM    4  O   UNL     1       5.912  24.395  55.566  1.00  0.00    -0.264 OA
HETATM    5  N   UNL     1       7.416  24.225  53.772  1.00  0.00    -0.195 N 
HETATM    6  N   UNL     1       8.170  24.918  52.850  1.00  0.00    -0.174 NA
HETATM    7  C   UNL     1       7.755  26.092  52.515  1.00  0.00     0.178 C 
ENDROOT
BRANCH   2   8
HETATM    8  N   UNL     1       4.842  26.694  54.787  1.00  0.00    -0.253 NA
HETATM    9  H   UNL     1       4.456  25.922  55.350  1.00  0.00     0.134 HD
BRANCH   8  10
HETATM   10  C   UNL     1       4.893  27.847  55.616  1.00  0.00     0.014 A 
HETATM   11  C   UNL     1       6.061  28.075  56.358  1.00  0.00     0.040 A 
HETATM   12  C   UNL     1       6.169  29.196  57.191  1.00  0.00     0.033 A 
HETATM   13  C   UNL     1       5.123  30.120  57.271  1.00  0.00     0.017 A 
HETATM   14  C   UNL     1       3.966  29.910  56.526  1.00  0.00     0.003 A 
HETATM   15  C   UNL     1       3.851  28.779  55.712  1.00  0.00     0.024 A 
BRANCH  12  16
HETATM   16  C   UNL     1       7.415  29.391  57.969  1.00  0.00     0.251 C 
HETATM   17  N   UNL     1       7.863  30.693  58.093  1.00  0.00    -0.355 N 
HETATM   18  H   UNL     1       7.197  31.406  57.805  1.00  0.00     0.162 HD
HETATM   19  O   UNL     1       8.028  28.443  58.444  1.00  0.00    -0.268 OA
BRANCH  17  20
HETATM   20  C   UNL     1       8.791  31.102  59.147  1.00  0.00     0.150 C 
BRANCH  20  21
HETATM   21  C   UNL     1       8.207  31.836  60.374  1.00  0.00     0.253 C 
BRANCH  21  22
HETATM   22  N   UNL     1       7.856  30.888  61.502  1.00  0.00    -0.077 N 
HETATM   23  H   UNL     1       7.303  30.148  61.036  1.00  0.00     0.279 HD
HETATM   24  C   UNL     1       9.038  30.263  62.169  1.00  0.00     0.269 C 
HETATM   25  C   UNL     1       6.914  31.516  62.485  1.00  0.00     0.269 C 
ENDBRANCH  21  22
ENDBRANCH  20  21
ENDBRANCH  17  20
ENDBRANCH  12  16
ENDBRANCH   8  10
ENDBRANCH   2   8
BRANCH   1  26
HETATM   26  O   UNL     1       6.098  27.987  52.502  1.00  0.00    -0.307 OA
BRANCH  26  27
HETATM   27  C   UNL     1       5.132  28.008  51.528  1.00  0.00     0.076 A 
HETATM   28  C   UNL     1       4.043  28.850  51.735  1.00  0.00     0.039 A 
HETATM   29  C   UNL     1       3.034  28.924  50.775  1.00  0.00     0.027 A 
HETATM   30  C   UNL     1       3.110  28.149  49.614  1.00  0.00     0.040 A 
HETATM   31  C   UNL     1       4.185  27.267  49.412  1.00  0.00    -0.038 A 
HETATM   32 CL   UNL     1       1.845  28.318  48.451  1.00  0.00    -0.084 Cl
HETATM   33  C   UNL     1       4.305  26.438  48.163  1.00  0.00     0.050 C 
HETATM   34  C   UNL     1       5.191  27.194  50.391  1.00  0.00     0.045 A 
ENDBRANCH  26  27
ENDBRANCH   1  26
BRANCH   5  35
HETATM   35  C   UNL     1       7.905  22.909  54.057  1.00  0.00     0.084 A 
HETATM   36  C   UNL     1       8.733  22.602  55.153  1.00  0.00     0.063 A 
HETATM   37 CL   UNL     1       9.032  23.703  56.461  1.00  0.00    -0.082 Cl
HETATM   38  C   UNL     1       9.224  21.299  55.331  1.00  0.00     0.026 A 
HETATM   39  C   UNL     1       8.873  20.281  54.446  1.00  0.00     0.002 A 
HETATM   40  C   UNL     1       8.009  20.553  53.393  1.00  0.00     0.002 A 
HETATM   41  C   UNL     1       7.524  21.850  53.206  1.00  0.00     0.033 A 
ENDBRANCH   5  35
TORSDOF 9
ENDMDL
MODEL 6
REMARK VINA RESULT:     -10.2      2.779      8.722
REMARK  9 active torsions:
REMARK  status: ('A' for Active; 'I' for Inactive)
REMARK    1  A    between atoms: C_7  and  O_8 
REMARK    2  A    between atoms: O_8  and  C_9 
REMARK    3  A    between atoms: C_10  and  N_11 
REMARK    4  A    between atoms: N_11  and  C_12 
REMARK    5  A    between atoms: C_14  and  C_15 
REMARK       I    between atoms: C_15  and  N_16 
REMARK    6  A    between atoms: N_16  and  C_17 
REMARK    7  A    between atoms: C_17  and  C_18 
REMARK    8  A    between atoms: C_18  and  N_19 
REMARK    9  A    between atoms: N_29  and  C_30 
ROOT
HETATM    1  C   UNL     1       7.032  26.266  52.367  1.00  0.00     0.122 C 
HETATM    2  C   UNL     1       6.767  27.536  52.717  1.00  0.00     0.119 C 
HETATM    3  C   UNL     1       5.582  28.235  52.088  1.00  0.00     0.293 C 
HETATM    4  O   UNL     1       5.309  29.358  52.522  1.00  0.00    -0.264 OA
HETATM    5  N   UNL     1       4.881  27.533  51.110  1.00  0.00    -0.195 N 
HETATM    6  N   UNL     1       5.021  26.174  50.934  1.00  0.00    -0.174 NA
HETATM    7  C   UNL     1       6.014  25.604  51.527  1.00  0.00     0.178 C 
ENDROOT
BRANCH   2   8
HETATM    8  N   UNL     1       7.508  28.339  53.599  1.00  0.00    -0.253 NA
HETATM    9  H   UNL     1       7.417  29.316  53.286  1.00  0.00     0.134 HD
BRANCH   8  10
HETATM   10  C   UNL     1       7.360  28.325  55.013  1.00  0.00     0.014 A 
HETATM   11  C   UNL     1       8.241  29.104  55.777  1.00  0.00     0.040 A 
HETATM   12  C   UNL     1       8.142  29.129  57.173  1.00  0.00     0.033 A 
HETATM   13  C   UNL     1       7.143  28.400  57.824  1.00  0.00     0.017 A 
HETATM   14  C   UNL     1       6.255  27.636  57.073  1.00  0.00     0.003 A 
HETATM   15  C   UNL     1       6.368  27.594  55.680  1.00  0.00     0.024 A 
BRANCH  12  16
HETATM   16  C   UNL     1       9.103  29.955  57.944  1.00  0.00     0.251 C 
HETATM   17  N   UNL     1       8.558  30.839  58.855  1.00  0.00    -0.355 N 
HETATM   18  H   UNL     1       7.568  30.703  59.047  1.00  0.00     0.162 HD
HETATM   19  O   UNL     1      10.310  29.877  57.753  1.00  0.00    -0.268 OA
BRANCH  17  20
HETATM   20  C   UNL     1       9.333  31.393  59.965  1.00  0.00     0.150 C 
BRANCH  20  21
HETATM   21  C   UNL     1       8.782  31.200  61.394  1.00  0.00     0.253 C 
BRANCH  21  22
HETATM   22  N   UNL     1       8.000  32.403  61.881  1.00  0.00    -0.077 N 
HETATM   23  H   UNL     1       8.543  33.207  61.524  1.00  0.00     0.279 HD
HETATM   24  C   UNL     1       6.605  32.484  61.352  1.00  0.00     0.269 C 
HETATM   25  C   UNL     1       8.051  32.533  63.374  1.00  0.00     0.269 C 
ENDBRANCH  21  22
ENDBRANCH  20  21
ENDBRANCH  17  20
ENDBRANCH  12  16
ENDBRANCH   8  10
ENDBRANCH   2   8
BRANCH   1  26
HETATM   26  O   UNL     1       8.142  25.594  52.871  1.00  0.00    -0.307 OA
BRANCH  26  27
HETATM   27  C   UNL     1       7.973  24.394  53.516  1.00  0.00     0.076 A 
HETATM   28  C   UNL     1       7.662  24.443  54.872  1.00  0.00     0.039 A 
HETATM   29  C   UNL     1       7.468  23.258  55.580  1.00  0.00     0.027 A 
HETATM   30  C   UNL     1       7.594  22.024  54.934  1.00  0.00     0.040 A 
HETATM   31  C   UNL     1       7.946  21.961  53.576  1.00  0.00    -0.038 A 
HETATM   32 CL   UNL     1       7.303  20.598  55.863  1.00  0.00    -0.084 Cl
HETATM   33  C   UNL     1       8.067  20.650  52.849  1.00  0.00     0.050 C 
HETATM   34  C   UNL     1       8.149  23.163  52.875  1.00  0.00     0.045 A 
ENDBRANCH  26  27
ENDBRANCH   1  26
BRANCH   5  35
HETATM   35  C   UNL     1       3.790  28.107  50.380  1.00  0.00     0.084 A 
HETATM   36  C   UNL     1       3.768  28.238  48.978  1.00  0.00     0.063 A 
HETATM   37 CL   UNL     1       4.914  27.464  47.930  1.00  0.00    -0.082 Cl
HETATM   38  C   UNL     1       2.689  28.869  48.339  1.00  0.00     0.026 A 
HETATM   39  C   UNL     1       1.607  29.346  49.077  1.00  0.00     0.002 A 
HETATM   40  C   UNL     1       1.586  29.172  50.455  1.00  0.00     0.002 A 
HETATM   41  C   UNL     1       2.660  28.552  51.098  1.00  0.00     0.033 A 
ENDBRANCH   5  35
TORSDOF 9
ENDMDL
MODEL 7
REMARK VINA RESULT:     -10.0      1.760      6.057
REMARK  9 active torsions:
REMARK  status: ('A' for Active; 'I' for Inactive)
REMARK    1  A    between atoms: C_7  and  O_8 
REMARK    2  A    between atoms: O_8  and  C_9 
REMARK    3  A    between atoms: C_10  and  N_11 
REMARK    4  A    between atoms: N_11  and  C_12 
REMARK    5  A    between atoms: C_14  and  C_15 
REMARK       I    between atoms: C_15  and  N_16 
REMARK    6  A    between atoms: N_16  and  C_17 
REMARK    7  A    between atoms: C_17  and  C_18 
REMARK    8  A    between atoms: C_18  and  N_19 
REMARK    9  A    between atoms: N_29  and  C_30 
ROOT
HETATM    1  C   UNL     1       6.296  27.484  55.874  1.00  0.00     0.122 C 
HETATM    2  C   UNL     1       5.447  26.878  55.026  1.00  0.00     0.119 C 
HETATM    3  C   UNL     1       5.740  25.461  54.586  1.00  0.00     0.293 C 
HETATM    4  O   UNL     1       4.877  24.906  53.899  1.00  0.00    -0.264 OA
HETATM    5  N   UNL     1       6.934  24.896  55.032  1.00  0.00    -0.195 N 
HETATM    6  N   UNL     1       7.664  25.435  56.067  1.00  0.00    -0.174 NA
HETATM    7  C   UNL     1       7.352  26.626  56.449  1.00  0.00     0.178 C 
ENDROOT
BRANCH   2   8
HETATM    8  N   UNL     1       4.298  27.437  54.443  1.00  0.00    -0.253 NA
HETATM    9  H   UNL     1       3.653  27.696  55.203  1.00  0.00     0.134 HD
BRANCH   8  10
HETATM   10  C   UNL     1       4.314  28.509  53.509  1.00  0.00     0.014 A 
HETATM   11  C   UNL     1       4.749  28.240  52.203  1.00  0.00     0.040 A 
HETATM   12  C   UNL     1       4.786  29.257  51.241  1.00  0.00     0.033 A 
HETATM   13  C   UNL     1       4.360  30.549  51.562  1.00  0.00     0.017 A 
HETATM   14  C   UNL     1       3.912  30.821  52.852  1.00  0.00     0.003 A 
HETATM   15  C   UNL     1       3.897  29.811  53.818  1.00  0.00     0.024 A 
BRANCH  12  16
HETATM   16  C   UNL     1       5.266  28.933  49.876  1.00  0.00     0.251 C 
HETATM   17  N   UNL     1       5.105  27.625  49.463  1.00  0.00    -0.355 N 
HETATM   18  H   UNL     1       4.503  27.058  50.056  1.00  0.00     0.162 HD
HETATM   19  O   UNL     1       5.807  29.777  49.173  1.00  0.00    -0.268 OA
BRANCH  17  20
HETATM   20  C   UNL     1       5.119  27.244  48.052  1.00  0.00     0.150 C 
BRANCH  20  21
HETATM   21  C   UNL     1       3.780  27.282  47.283  1.00  0.00     0.253 C 
BRANCH  21  22
HETATM   22  N   UNL     1       2.695  26.479  47.971  1.00  0.00    -0.077 N 
HETATM   23  H   UNL     1       2.853  26.666  48.975  1.00  0.00     0.279 HD
HETATM   24  C   UNL     1       1.305  26.892  47.612  1.00  0.00     0.269 C 
HETATM   25  C   UNL     1       2.909  25.003  47.812  1.00  0.00     0.269 C 
ENDBRANCH  21  22
ENDBRANCH  20  21
ENDBRANCH  17  20
ENDBRANCH  12  16
ENDBRANCH   8  10
ENDBRANCH   2   8
BRANCH   1  26
HETATM   26  O   UNL     1       6.105  28.806  56.267  1.00  0.00    -0.307 OA
BRANCH  26  27
HETATM   27  C   UNL     1       7.097  29.458  56.955  1.00  0.00     0.076 A 
HETATM   28  C   UNL     1       6.702  30.292  57.997  1.00  0.00     0.039 A 
HETATM   29  C   UNL     1       7.665  30.974  58.741  1.00  0.00     0.027 A 
HETATM   30  C   UNL     1       9.021  30.830  58.435  1.00  0.00     0.040 A 
HETATM   31  C   UNL     1       9.431  30.022  57.361  1.00  0.00    -0.038 A 
HETATM   32 CL   UNL     1      10.161  31.674  59.420  1.00  0.00    -0.084 Cl
HETATM   33  C   UNL     1      10.883  29.830  57.022  1.00  0.00     0.050 C 
HETATM   34  C   UNL     1       8.450  29.347  56.613  1.00  0.00     0.045 A 
ENDBRANCH  26  27
ENDBRANCH   1  26
BRANCH   5  35
HETATM   35  C   UNL     1       7.369  23.593  54.625  1.00  0.00     0.084 A 
HETATM   36  C   UNL     1       7.743  23.268  53.306  1.00  0.00     0.063 A 
HETATM   37 CL   UNL     1       8.005  24.456  52.069  1.00  0.00    -0.082 Cl
HETATM   38  C   UNL     1       8.099  21.953  52.971  1.00  0.00     0.026 A 
HETATM   39  C   UNL     1       8.123  20.954  53.944  1.00  0.00     0.002 A 
HETATM   40  C   UNL     1       7.815  21.270  55.261  1.00  0.00     0.002 A 
HETATM   41  C   UNL     1       7.452  22.576  55.599  1.00  0.00     0.033 A 
ENDBRANCH   5  35
TORSDOF 9
ENDMDL
MODEL 8
REMARK VINA RESULT:      -9.9      2.325      8.376
REMARK  9 active torsions:
REMARK  status: ('A' for Active; 'I' for Inactive)
REMARK    1  A    between atoms: C_7  and  O_8 
REMARK    2  A    between atoms: O_8  and  C_9 
REMARK    3  A    between atoms: C_10  and  N_11 
REMARK    4  A    between atoms: N_11  and  C_12 
REMARK    5  A    between atoms: C_14  and  C_15 
REMARK       I    between atoms: C_15  and  N_16 
REMARK    6  A    between atoms: N_16  and  C_17 
REMARK    7  A    between atoms: C_17  and  C_18 
REMARK    8  A    between atoms: C_18  and  N_19 
REMARK    9  A    between atoms: N_29  and  C_30 
ROOT
HETATM    1  C   UNL     1       6.826  25.776  53.629  1.00  0.00     0.122 C 
HETATM    2  C   UNL     1       5.612  26.300  53.868  1.00  0.00     0.119 C 
HETATM    3  C   UNL     1       4.782  26.786  52.700  1.00  0.00     0.293 C 
HETATM    4  O   UNL     1       3.631  27.154  52.956  1.00  0.00    -0.264 OA
HETATM    5  N   UNL     1       5.373  26.731  51.440  1.00  0.00    -0.195 N 
HETATM    6  N   UNL     1       6.506  25.990  51.187  1.00  0.00    -0.174 NA
HETATM    7  C   UNL     1       7.160  25.550  52.208  1.00  0.00     0.178 C 
ENDROOT
BRANCH   2   8
HETATM    8  N   UNL     1       5.013  26.500  55.123  1.00  0.00    -0.253 NA
HETATM    9  H   UNL     1       5.293  25.718  55.732  1.00  0.00     0.134 HD
BRANCH   8  10
HETATM   10  C   UNL     1       5.124  27.697  55.882  1.00  0.00     0.014 A 
HETATM   11  C   UNL     1       6.313  27.921  56.591  1.00  0.00     0.040 A 
HETATM   12  C   UNL     1       6.479  29.082  57.355  1.00  0.00     0.033 A 
HETATM   13  C   UNL     1       5.471  30.050  57.398  1.00  0.00     0.017 A 
HETATM   14  C   UNL     1       4.294  29.843  56.685  1.00  0.00     0.003 A 
HETATM   15  C   UNL     1       4.120  28.673  55.940  1.00  0.00     0.024 A 
BRANCH  12  16
HETATM   16  C   UNL     1       7.746  29.273  58.101  1.00  0.00     0.251 C 
HETATM   17  N   UNL     1       7.828  30.404  58.892  1.00  0.00    -0.355 N 
HETATM   18  H   UNL     1       6.947  30.892  59.036  1.00  0.00     0.162 HD
HETATM   19  O   UNL     1       8.678  28.487  57.990  1.00  0.00    -0.268 OA
BRANCH  17  20
HETATM   20  C   UNL     1       8.787  30.522  59.989  1.00  0.00     0.150 C 
BRANCH  20  21
HETATM   21  C   UNL     1       9.122  31.939  60.502  1.00  0.00     0.253 C 
BRANCH  21  22
HETATM   22  N   UNL     1       8.393  32.277  61.786  1.00  0.00    -0.077 N 
HETATM   23  H   UNL     1       9.065  32.871  62.300  1.00  0.00     0.279 HD
HETATM   24  C   UNL     1       7.123  33.040  61.589  1.00  0.00     0.269 C 
HETATM   25  C   UNL     1       8.201  31.068  62.652  1.00  0.00     0.269 C 
ENDBRANCH  21  22
ENDBRANCH  20  21
ENDBRANCH  17  20
ENDBRANCH  12  16
ENDBRANCH   8  10
ENDBRANCH   2   8
BRANCH   1  26
HETATM   26  O   UNL     1       7.655  25.366  54.669  1.00  0.00    -0.307 OA
BRANCH  26  27
HETATM   27  C   UNL     1       7.837  24.027  54.904  1.00  0.00     0.076 A 
HETATM   28  C   UNL     1       8.022  23.636  56.228  1.00  0.00     0.039 A 
HETATM   29  C   UNL     1       8.201  22.287  56.532  1.00  0.00     0.027 A 
HETATM   30  C   UNL     1       8.204  21.331  55.512  1.00  0.00     0.040 A 
HETATM   31  C   UNL     1       8.057  21.717  54.169  1.00  0.00    -0.038 A 
HETATM   32 CL   UNL     1       8.393  19.675  55.963  1.00  0.00    -0.084 Cl
HETATM   33  C   UNL     1       8.035  20.709  53.053  1.00  0.00     0.050 C 
HETATM   34  C   UNL     1       7.888  23.081  53.874  1.00  0.00     0.045 A 
ENDBRANCH  26  27
ENDBRANCH   1  26
BRANCH   5  35
HETATM   35  C   UNL     1       4.728  27.232  50.263  1.00  0.00     0.084 A 
HETATM   36  C   UNL     1       4.588  28.602  49.969  1.00  0.00     0.063 A 
HETATM   37 CL   UNL     1       5.425  29.853  50.832  1.00  0.00    -0.082 Cl
HETATM   38  C   UNL     1       3.887  29.017  48.825  1.00  0.00     0.026 A 
HETATM   39  C   UNL     1       3.349  28.080  47.944  1.00  0.00     0.002 A 
HETATM   40  C   UNL     1       3.528  26.725  48.188  1.00  0.00     0.002 A 
HETATM   41  C   UNL     1       4.218  26.306  49.329  1.00  0.00     0.033 A 
ENDBRANCH   5  35
TORSDOF 9
ENDMDL
MODEL 9
REMARK VINA RESULT:      -9.8      2.586      6.807
REMARK  9 active torsions:
REMARK  status: ('A' for Active; 'I' for Inactive)
REMARK    1  A    between atoms: C_7  and  O_8 
REMARK    2  A    between atoms: O_8  and  C_9 
REMARK    3  A    between atoms: C_10  and  N_11 
REMARK    4  A    between atoms: N_11  and  C_12 
REMARK    5  A    between atoms: C_14  and  C_15 
REMARK       I    between atoms: C_15  and  N_16 
REMARK    6  A    between atoms: N_16  and  C_17 
REMARK    7  A    between atoms: C_17  and  C_18 
REMARK    8  A    between atoms: C_18  and  N_19 
REMARK    9  A    between atoms: N_29  and  C_30 
ROOT
HETATM    1  C   UNL     1       7.379  29.353  57.482  1.00  0.00     0.122 C 
HETATM    2  C   UNL     1       6.229  28.659  57.428  1.00  0.00     0.119 C 
HETATM    3  C   UNL     1       6.274  27.202  57.022  1.00  0.00     0.293 C 
HETATM    4  O   UNL     1       5.212  26.576  57.096  1.00  0.00    -0.264 OA
HETATM    5  N   UNL     1       7.514  26.689  56.647  1.00  0.00    -0.195 N 
HETATM    6  N   UNL     1       8.696  27.338  56.926  1.00  0.00    -0.174 NA
HETATM    7  C   UNL     1       8.616  28.564  57.318  1.00  0.00     0.178 C 
ENDROOT
BRANCH   2   8
HETATM    8  N   UNL     1       4.936  29.151  57.670  1.00  0.00    -0.253 NA
HETATM    9  H   UNL     1       4.935  29.584  58.605  1.00  0.00     0.134 HD
BRANCH   8  10
HETATM   10  C   UNL     1       4.232  30.020  56.793  1.00  0.00     0.014 A 
HETATM   11  C   UNL     1       4.293  29.758  55.416  1.00  0.00     0.040 A 
HETATM   12  C   UNL     1       3.619  30.580  54.505  1.00  0.00     0.033 A 
HETATM   13  C   UNL     1       2.851  31.657  54.958  1.00  0.00     0.017 A 
HETATM   14  C   UNL     1       2.772  31.914  56.323  1.00  0.00     0.003 A 
HETATM   15  C   UNL     1       3.464  31.107  57.231  1.00  0.00     0.024 A 
BRANCH  12  16
HETATM   16  C   UNL     1       3.721  30.277  53.057  1.00  0.00     0.251 C 
HETATM   17  N   UNL     1       3.064  29.143  52.620  1.00  0.00    -0.355 N 
HETATM   18  H   UNL     1       2.419  28.734  53.292  1.00  0.00     0.162 HD
HETATM   19  O   UNL     1       4.383  30.978  52.302  1.00  0.00    -0.268 OA
BRANCH  17  20
HETATM   20  C   UNL     1       2.707  28.939  51.216  1.00  0.00     0.150 C 
BRANCH  20  21
HETATM   21  C   UNL     1       3.825  28.503  50.245  1.00  0.00     0.253 C 
BRANCH  21  22
HETATM   22  N   UNL     1       3.840  27.006  50.014  1.00  0.00    -0.077 N 
HETATM   23  H   UNL     1       3.059  26.662  50.597  1.00  0.00     0.279 HD
HETATM   24  C   UNL     1       3.604  26.602  48.595  1.00  0.00     0.269 C 
HETATM   25  C   UNL     1       5.067  26.366  50.591  1.00  0.00     0.269 C 
ENDBRANCH  21  22
ENDBRANCH  20  21
ENDBRANCH  17  20
ENDBRANCH  12  16
ENDBRANCH   8  10
ENDBRANCH   2   8
BRANCH   1  26
HETATM   26  O   UNL     1       7.390  30.710  57.793  1.00  0.00    -0.307 OA
BRANCH  26  27
HETATM   27  C   UNL     1       7.476  31.105  59.104  1.00  0.00     0.076 A 
HETATM   28  C   UNL     1       8.508  30.561  59.863  1.00  0.00     0.039 A 
HETATM   29  C   UNL     1       8.654  30.931  61.200  1.00  0.00     0.027 A 
HETATM   30  C   UNL     1       7.760  31.836  61.779  1.00  0.00     0.040 A 
HETATM   31  C   UNL     1       6.691  32.362  61.035  1.00  0.00    -0.038 A 
HETATM   32 CL   UNL     1       8.022  32.279  63.428  1.00  0.00    -0.084 Cl
HETATM   33  C   UNL     1       5.728  33.355  61.625  1.00  0.00     0.050 C 
HETATM   34  C   UNL     1       6.549  31.974  59.692  1.00  0.00     0.045 A 
ENDBRANCH  26  27
ENDBRANCH   1  26
BRANCH   5  35
HETATM   35  C   UNL     1       7.681  25.350  56.166  1.00  0.00     0.084 A 
HETATM   36  C   UNL     1       7.451  24.962  54.832  1.00  0.00     0.063 A 
HETATM   37 CL   UNL     1       7.222  26.093  53.536  1.00  0.00    -0.082 Cl
HETATM   38  C   UNL     1       7.576  23.617  54.451  1.00  0.00     0.026 A 
HETATM   39  C   UNL     1       7.962  22.649  55.377  1.00  0.00     0.002 A 
HETATM   40  C   UNL     1       8.250  23.024  56.683  1.00  0.00     0.002 A 
HETATM   41  C   UNL     1       8.119  24.360  57.071  1.00  0.00     0.033 A 
ENDBRANCH   5  35
TORSDOF 9
ENDMDL
MODEL 10
REMARK VINA RESULT:      -9.4      4.253      9.397
REMARK  9 active torsions:
REMARK  status: ('A' for Active; 'I' for Inactive)
REMARK    1  A    between atoms: C_7  and  O_8 
REMARK    2  A    between atoms: O_8  and  C_9 
REMARK    3  A    between atoms: C_10  and  N_11 
REMARK    4  A    between atoms: N_11  and  C_12 
REMARK    5  A    between atoms: C_14  and  C_15 
REMARK       I    between atoms: C_15  and  N_16 
REMARK    6  A    between atoms: N_16  and  C_17 
REMARK    7  A    between atoms: C_17  and  C_18 
REMARK    8  A    between atoms: C_18  and  N_19 
REMARK    9  A    between atoms: N_29  and  C_30 
ROOT
HETATM    1  C   UNL     1       7.391  29.394  57.537  1.00  0.00     0.122 C 
HETATM    2  C   UNL     1       6.252  28.683  57.471  1.00  0.00     0.119 C 
HETATM    3  C   UNL     1       6.316  27.238  57.028  1.00  0.00     0.293 C 
HETATM    4  O   UNL     1       5.265  26.594  57.091  1.00  0.00    -0.264 OA
HETATM    5  N   UNL     1       7.562  26.754  56.634  1.00  0.00    -0.195 N 
HETATM    6  N   UNL     1       8.736  27.413  56.923  1.00  0.00    -0.174 NA
HETATM    7  C   UNL     1       8.639  28.628  57.347  1.00  0.00     0.178 C 
ENDROOT
BRANCH   2   8
HETATM    8  N   UNL     1       4.952  29.149  57.732  1.00  0.00    -0.253 NA
HETATM    9  H   UNL     1       4.899  29.387  58.733  1.00  0.00     0.134 HD
BRANCH   8  10
HETATM   10  C   UNL     1       4.315  30.192  57.007  1.00  0.00     0.014 A 
HETATM   11  C   UNL     1       4.059  31.399  57.676  1.00  0.00     0.040 A 
HETATM   12  C   UNL     1       3.434  32.462  57.012  1.00  0.00     0.033 A 
HETATM   13  C   UNL     1       3.083  32.345  55.664  1.00  0.00     0.017 A 
HETATM   14  C   UNL     1       3.347  31.157  54.989  1.00  0.00     0.003 A 
HETATM   15  C   UNL     1       3.951  30.088  55.658  1.00  0.00     0.024 A 
BRANCH  12  16
HETATM   16  C   UNL     1       3.169  33.715  57.759  1.00  0.00     0.251 C 
HETATM   17  N   UNL     1       3.611  33.753  59.068  1.00  0.00    -0.355 N 
HETATM   18  H   UNL     1       4.240  32.999  59.332  1.00  0.00     0.162 HD
HETATM   19  O   UNL     1       2.560  34.646  57.249  1.00  0.00    -0.268 OA
BRANCH  17  20
HETATM   20  C   UNL     1       3.817  35.011  59.786  1.00  0.00     0.150 C 
BRANCH  20  21
HETATM   21  C   UNL     1       2.642  35.562  60.623  1.00  0.00     0.253 C 
BRANCH  21  22
HETATM   22  N   UNL     1       2.891  35.451  62.113  1.00  0.00    -0.077 N 
HETATM   23  H   UNL     1       2.384  36.262  62.506  1.00  0.00     0.279 HD
HETATM   24  C   UNL     1       2.361  34.200  62.733  1.00  0.00     0.269 C 
HETATM   25  C   UNL     1       4.331  35.691  62.456  1.00  0.00     0.269 C 
ENDBRANCH  21  22
ENDBRANCH  20  21
ENDBRANCH  17  20
ENDBRANCH  12  16
ENDBRANCH   8  10
ENDBRANCH   2   8
BRANCH   1  26
HETATM   26  O   UNL     1       7.383  30.742  57.883  1.00  0.00    -0.307 OA
BRANCH  26  27
HETATM   27  C   UNL     1       7.578  31.108  59.191  1.00  0.00     0.076 A 
HETATM   28  C   UNL     1       6.866  32.211  59.652  1.00  0.00     0.039 A 
HETATM   29  C   UNL     1       7.013  32.626  60.975  1.00  0.00     0.027 A 
HETATM   30  C   UNL     1       7.880  31.943  61.833  1.00  0.00     0.040 A 
HETATM   31  C   UNL     1       8.634  30.852  61.369  1.00  0.00    -0.038 A 
HETATM   32 CL   UNL     1       7.986  32.487  63.469  1.00  0.00    -0.084 Cl
HETATM   33  C   UNL     1       9.558  30.084  62.274  1.00  0.00     0.050 C 
HETATM   34  C   UNL     1       8.484  30.450  60.030  1.00  0.00     0.045 A 
ENDBRANCH  26  27
ENDBRANCH   1  26
BRANCH   5  35
HETATM   35  C   UNL     1       7.747  25.430  56.119  1.00  0.00     0.084 A 
HETATM   36  C   UNL     1       7.525  25.074  54.774  1.00  0.00     0.063 A 
HETATM   37 CL   UNL     1       7.284  26.236  53.508  1.00  0.00    -0.082 Cl
HETATM   38  C   UNL     1       7.668  23.742  54.357  1.00  0.00     0.026 A 
HETATM   39  C   UNL     1       8.064  22.755  55.259  1.00  0.00     0.002 A 
HETATM   40  C   UNL     1       8.345  23.099  56.575  1.00  0.00     0.002 A 
HETATM   41  C   UNL     1       8.196  24.422  56.997  1.00  0.00     0.033 A 
ENDBRANCH   5  35
TORSDOF 9
ENDMDL
