MODEL 1
REMARK VINA RESULT:      -9.5      0.000      0.000
REMARK  5 active torsions:
REMARK  status: ('A' for Active; 'I' for Inactive)
REMARK    1  A    between atoms: C_3  and  O_4 
REMARK    2  A    between atoms: O_4  and  C_5 
REMARK    3  A    between atoms: C_5  and  C_6 
REMARK       I    between atoms: C_6  and  N_7 
REMARK    4  A    between atoms: N_7  and  N_8 
REMARK    5  A    between atoms: C_9  and  C_10 
ROOT
HETATM    1  C   UNL     1       5.515  27.676  56.047  1.00  0.00     0.261 C 
HETATM    2  N   UNL     1       6.172  26.551  56.548  1.00  0.00    -0.246 N 
HETATM    3  O   UNL     1       5.003  27.757  54.935  1.00  0.00    -0.269 OA
HETATM    4  H   UNL     1       6.555  26.552  57.486  1.00  0.00     0.192 HD
ENDROOT
BRANCH   2   5
HETATM    5  N   UNL     1       6.288  25.429  55.780  1.00  0.00    -0.184 NA
HETATM    6  C   UNL     1       7.458  25.216  55.268  1.00  0.00     0.153 C 
BRANCH   6   7
HETATM    7  C   UNL     1       7.703  24.055  54.434  1.00  0.00     0.018 A 
HETATM    8  C   UNL     1       7.942  22.719  54.902  1.00  0.00     0.004 A 
HETATM    9  C   UNL     1       8.122  21.909  53.782  1.00  0.00     0.043 A 
HETATM   10  C   UNL     1       8.014  22.119  56.178  1.00  0.00     0.014 A 
HETATM   11  C   UNL     1       8.370  20.534  53.870  1.00  0.00     0.030 A 
HETATM   12  N   UNL     1       8.004  22.716  52.676  1.00  0.00    -0.358 N 
HETATM   13  C   UNL     1       8.435  19.966  55.145  1.00  0.00     0.002 A 
HETATM   14  C   UNL     1       8.261  20.745  56.284  1.00  0.00     0.001 A 
HETATM   15  H   UNL     1       8.091  22.392  51.722  1.00  0.00     0.166 HD
HETATM   16  C   UNL     1       7.756  24.014  53.047  1.00  0.00     0.018 A 
HETATM   17  C   UNL     1       7.591  25.086  52.027  1.00  0.00     0.069 C 
ENDBRANCH   6   7
ENDBRANCH   2   5
BRANCH   1  18
HETATM   18  C   UNL     1       5.502  28.810  57.074  1.00  0.00     0.280 C 
BRANCH  18  19
HETATM   19  O   UNL     1       6.346  29.898  56.706  1.00  0.00    -0.341 OA
BRANCH  19  20
HETATM   20  C   UNL     1       7.051  30.349  57.794  1.00  0.00     0.081 A 
HETATM   21  C   UNL     1       8.308  29.799  58.099  1.00  0.00    -0.027 A 
HETATM   22  C   UNL     1       8.927  28.718  57.263  1.00  0.00     0.051 C 
HETATM   23  C   UNL     1       8.980  30.256  59.242  1.00  0.00     0.028 A 
HETATM   24  C   UNL     1       8.426  31.267  60.027  1.00  0.00     0.012 A 
HETATM   25  C   UNL     1       7.203  31.844  59.686  1.00  0.00     0.028 A 
HETATM   26 BR   UNL     1       9.348  31.868  61.565  1.00  0.00    -0.051 Br
HETATM   27  C   UNL     1       6.509  31.401  58.553  1.00  0.00    -0.027 A 
HETATM   28  C   UNL     1       5.191  32.023  58.185  1.00  0.00     0.051 C 
ENDBRANCH  19  20
ENDBRANCH  18  19
ENDBRANCH   1  18
TORSDOF 5
ENDMDL
MODEL 2
REMARK VINA RESULT:      -9.2      3.410      9.107
REMARK  5 active torsions:
REMARK  status: ('A' for Active; 'I' for Inactive)
REMARK    1  A    between atoms: C_3  and  O_4 
REMARK    2  A    between atoms: O_4  and  C_5 
REMARK    3  A    between atoms: C_5  and  C_6 
REMARK       I    between atoms: C_6  and  N_7 
REMARK    4  A    between atoms: N_7  and  N_8 
REMARK    5  A    between atoms: C_9  and  C_10 
ROOT
HETATM    1  C   UNL     1       5.791  27.260  56.143  1.00  0.00     0.261 C 
HETATM    2  N   UNL     1       6.896  27.954  56.638  1.00  0.00    -0.246 N 
HETATM    3  O   UNL     1       4.649  27.346  56.583  1.00  0.00    -0.269 OA
HETATM    4  H   UNL     1       7.808  27.847  56.210  1.00  0.00     0.192 HD
ENDROOT
BRANCH   2   5
HETATM    5  N   UNL     1       6.751  28.802  57.698  1.00  0.00    -0.184 NA
HETATM    6  C   UNL     1       6.926  30.058  57.440  1.00  0.00     0.153 C 
BRANCH   6   7
HETATM    7  C   UNL     1       6.799  31.056  58.486  1.00  0.00     0.018 A 
HETATM    8  C   UNL     1       7.639  31.173  59.643  1.00  0.00     0.004 A 
HETATM    9  C   UNL     1       7.183  32.262  60.384  1.00  0.00     0.043 A 
HETATM   10  C   UNL     1       8.756  30.457  60.128  1.00  0.00     0.014 A 
HETATM   11  C   UNL     1       7.781  32.671  61.582  1.00  0.00     0.030 A 
HETATM   12  N   UNL     1       6.104  32.784  59.712  1.00  0.00    -0.358 N 
HETATM   13  C   UNL     1       8.885  31.946  62.038  1.00  0.00     0.002 A 
HETATM   14  C   UNL     1       9.367  30.853  61.323  1.00  0.00     0.001 A 
HETATM   15  H   UNL     1       5.572  33.586  60.024  1.00  0.00     0.166 HD
HETATM   16  C   UNL     1       5.854  32.070  58.567  1.00  0.00     0.018 A 
HETATM   17  C   UNL     1       4.729  32.437  57.664  1.00  0.00     0.069 C 
ENDBRANCH   6   7
ENDBRANCH   2   5
BRANCH   1  18
HETATM   18  C   UNL     1       6.183  26.373  54.958  1.00  0.00     0.280 C 
BRANCH  18  19
HETATM   19  O   UNL     1       7.579  26.093  54.915  1.00  0.00    -0.341 OA
BRANCH  19  20
HETATM   20  C   UNL     1       7.799  24.802  54.506  1.00  0.00     0.081 A 
HETATM   21  C   UNL     1       7.752  24.475  53.140  1.00  0.00    -0.027 A 
HETATM   22  C   UNL     1       7.471  25.505  52.086  1.00  0.00     0.051 C 
HETATM   23  C   UNL     1       7.940  23.138  52.764  1.00  0.00     0.028 A 
HETATM   24  C   UNL     1       8.213  22.168  53.728  1.00  0.00     0.012 A 
HETATM   25  C   UNL     1       8.311  22.511  55.076  1.00  0.00     0.028 A 
HETATM   26 BR   UNL     1       8.463  20.369  53.199  1.00  0.00    -0.051 Br
HETATM   27  C   UNL     1       8.120  23.839  55.479  1.00  0.00    -0.027 A 
HETATM   28  C   UNL     1       8.225  24.208  56.931  1.00  0.00     0.051 C 
ENDBRANCH  19  20
ENDBRANCH  18  19
ENDBRANCH   1  18
TORSDOF 5
ENDMDL
MODEL 3
REMARK VINA RESULT:      -9.2      3.394      9.055
REMARK  5 active torsions:
REMARK  status: ('A' for Active; 'I' for Inactive)
REMARK    1  A    between atoms: C_3  and  O_4 
REMARK    2  A    between atoms: O_4  and  C_5 
REMARK    3  A    between atoms: C_5  and  C_6 
REMARK       I    between atoms: C_6  and  N_7 
REMARK    4  A    between atoms: N_7  and  N_8 
REMARK    5  A    between atoms: C_9  and  C_10 
ROOT
HETATM    1  C   UNL     1       5.734  27.255  56.082  1.00  0.00     0.261 C 
HETATM    2  N   UNL     1       6.874  27.856  56.616  1.00  0.00    -0.246 N 
HETATM    3  O   UNL     1       4.586  27.444  56.475  1.00  0.00    -0.269 OA
HETATM    4  H   UNL     1       7.790  27.666  56.225  1.00  0.00     0.192 HD
ENDROOT
BRANCH   2   5
HETATM    5  N   UNL     1       6.763  28.724  57.663  1.00  0.00    -0.184 NA
HETATM    6  C   UNL     1       6.891  29.978  57.370  1.00  0.00     0.153 C 
BRANCH   6   7
HETATM    7  C   UNL     1       6.791  30.996  58.399  1.00  0.00     0.018 A 
HETATM    8  C   UNL     1       7.632  31.106  59.556  1.00  0.00     0.004 A 
HETATM    9  C   UNL     1       7.208  32.220  60.279  1.00  0.00     0.043 A 
HETATM   10  C   UNL     1       8.725  30.364  60.056  1.00  0.00     0.014 A 
HETATM   11  C   UNL     1       7.815  32.630  61.471  1.00  0.00     0.030 A 
HETATM   12  N   UNL     1       6.148  32.765  59.595  1.00  0.00    -0.358 N 
HETATM   13  C   UNL     1       8.895  31.878  61.942  1.00  0.00     0.002 A 
HETATM   14  C   UNL     1       9.345  30.760  61.247  1.00  0.00     0.001 A 
HETATM   15  H   UNL     1       5.640  33.587  59.892  1.00  0.00     0.166 HD
HETATM   16  C   UNL     1       5.878  32.040  58.461  1.00  0.00     0.018 A 
HETATM   17  C   UNL     1       4.767  32.427  57.548  1.00  0.00     0.069 C 
ENDBRANCH   6   7
ENDBRANCH   2   5
BRANCH   1  18
HETATM   18  C   UNL     1       6.092  26.326  54.920  1.00  0.00     0.280 C 
BRANCH  18  19
HETATM   19  O   UNL     1       7.491  26.067  54.831  1.00  0.00    -0.341 OA
BRANCH  19  20
HETATM   20  C   UNL     1       7.717  24.760  54.477  1.00  0.00     0.081 A 
HETATM   21  C   UNL     1       7.953  23.791  55.467  1.00  0.00    -0.027 A 
HETATM   22  C   UNL     1       7.966  24.132  56.928  1.00  0.00     0.051 C 
HETATM   23  C   UNL     1       8.221  22.474  55.065  1.00  0.00     0.028 A 
HETATM   24  C   UNL     1       8.203  22.135  53.712  1.00  0.00     0.012 A 
HETATM   25  C   UNL     1       7.914  23.092  52.741  1.00  0.00     0.028 A 
HETATM   26 BR   UNL     1       8.568  20.353  53.191  1.00  0.00    -0.051 Br
HETATM   27  C   UNL     1       7.651  24.416  53.116  1.00  0.00    -0.027 A 
HETATM   28  C   UNL     1       7.339  25.448  52.069  1.00  0.00     0.051 C 
ENDBRANCH  19  20
ENDBRANCH  18  19
ENDBRANCH   1  18
TORSDOF 5
ENDMDL
MODEL 4
REMARK VINA RESULT:      -9.0      5.607      8.420
REMARK  5 active torsions:
REMARK  status: ('A' for Active; 'I' for Inactive)
REMARK    1  A    between atoms: C_3  and  O_4 
REMARK    2  A    between atoms: O_4  and  C_5 
REMARK    3  A    between atoms: C_5  and  C_6 
REMARK       I    between atoms: C_6  and  N_7 
REMARK    4  A    between atoms: N_7  and  N_8 
REMARK    5  A    between atoms: C_9  and  C_10 
ROOT
HETATM    1  C   UNL     1       5.137  25.967  51.507  1.00  0.00     0.261 C 
HETATM    2  N   UNL     1       5.908  26.406  52.585  1.00  0.00    -0.246 N 
HETATM    3  O   UNL     1       4.687  24.833  51.376  1.00  0.00    -0.269 OA
HETATM    4  H   UNL     1       6.230  27.366  52.633  1.00  0.00     0.192 HD
ENDROOT
BRANCH   2   5
HETATM    5  N   UNL     1       6.220  25.545  53.597  1.00  0.00    -0.184 NA
HETATM    6  C   UNL     1       7.415  25.051  53.566  1.00  0.00     0.153 C 
BRANCH   6   7
HETATM    7  C   UNL     1       7.863  24.124  54.590  1.00  0.00     0.018 A 
HETATM    8  C   UNL     1       8.107  22.723  54.404  1.00  0.00     0.004 A 
HETATM    9  C   UNL     1       8.529  22.206  55.629  1.00  0.00     0.043 A 
HETATM   10  C   UNL     1       8.017  21.842  53.304  1.00  0.00     0.014 A 
HETATM   11  C   UNL     1       8.863  20.859  55.811  1.00  0.00     0.030 A 
HETATM   12  N   UNL     1       8.536  23.247  56.525  1.00  0.00    -0.358 N 
HETATM   13  C   UNL     1       8.766  20.010  54.705  1.00  0.00     0.002 A 
HETATM   14  C   UNL     1       8.348  20.492  53.468  1.00  0.00     0.001 A 
HETATM   15  H   UNL     1       8.801  23.160  57.497  1.00  0.00     0.166 HD
HETATM   16  C   UNL     1       8.134  24.411  55.921  1.00  0.00     0.018 A 
HETATM   17  C   UNL     1       8.054  25.686  56.685  1.00  0.00     0.069 C 
ENDBRANCH   6   7
ENDBRANCH   2   5
BRANCH   1  18
HETATM   18  C   UNL     1       4.910  27.094  50.496  1.00  0.00     0.280 C 
BRANCH  18  19
HETATM   19  O   UNL     1       4.972  26.645  49.145  1.00  0.00    -0.341 OA
BRANCH  19  20
HETATM   20  C   UNL     1       3.871  27.071  48.445  1.00  0.00     0.081 A 
HETATM   21  C   UNL     1       3.712  28.432  48.138  1.00  0.00    -0.027 A 
HETATM   22  C   UNL     1       4.721  29.464  48.550  1.00  0.00     0.051 C 
HETATM   23  C   UNL     1       2.554  28.836  47.458  1.00  0.00     0.028 A 
HETATM   24  C   UNL     1       1.609  27.891  47.057  1.00  0.00     0.012 A 
HETATM   25  C   UNL     1       1.802  26.535  47.319  1.00  0.00     0.028 A 
HETATM   26 BR   UNL     1       0.053  28.456  46.142  1.00  0.00    -0.051 Br
HETATM   27  C   UNL     1       2.947  26.107  48.004  1.00  0.00    -0.027 A 
HETATM   28  C   UNL     1       3.155  24.646  48.286  1.00  0.00     0.051 C 
ENDBRANCH  19  20
ENDBRANCH  18  19
ENDBRANCH   1  18
TORSDOF 5
ENDMDL
MODEL 5
REMARK VINA RESULT:      -8.8      2.458      3.608
REMARK  5 active torsions:
REMARK  status: ('A' for Active; 'I' for Inactive)
REMARK    1  A    between atoms: C_3  and  O_4 
REMARK    2  A    between atoms: O_4  and  C_5 
REMARK    3  A    between atoms: C_5  and  C_6 
REMARK       I    between atoms: C_6  and  N_7 
REMARK    4  A    between atoms: N_7  and  N_8 
REMARK    5  A    between atoms: C_9  and  C_10 
ROOT
HETATM    1  C   UNL     1       9.218  30.271  57.976  1.00  0.00     0.261 C 
HETATM    2  N   UNL     1       8.250  29.285  57.785  1.00  0.00    -0.246 N 
HETATM    3  O   UNL     1      10.271  30.359  57.350  1.00  0.00    -0.269 OA
HETATM    4  H   UNL     1       7.394  29.289  58.328  1.00  0.00     0.192 HD
ENDROOT
BRANCH   2   5
HETATM    5  N   UNL     1       8.441  28.313  56.845  1.00  0.00    -0.184 NA
HETATM    6  C   UNL     1       7.396  27.613  56.541  1.00  0.00     0.153 C 
BRANCH   6   7
HETATM    7  C   UNL     1       7.475  26.551  55.555  1.00  0.00     0.018 A 
HETATM    8  C   UNL     1       7.799  25.179  55.822  1.00  0.00     0.004 A 
HETATM    9  C   UNL     1       7.757  24.495  54.608  1.00  0.00     0.043 A 
HETATM   10  C   UNL     1       8.118  24.449  56.989  1.00  0.00     0.014 A 
HETATM   11  C   UNL     1       8.018  23.124  54.499  1.00  0.00     0.030 A 
HETATM   12  N   UNL     1       7.427  25.412  53.639  1.00  0.00    -0.358 N 
HETATM   13  C   UNL     1       8.330  22.426  55.668  1.00  0.00     0.002 A 
HETATM   14  C   UNL     1       8.381  23.077  56.897  1.00  0.00     0.001 A 
HETATM   15  H   UNL     1       7.326  25.191  52.658  1.00  0.00     0.166 HD
HETATM   16  C   UNL     1       7.256  26.657  54.188  1.00  0.00     0.018 A 
HETATM   17  C   UNL     1       6.897  27.827  53.341  1.00  0.00     0.069 C 
ENDBRANCH   6   7
ENDBRANCH   2   5
BRANCH   1  18
HETATM   18  C   UNL     1       8.797  31.254  59.072  1.00  0.00     0.280 C 
BRANCH  18  19
HETATM   19  O   UNL     1       7.691  30.784  59.839  1.00  0.00    -0.341 OA
BRANCH  19  20
HETATM   20  C   UNL     1       7.556  31.520  60.989  1.00  0.00     0.081 A 
HETATM   21  C   UNL     1       8.415  31.295  62.078  1.00  0.00    -0.027 A 
HETATM   22  C   UNL     1       9.501  30.260  62.034  1.00  0.00     0.051 C 
HETATM   23  C   UNL     1       8.221  32.038  63.251  1.00  0.00     0.028 A 
HETATM   24  C   UNL     1       7.223  33.011  63.309  1.00  0.00     0.012 A 
HETATM   25  C   UNL     1       6.411  33.266  62.205  1.00  0.00     0.028 A 
HETATM   26 BR   UNL     1       6.976  34.002  64.901  1.00  0.00    -0.051 Br
HETATM   27  C   UNL     1       6.580  32.532  61.024  1.00  0.00    -0.027 A 
HETATM   28  C   UNL     1       5.705  32.806  59.834  1.00  0.00     0.051 C 
ENDBRANCH  19  20
ENDBRANCH  18  19
ENDBRANCH   1  18
TORSDOF 5
ENDMDL
MODEL 6
REMARK VINA RESULT:      -8.8      0.982      1.983
REMARK  5 active torsions:
REMARK  status: ('A' for Active; 'I' for Inactive)
REMARK    1  A    between atoms: C_3  and  O_4 
REMARK    2  A    between atoms: O_4  and  C_5 
REMARK    3  A    between atoms: C_5  and  C_6 
REMARK       I    between atoms: C_6  and  N_7 
REMARK    4  A    between atoms: N_7  and  N_8 
REMARK    5  A    between atoms: C_9  and  C_10 
ROOT
HETATM    1  C   UNL     1       6.601  28.423  56.077  1.00  0.00     0.261 C 
HETATM    2  N   UNL     1       7.124  27.202  56.507  1.00  0.00    -0.246 N 
HETATM    3  O   UNL     1       6.507  28.778  54.905  1.00  0.00    -0.269 OA
HETATM    4  H   UNL     1       7.151  26.971  57.493  1.00  0.00     0.192 HD
ENDROOT
BRANCH   2   5
HETATM    5  N   UNL     1       7.587  26.298  55.595  1.00  0.00    -0.184 NA
HETATM    6  C   UNL     1       6.795  25.309  55.332  1.00  0.00     0.153 C 
BRANCH   6   7
HETATM    7  C   UNL     1       7.178  24.284  54.379  1.00  0.00     0.018 A 
HETATM    8  C   UNL     1       7.536  22.932  54.699  1.00  0.00     0.004 A 
HETATM    9  C   UNL     1       7.825  22.281  53.500  1.00  0.00     0.043 A 
HETATM   10  C   UNL     1       7.635  22.194  55.899  1.00  0.00     0.014 A 
HETATM   11  C   UNL     1       8.208  20.936  53.438  1.00  0.00     0.030 A 
HETATM   12  N   UNL     1       7.656  23.199  52.491  1.00  0.00    -0.358 N 
HETATM   13  C   UNL     1       8.296  20.230  54.640  1.00  0.00     0.002 A 
HETATM   14  C   UNL     1       8.016  20.847  55.855  1.00  0.00     0.001 A 
HETATM   15  H   UNL     1       7.799  22.999  51.510  1.00  0.00     0.166 HD
HETATM   16  C   UNL     1       7.269  24.413  53.000  1.00  0.00     0.018 A 
HETATM   17  C   UNL     1       7.025  25.577  52.106  1.00  0.00     0.069 C 
ENDBRANCH   6   7
ENDBRANCH   2   5
BRANCH   1  18
HETATM   18  C   UNL     1       6.141  29.275  57.263  1.00  0.00     0.280 C 
BRANCH  18  19
HETATM   19  O   UNL     1       6.690  30.590  57.243  1.00  0.00    -0.341 OA
BRANCH  19  20
HETATM   20  C   UNL     1       6.984  31.008  58.516  1.00  0.00     0.081 A 
HETATM   21  C   UNL     1       6.049  31.758  59.249  1.00  0.00    -0.027 A 
HETATM   22  C   UNL     1       4.708  32.127  58.684  1.00  0.00     0.051 C 
HETATM   23  C   UNL     1       6.401  32.201  60.531  1.00  0.00     0.028 A 
HETATM   24  C   UNL     1       7.639  31.860  61.078  1.00  0.00     0.012 A 
HETATM   25  C   UNL     1       8.539  31.070  60.365  1.00  0.00     0.028 A 
HETATM   26 BR   UNL     1       8.095  32.470  62.809  1.00  0.00    -0.051 Br
HETATM   27  C   UNL     1       8.214  30.620  59.079  1.00  0.00    -0.027 A 
HETATM   28  C   UNL     1       9.184  29.769  58.310  1.00  0.00     0.051 C 
ENDBRANCH  19  20
ENDBRANCH  18  19
ENDBRANCH   1  18
TORSDOF 5
ENDMDL
MODEL 7
REMARK VINA RESULT:      -8.7      5.252      7.704
REMARK  5 active torsions:
REMARK  status: ('A' for Active; 'I' for Inactive)
REMARK    1  A    between atoms: C_3  and  O_4 
REMARK    2  A    between atoms: O_4  and  C_5 
REMARK    3  A    between atoms: C_5  and  C_6 
REMARK       I    between atoms: C_6  and  N_7 
REMARK    4  A    between atoms: N_7  and  N_8 
REMARK    5  A    between atoms: C_9  and  C_10 
ROOT
HETATM    1  C   UNL     1       5.166  26.115  52.119  1.00  0.00     0.261 C 
HETATM    2  N   UNL     1       5.659  26.437  53.384  1.00  0.00    -0.246 N 
HETATM    3  O   UNL     1       4.950  24.977  51.714  1.00  0.00    -0.269 OA
HETATM    4  H   UNL     1       5.793  27.405  53.655  1.00  0.00     0.192 HD
ENDROOT
BRANCH   2   5
HETATM    5  N   UNL     1       5.946  25.447  54.278  1.00  0.00    -0.184 NA
HETATM    6  C   UNL     1       7.203  25.254  54.519  1.00  0.00     0.153 C 
BRANCH   6   7
HETATM    7  C   UNL     1       7.632  24.229  55.452  1.00  0.00     0.018 A 
HETATM    8  C   UNL     1       7.853  22.847  55.137  1.00  0.00     0.004 A 
HETATM    9  C   UNL     1       8.263  22.211  56.308  1.00  0.00     0.043 A 
HETATM   10  C   UNL     1       7.749  22.074  53.959  1.00  0.00     0.014 A 
HETATM   11  C   UNL     1       8.573  20.847  56.364  1.00  0.00     0.030 A 
HETATM   12  N   UNL     1       8.286  23.164  57.298  1.00  0.00    -0.358 N 
HETATM   13  C   UNL     1       8.464  20.107  55.185  1.00  0.00     0.002 A 
HETATM   14  C   UNL     1       8.057  20.709  53.998  1.00  0.00     0.001 A 
HETATM   15  H   UNL     1       8.548  22.982  58.257  1.00  0.00     0.166 HD
HETATM   16  C   UNL     1       7.906  24.386  56.804  1.00  0.00     0.018 A 
HETATM   17  C   UNL     1       7.845  25.585  57.684  1.00  0.00     0.069 C 
ENDBRANCH   6   7
ENDBRANCH   2   5
BRANCH   1  18
HETATM   18  C   UNL     1       4.913  27.376  51.288  1.00  0.00     0.280 C 
BRANCH  18  19
HETATM   19  O   UNL     1       5.393  27.262  49.951  1.00  0.00    -0.341 OA
BRANCH  19  20
HETATM   20  C   UNL     1       4.608  27.991  49.094  1.00  0.00     0.081 A 
HETATM   21  C   UNL     1       3.610  27.355  48.335  1.00  0.00    -0.027 A 
HETATM   22  C   UNL     1       3.360  25.879  48.429  1.00  0.00     0.051 C 
HETATM   23  C   UNL     1       2.855  28.126  47.440  1.00  0.00     0.028 A 
HETATM   24  C   UNL     1       3.065  29.502  47.346  1.00  0.00     0.012 A 
HETATM   25  C   UNL     1       4.021  30.133  48.142  1.00  0.00     0.028 A 
HETATM   26 BR   UNL     1       2.037  30.523  46.131  1.00  0.00    -0.051 Br
HETATM   27  C   UNL     1       4.793  29.384  49.039  1.00  0.00    -0.027 A 
HETATM   28  C   UNL     1       5.822  30.063  49.897  1.00  0.00     0.051 C 
ENDBRANCH  19  20
ENDBRANCH  18  19
ENDBRANCH   1  18
TORSDOF 5
ENDMDL
MODEL 8
REMARK VINA RESULT:      -8.7      2.816      4.264
REMARK  5 active torsions:
REMARK  status: ('A' for Active; 'I' for Inactive)
REMARK    1  A    between atoms: C_3  and  O_4 
REMARK    2  A    between atoms: O_4  and  C_5 
REMARK    3  A    between atoms: C_5  and  C_6 
REMARK       I    between atoms: C_6  and  N_7 
REMARK    4  A    between atoms: N_7  and  N_8 
REMARK    5  A    between atoms: C_9  and  C_10 
ROOT
HETATM    1  C   UNL     1       8.967  30.157  58.017  1.00  0.00     0.261 C 
HETATM    2  N   UNL     1       8.058  29.099  58.036  1.00  0.00    -0.246 N 
HETATM    3  O   UNL     1       9.933  30.245  57.265  1.00  0.00    -0.269 OA
HETATM    4  H   UNL     1       7.271  29.106  58.675  1.00  0.00     0.192 HD
ENDROOT
BRANCH   2   5
HETATM    5  N   UNL     1       8.211  28.051  57.176  1.00  0.00    -0.184 NA
HETATM    6  C   UNL     1       7.237  27.199  57.148  1.00  0.00     0.153 C 
BRANCH   6   7
HETATM    7  C   UNL     1       7.285  26.043  56.273  1.00  0.00     0.018 A 
HETATM    8  C   UNL     1       6.530  25.872  55.065  1.00  0.00     0.004 A 
HETATM    9  C   UNL     1       6.875  24.633  54.527  1.00  0.00     0.043 A 
HETATM   10  C   UNL     1       5.586  26.661  54.371  1.00  0.00     0.014 A 
HETATM   11  C   UNL     1       6.329  24.142  53.335  1.00  0.00     0.030 A 
HETATM   12  N   UNL     1       7.799  24.069  55.374  1.00  0.00    -0.358 N 
HETATM   13  C   UNL     1       5.399  24.944  52.669  1.00  0.00     0.002 A 
HETATM   14  C   UNL     1       5.030  26.186  53.177  1.00  0.00     0.001 A 
HETATM   15  H   UNL     1       8.225  23.163  55.230  1.00  0.00     0.166 HD
HETATM   16  C   UNL     1       8.057  24.900  56.434  1.00  0.00     0.018 A 
HETATM   17  C   UNL     1       9.023  24.511  57.498  1.00  0.00     0.069 C 
ENDBRANCH   6   7
ENDBRANCH   2   5
BRANCH   1  18
HETATM   18  C   UNL     1       8.602  31.218  59.059  1.00  0.00     0.280 C 
BRANCH  18  19
HETATM   19  O   UNL     1       7.446  30.872  59.818  1.00  0.00    -0.341 OA
BRANCH  19  20
HETATM   20  C   UNL     1       7.401  31.596  60.982  1.00  0.00     0.081 A 
HETATM   21  C   UNL     1       8.327  31.344  62.008  1.00  0.00    -0.027 A 
HETATM   22  C   UNL     1       9.391  30.293  61.878  1.00  0.00     0.051 C 
HETATM   23  C   UNL     1       8.225  32.075  63.200  1.00  0.00     0.028 A 
HETATM   24  C   UNL     1       7.249  33.063  63.337  1.00  0.00     0.012 A 
HETATM   25  C   UNL     1       6.368  33.344  62.293  1.00  0.00     0.028 A 
HETATM   26 BR   UNL     1       7.126  34.038  64.953  1.00  0.00    -0.051 Br
HETATM   27  C   UNL     1       6.446  32.622  61.095  1.00  0.00    -0.027 A 
HETATM   28  C   UNL     1       5.497  32.925  59.970  1.00  0.00     0.051 C 
ENDBRANCH  19  20
ENDBRANCH  18  19
ENDBRANCH   1  18
TORSDOF 5
ENDMDL
MODEL 9
REMARK VINA RESULT:      -8.6      2.573      4.275
REMARK  5 active torsions:
REMARK  status: ('A' for Active; 'I' for Inactive)
REMARK    1  A    between atoms: C_3  and  O_4 
REMARK    2  A    between atoms: O_4  and  C_5 
REMARK    3  A    between atoms: C_5  and  C_6 
REMARK       I    between atoms: C_6  and  N_7 
REMARK    4  A    between atoms: N_7  and  N_8 
REMARK    5  A    between atoms: C_9  and  C_10 
ROOT
HETATM    1  C   UNL     1       7.589  29.838  58.193  1.00  0.00     0.261 C 
HETATM    2  N   UNL     1       7.099  29.426  56.953  1.00  0.00    -0.246 N 
HETATM    3  O   UNL     1       8.515  29.306  58.799  1.00  0.00    -0.269 OA
HETATM    4  H   UNL     1       6.342  29.928  56.503  1.00  0.00     0.192 HD
ENDROOT
BRANCH   2   5
HETATM    5  N   UNL     1       7.652  28.348  56.324  1.00  0.00    -0.184 NA
HETATM    6  C   UNL     1       6.963  27.254  56.373  1.00  0.00     0.153 C 
BRANCH   6   7
HETATM    7  C   UNL     1       7.447  26.041  55.740  1.00  0.00     0.018 A 
HETATM    8  C   UNL     1       7.329  25.715  54.348  1.00  0.00     0.004 A 
HETATM    9  C   UNL     1       7.928  24.471  54.156  1.00  0.00     0.043 A 
HETATM   10  C   UNL     1       6.772  26.367  53.225  1.00  0.00     0.014 A 
HETATM   11  C   UNL     1       8.000  23.846  52.906  1.00  0.00     0.030 A 
HETATM   12  N   UNL     1       8.389  24.052  55.382  1.00  0.00    -0.358 N 
HETATM   13  C   UNL     1       7.443  24.514  51.813  1.00  0.00     0.002 A 
HETATM   14  C   UNL     1       6.836  25.757  51.967  1.00  0.00     0.001 A 
HETATM   15  H   UNL     1       8.869  23.177  55.540  1.00  0.00     0.166 HD
HETATM   16  C   UNL     1       8.106  24.982  56.350  1.00  0.00     0.018 A 
HETATM   17  C   UNL     1       8.499  24.758  57.768  1.00  0.00     0.069 C 
ENDBRANCH   6   7
ENDBRANCH   2   5
BRANCH   1  18
HETATM   18  C   UNL     1       6.827  31.061  58.708  1.00  0.00     0.280 C 
BRANCH  18  19
HETATM   19  O   UNL     1       7.691  32.118  59.120  1.00  0.00    -0.341 OA
BRANCH  19  20
HETATM   20  C   UNL     1       7.484  32.420  60.442  1.00  0.00     0.081 A 
HETATM   21  C   UNL     1       6.263  32.978  60.857  1.00  0.00    -0.027 A 
HETATM   22  C   UNL     1       5.148  33.259  59.892  1.00  0.00     0.051 C 
HETATM   23  C   UNL     1       6.103  33.313  62.209  1.00  0.00     0.028 A 
HETATM   24  C   UNL     1       7.123  33.050  63.124  1.00  0.00     0.012 A 
HETATM   25  C   UNL     1       8.311  32.447  62.712  1.00  0.00     0.028 A 
HETATM   26 BR   UNL     1       6.889  33.510  64.943  1.00  0.00    -0.051 Br
HETATM   27  C   UNL     1       8.498  32.110  61.365  1.00  0.00    -0.027 A 
HETATM   28  C   UNL     1       9.778  31.459  60.921  1.00  0.00     0.051 C 
ENDBRANCH  19  20
ENDBRANCH  18  19
ENDBRANCH   1  18
TORSDOF 5
ENDMDL
MODEL 10
REMARK VINA RESULT:      -8.6      5.942      8.365
REMARK  5 active torsions:
REMARK  status: ('A' for Active; 'I' for Inactive)
REMARK    1  A    between atoms: C_3  and  O_4 
REMARK    2  A    between atoms: O_4  and  C_5 
REMARK    3  A    between atoms: C_5  and  C_6 
REMARK       I    between atoms: C_6  and  N_7 
REMARK    4  A    between atoms: N_7  and  N_8 
REMARK    5  A    between atoms: C_9  and  C_10 
ROOT
HETATM    1  C   UNL     1       5.511  27.228  50.899  1.00  0.00     0.261 C 
HETATM    2  N   UNL     1       5.940  25.900  50.940  1.00  0.00    -0.246 N 
HETATM    3  O   UNL     1       5.712  28.062  51.776  1.00  0.00    -0.269 OA
HETATM    4  H   UNL     1       5.753  25.273  50.166  1.00  0.00     0.192 HD
ENDROOT
BRANCH   2   5
HETATM    5  N   UNL     1       6.635  25.440  52.021  1.00  0.00    -0.184 NA
HETATM    6  C   UNL     1       6.053  24.511  52.709  1.00  0.00     0.153 C 
BRANCH   6   7
HETATM    7  C   UNL     1       6.694  23.943  53.880  1.00  0.00     0.018 A 
HETATM    8  C   UNL     1       7.426  22.710  53.921  1.00  0.00     0.004 A 
HETATM    9  C   UNL     1       7.881  22.536  55.228  1.00  0.00     0.043 A 
HETATM   10  C   UNL     1       7.753  21.724  52.964  1.00  0.00     0.014 A 
HETATM   11  C   UNL     1       8.643  21.432  55.627  1.00  0.00     0.030 A 
HETATM   12  N   UNL     1       7.440  23.615  55.955  1.00  0.00    -0.358 N 
HETATM   13  C   UNL     1       8.953  20.472  54.660  1.00  0.00     0.002 A 
HETATM   14  C   UNL     1       8.515  20.613  53.346  1.00  0.00     0.001 A 
HETATM   15  H   UNL     1       7.625  23.751  56.940  1.00  0.00     0.166 HD
HETATM   16  C   UNL     1       6.720  24.473  55.164  1.00  0.00     0.018 A 
HETATM   17  C   UNL     1       6.128  25.720  55.721  1.00  0.00     0.069 C 
ENDBRANCH   6   7
ENDBRANCH   2   5
BRANCH   1  18
HETATM   18  C   UNL     1       4.758  27.524  49.599  1.00  0.00     0.280 C 
BRANCH  18  19
HETATM   19  O   UNL     1       3.466  26.922  49.560  1.00  0.00    -0.341 OA
BRANCH  19  20
HETATM   20  C   UNL     1       2.613  27.665  48.784  1.00  0.00     0.081 A 
HETATM   21  C   UNL     1       2.288  27.240  47.485  1.00  0.00    -0.027 A 
HETATM   22  C   UNL     1       2.846  25.976  46.898  1.00  0.00     0.051 C 
HETATM   23  C   UNL     1       1.446  28.046  46.706  1.00  0.00     0.028 A 
HETATM   24  C   UNL     1       0.909  29.219  47.236  1.00  0.00     0.012 A 
HETATM   25  C   UNL     1       1.194  29.605  48.545  1.00  0.00     0.028 A 
HETATM   26 BR   UNL     1      -0.225  30.293  46.169  1.00  0.00    -0.051 Br
HETATM   27  C   UNL     1       2.038  28.821  49.341  1.00  0.00    -0.027 A 
HETATM   28  C   UNL     1       2.345  29.237  50.752  1.00  0.00     0.051 C 
ENDBRANCH  19  20
ENDBRANCH  18  19
ENDBRANCH   1  18
TORSDOF 5
ENDMDL
