MODEL 1
REMARK VINA RESULT:     -10.7      0.000      0.000
REMARK  9 active torsions:
REMARK  status: ('A' for Active; 'I' for Inactive)
REMARK       I    between atoms: N_2  and  C_3 
REMARK    1  A    between atoms: N_2  and  C_28 
REMARK    2  A    between atoms: C_3  and  C_4 
REMARK    3  A    between atoms: C_6  and  N_7 
REMARK       I    between atoms: N_7  and  C_8 
REMARK    4  A    between atoms: C_8  and  C_9 
REMARK    5  A    between atoms: C_9  and  O_10 
REMARK    6  A    between atoms: N_17  and  C_18 
REMARK    7  A    between atoms: C_18  and  C_19 
REMARK    8  A    between atoms: C_19  and  C_20 
REMARK    9  A    between atoms: C_28  and  C_29 
ROOT
HETATM    1  C   UNL     1       5.202  28.139  54.182  1.00  0.00     0.036 A 
HETATM    2  C   UNL     1       6.545  28.397  54.485  1.00  0.00     0.049 A 
HETATM    3  C   UNL     1       6.928  29.142  55.616  1.00  0.00     0.065 A 
HETATM    4  C   UNL     1       5.879  29.657  56.413  1.00  0.00     0.091 A 
HETATM    5  C   UNL     1       4.534  29.381  56.122  1.00  0.00     0.088 A 
HETATM    6  N   UNL     1       3.683  29.966  57.022  1.00  0.00    -0.242 NA
HETATM    7  C   UNL     1       4.462  30.615  57.849  1.00  0.00     0.210 A 
HETATM    8  N   UNL     1       5.788  30.455  57.537  1.00  0.00    -0.337 N 
HETATM    9  C   UNL     1       4.187  28.587  55.024  1.00  0.00     0.051 A 
ENDROOT
BRANCH   1  10
HETATM   10  C   UNL     1       4.894  27.277  53.016  1.00  0.00     0.253 C 
HETATM   11  N   UNL     1       5.035  25.887  53.110  1.00  0.00    -0.350 N 
HETATM   12  C   UNL     1       4.881  25.118  51.883  1.00  0.00     0.153 C 
HETATM   13  O   UNL     1       4.529  27.852  51.991  1.00  0.00    -0.267 OA
BRANCH  11  14
HETATM   14  C   UNL     1       5.418  25.170  54.344  1.00  0.00     0.158 C 
BRANCH  14  15
HETATM   15  C   UNL     1       6.897  24.752  54.483  1.00  0.00     0.151 A 
HETATM   16  O   UNL     1       7.284  23.954  53.332  1.00  0.00    -0.343 OA
HETATM   17  C   UNL     1       7.605  22.724  53.836  1.00  0.00     0.075 A 
HETATM   18  C   UNL     1       7.529  22.639  55.214  1.00  0.00    -0.022 A 
HETATM   19  C   UNL     1       7.983  21.648  53.061  1.00  0.00     0.037 A 
HETATM   20  C   UNL     1       7.128  23.943  55.777  1.00  0.00     0.075 A 
HETATM   21  C   UNL     1       7.835  21.460  55.872  1.00  0.00     0.010 A 
HETATM   22  C   UNL     1       8.219  20.356  55.107  1.00  0.00     0.001 A 
HETATM   23  C   UNL     1       8.294  20.450  53.709  1.00  0.00     0.003 A 
ENDBRANCH  14  15
ENDBRANCH  11  14
ENDBRANCH   1  10
BRANCH   3  24
HETATM   24  N   UNL     1       8.276  29.329  55.967  1.00  0.00    -0.323 N 
HETATM   25  C   UNL     1       9.029  28.619  56.892  1.00  0.00     0.246 C 
HETATM   26  O   UNL     1       8.700  27.602  57.491  1.00  0.00    -0.271 OA
HETATM   27  H   UNL     1       8.776  30.108  55.561  1.00  0.00     0.169 HD
BRANCH  25  28
HETATM   28  C   UNL     1      10.432  29.217  57.054  1.00  0.00     0.270 C 
BRANCH  28  29
HETATM   29  O   UNL     1      10.451  30.637  56.893  1.00  0.00    -0.387 OA
HETATM   30  C   UNL     1      10.438  31.307  58.153  1.00  0.00     0.202 C 
ENDBRANCH  28  29
ENDBRANCH  25  28
ENDBRANCH   3  24
BRANCH   8  31
HETATM   31  C   UNL     1       6.838  31.093  58.311  1.00  0.00     0.134 C 
BRANCH  31  32
HETATM   32  C   UNL     1       6.282  32.186  59.226  1.00  0.00     0.058 C 
BRANCH  32  33
HETATM   33  C   UNL     1       6.944  32.259  60.581  1.00  0.00    -0.057 A 
HETATM   34  C   UNL     1       8.008  31.418  60.937  1.00  0.00     0.007 A 
HETATM   35  C   UNL     1       8.590  31.507  62.204  1.00  0.00     0.001 A 
HETATM   36  C   UNL     1       8.105  32.421  63.137  1.00  0.00     0.000 A 
HETATM   37  C   UNL     1       7.033  33.246  62.806  1.00  0.00     0.001 A 
HETATM   38  C   UNL     1       6.455  33.163  61.539  1.00  0.00     0.007 A 
ENDBRANCH  32  33
ENDBRANCH  31  32
ENDBRANCH   8  31
TORSDOF 9
ENDMDL
MODEL 2
REMARK VINA RESULT:     -10.5      1.911      3.277
REMARK  9 active torsions:
REMARK  status: ('A' for Active; 'I' for Inactive)
REMARK       I    between atoms: N_2  and  C_3 
REMARK    1  A    between atoms: N_2  and  C_28 
REMARK    2  A    between atoms: C_3  and  C_4 
REMARK    3  A    between atoms: C_6  and  N_7 
REMARK       I    between atoms: N_7  and  C_8 
REMARK    4  A    between atoms: C_8  and  C_9 
REMARK    5  A    between atoms: C_9  and  O_10 
REMARK    6  A    between atoms: N_17  and  C_18 
REMARK    7  A    between atoms: C_18  and  C_19 
REMARK    8  A    between atoms: C_19  and  C_20 
REMARK    9  A    between atoms: C_28  and  C_29 
ROOT
HETATM    1  C   UNL     1       6.672  28.352  54.314  1.00  0.00     0.036 A 
HETATM    2  C   UNL     1       5.744  28.725  55.295  1.00  0.00     0.049 A 
HETATM    3  C   UNL     1       6.140  29.240  56.543  1.00  0.00     0.065 A 
HETATM    4  C   UNL     1       7.533  29.324  56.775  1.00  0.00     0.091 A 
HETATM    5  C   UNL     1       8.463  28.970  55.785  1.00  0.00     0.088 A 
HETATM    6  N   UNL     1       9.754  29.134  56.211  1.00  0.00    -0.242 NA
HETATM    7  C   UNL     1       9.651  29.557  57.444  1.00  0.00     0.210 A 
HETATM    8  N   UNL     1       8.342  29.699  57.830  1.00  0.00    -0.337 N 
HETATM    9  C   UNL     1       8.038  28.517  54.532  1.00  0.00     0.051 A 
ENDROOT
BRANCH   1  10
HETATM   10  C   UNL     1       6.164  27.896  52.998  1.00  0.00     0.253 C 
HETATM   11  N   UNL     1       5.917  26.537  52.771  1.00  0.00    -0.350 N 
HETATM   12  C   UNL     1       5.583  26.141  51.410  1.00  0.00     0.153 C 
HETATM   13  O   UNL     1       5.993  28.767  52.145  1.00  0.00    -0.267 OA
BRANCH  11  14
HETATM   14  C   UNL     1       6.062  25.481  53.794  1.00  0.00     0.158 C 
BRANCH  14  15
HETATM   15  C   UNL     1       7.463  24.856  53.963  1.00  0.00     0.151 A 
HETATM   16  O   UNL     1       7.667  23.843  52.942  1.00  0.00    -0.343 OA
HETATM   17  C   UNL     1       7.816  22.667  53.623  1.00  0.00     0.075 A 
HETATM   18  C   UNL     1       7.792  22.802  54.999  1.00  0.00    -0.022 A 
HETATM   19  C   UNL     1       7.986  21.440  53.016  1.00  0.00     0.037 A 
HETATM   20  C   UNL     1       7.625  24.222  55.361  1.00  0.00     0.075 A 
HETATM   21  C   UNL     1       7.940  21.701  55.825  1.00  0.00     0.010 A 
HETATM   22  C   UNL     1       8.112  20.448  55.232  1.00  0.00     0.001 A 
HETATM   23  C   UNL     1       8.135  20.318  53.835  1.00  0.00     0.003 A 
ENDBRANCH  14  15
ENDBRANCH  11  14
ENDBRANCH   1  10
BRANCH   3  24
HETATM   24  N   UNL     1       5.210  29.694  57.495  1.00  0.00    -0.323 N 
HETATM   25  C   UNL     1       4.737  30.984  57.686  1.00  0.00     0.246 C 
HETATM   26  O   UNL     1       4.942  31.962  56.976  1.00  0.00    -0.271 OA
HETATM   27  H   UNL     1       4.866  29.039  58.183  1.00  0.00     0.169 HD
BRANCH  25  28
HETATM   28  C   UNL     1       3.813  31.070  58.907  1.00  0.00     0.270 C 
BRANCH  28  29
HETATM   29  O   UNL     1       3.094  32.303  58.973  1.00  0.00    -0.387 OA
HETATM   30  C   UNL     1       3.089  32.838  60.295  1.00  0.00     0.202 C 
ENDBRANCH  28  29
ENDBRANCH  25  28
ENDBRANCH   3  24
BRANCH   8  31
HETATM   31  C   UNL     1       7.982  30.146  59.164  1.00  0.00     0.134 C 
BRANCH  31  32
HETATM   32  C   UNL     1       8.263  31.638  59.355  1.00  0.00     0.058 C 
BRANCH  32  33
HETATM   33  C   UNL     1       7.853  32.180  60.704  1.00  0.00    -0.057 A 
HETATM   34  C   UNL     1       6.704  32.965  60.874  1.00  0.00     0.007 A 
HETATM   35  C   UNL     1       6.361  33.458  62.137  1.00  0.00     0.001 A 
HETATM   36  C   UNL     1       7.170  33.189  63.239  1.00  0.00     0.000 A 
HETATM   37  C   UNL     1       8.327  32.430  63.080  1.00  0.00     0.001 A 
HETATM   38  C   UNL     1       8.667  31.932  61.822  1.00  0.00     0.007 A 
ENDBRANCH  32  33
ENDBRANCH  31  32
ENDBRANCH   8  31
TORSDOF 9
ENDMDL
MODEL 3
REMARK VINA RESULT:     -10.4      2.130      3.627
REMARK  9 active torsions:
REMARK  status: ('A' for Active; 'I' for Inactive)
REMARK       I    between atoms: N_2  and  C_3 
REMARK    1  A    between atoms: N_2  and  C_28 
REMARK    2  A    between atoms: C_3  and  C_4 
REMARK    3  A    between atoms: C_6  and  N_7 
REMARK       I    between atoms: N_7  and  C_8 
REMARK    4  A    between atoms: C_8  and  C_9 
REMARK    5  A    between atoms: C_9  and  O_10 
REMARK    6  A    between atoms: N_17  and  C_18 
REMARK    7  A    between atoms: C_18  and  C_19 
REMARK    8  A    between atoms: C_19  and  C_20 
REMARK    9  A    between atoms: C_28  and  C_29 
ROOT
HETATM    1  C   UNL     1       6.604  28.719  55.758  1.00  0.00     0.036 A 
HETATM    2  C   UNL     1       5.855  29.543  56.607  1.00  0.00     0.049 A 
HETATM    3  C   UNL     1       6.457  30.343  57.597  1.00  0.00     0.065 A 
HETATM    4  C   UNL     1       7.863  30.240  57.718  1.00  0.00     0.091 A 
HETATM    5  C   UNL     1       8.615  29.430  56.854  1.00  0.00     0.088 A 
HETATM    6  N   UNL     1       9.954  29.482  57.138  1.00  0.00    -0.242 NA
HETATM    7  C   UNL     1      10.050  30.282  58.168  1.00  0.00     0.210 A 
HETATM    8  N   UNL     1       8.828  30.773  58.550  1.00  0.00    -0.337 N 
HETATM    9  C   UNL     1       7.994  28.692  55.841  1.00  0.00     0.051 A 
ENDROOT
BRANCH   1  10
HETATM   10  C   UNL     1       5.894  27.973  54.691  1.00  0.00     0.253 C 
HETATM   11  N   UNL     1       5.763  26.581  54.772  1.00  0.00    -0.350 N 
HETATM   12  C   UNL     1       5.207  25.898  53.612  1.00  0.00     0.153 C 
HETATM   13  O   UNL     1       5.455  28.641  53.756  1.00  0.00    -0.267 OA
BRANCH  11  14
HETATM   14  C   UNL     1       6.234  25.765  55.910  1.00  0.00     0.158 C 
BRANCH  14  15
HETATM   15  C   UNL     1       7.584  25.038  55.741  1.00  0.00     0.151 A 
HETATM   16  O   UNL     1       7.811  24.760  54.333  1.00  0.00    -0.343 OA
HETATM   17  C   UNL     1       7.851  23.397  54.236  1.00  0.00     0.075 A 
HETATM   18  C   UNL     1       7.733  22.738  55.445  1.00  0.00    -0.022 A 
HETATM   19  C   UNL     1       8.002  22.713  53.047  1.00  0.00     0.037 A 
HETATM   20  C   UNL     1       7.612  23.719  56.541  1.00  0.00     0.075 A 
HETATM   21  C   UNL     1       7.764  21.355  55.509  1.00  0.00     0.010 A 
HETATM   22  C   UNL     1       7.916  20.642  54.318  1.00  0.00     0.001 A 
HETATM   23  C   UNL     1       8.035  21.317  53.093  1.00  0.00     0.003 A 
ENDBRANCH  14  15
ENDBRANCH  11  14
ENDBRANCH   1  10
BRANCH   3  24
HETATM   24  N   UNL     1       5.715  31.234  58.392  1.00  0.00    -0.323 N 
HETATM   25  C   UNL     1       5.330  32.533  58.096  1.00  0.00     0.246 C 
HETATM   26  O   UNL     1       5.450  33.115  57.024  1.00  0.00    -0.271 OA
HETATM   27  H   UNL     1       5.466  30.949  59.329  1.00  0.00     0.169 HD
BRANCH  25  28
HETATM   28  C   UNL     1       4.625  33.197  59.285  1.00  0.00     0.270 C 
BRANCH  28  29
HETATM   29  O   UNL     1       3.229  32.896  59.341  1.00  0.00    -0.387 OA
HETATM   30  C   UNL     1       2.677  33.204  60.620  1.00  0.00     0.202 C 
ENDBRANCH  28  29
ENDBRANCH  25  28
ENDBRANCH   3  24
BRANCH   8  31
HETATM   31  C   UNL     1       8.685  31.674  59.680  1.00  0.00     0.134 C 
BRANCH  31  32
HETATM   32  C   UNL     1       8.559  30.910  61.001  1.00  0.00     0.058 C 
BRANCH  32  33
HETATM   33  C   UNL     1       7.768  31.635  62.065  1.00  0.00    -0.057 A 
HETATM   34  C   UNL     1       6.367  31.651  62.071  1.00  0.00     0.007 A 
HETATM   35  C   UNL     1       5.669  32.340  63.066  1.00  0.00     0.001 A 
HETATM   36  C   UNL     1       6.360  33.038  64.054  1.00  0.00     0.000 A 
HETATM   37  C   UNL     1       7.753  33.051  64.046  1.00  0.00     0.001 A 
HETATM   38  C   UNL     1       8.452  32.357  63.057  1.00  0.00     0.007 A 
ENDBRANCH  32  33
ENDBRANCH  31  32
ENDBRANCH   8  31
TORSDOF 9
ENDMDL
MODEL 4
REMARK VINA RESULT:      -9.9      3.044      8.132
REMARK  9 active torsions:
REMARK  status: ('A' for Active; 'I' for Inactive)
REMARK       I    between atoms: N_2  and  C_3 
REMARK    1  A    between atoms: N_2  and  C_28 
REMARK    2  A    between atoms: C_3  and  C_4 
REMARK    3  A    between atoms: C_6  and  N_7 
REMARK       I    between atoms: N_7  and  C_8 
REMARK    4  A    between atoms: C_8  and  C_9 
REMARK    5  A    between atoms: C_9  and  O_10 
REMARK    6  A    between atoms: N_17  and  C_18 
REMARK    7  A    between atoms: C_18  and  C_19 
REMARK    8  A    between atoms: C_19  and  C_20 
REMARK    9  A    between atoms: C_28  and  C_29 
ROOT
HETATM    1  C   UNL     1       4.396  29.078  52.740  1.00  0.00     0.036 A 
HETATM    2  C   UNL     1       5.005  28.999  53.999  1.00  0.00     0.049 A 
HETATM    3  C   UNL     1       5.577  27.807  54.481  1.00  0.00     0.065 A 
HETATM    4  C   UNL     1       5.468  26.674  53.641  1.00  0.00     0.091 A 
HETATM    5  C   UNL     1       4.877  26.758  52.371  1.00  0.00     0.088 A 
HETATM    6  N   UNL     1       4.882  25.552  51.722  1.00  0.00    -0.242 NA
HETATM    7  C   UNL     1       5.438  24.719  52.562  1.00  0.00     0.210 A 
HETATM    8  N   UNL     1       5.819  25.341  53.724  1.00  0.00    -0.337 N 
HETATM    9  C   UNL     1       4.370  27.971  51.895  1.00  0.00     0.051 A 
ENDROOT
BRANCH   1  10
HETATM   10  C   UNL     1       3.893  30.395  52.281  1.00  0.00     0.253 C 
HETATM   11  N   UNL     1       4.427  30.992  51.132  1.00  0.00    -0.350 N 
HETATM   12  C   UNL     1       4.009  32.355  50.836  1.00  0.00     0.153 C 
HETATM   13  O   UNL     1       3.011  30.913  52.965  1.00  0.00    -0.267 OA
BRANCH  11  14
HETATM   14  C   UNL     1       5.446  30.366  50.264  1.00  0.00     0.158 C 
BRANCH  14  15
HETATM   15  C   UNL     1       5.017  30.001  48.828  1.00  0.00     0.151 A 
HETATM   16  O   UNL     1       3.574  29.834  48.783  1.00  0.00    -0.343 OA
HETATM   17  C   UNL     1       3.372  28.526  48.438  1.00  0.00     0.075 A 
HETATM   18  C   UNL     1       4.533  27.818  48.191  1.00  0.00    -0.022 A 
HETATM   19  C   UNL     1       2.127  27.940  48.332  1.00  0.00     0.037 A 
HETATM   20  C   UNL     1       5.704  28.703  48.354  1.00  0.00     0.075 A 
HETATM   21  C   UNL     1       4.490  26.485  47.822  1.00  0.00     0.010 A 
HETATM   22  C   UNL     1       3.241  25.870  47.709  1.00  0.00     0.001 A 
HETATM   23  C   UNL     1       2.065  26.594  47.962  1.00  0.00     0.003 A 
ENDBRANCH  14  15
ENDBRANCH  11  14
ENDBRANCH   1  10
BRANCH   3  24
HETATM   24  N   UNL     1       6.263  27.748  55.707  1.00  0.00    -0.323 N 
HETATM   25  C   UNL     1       7.585  28.076  55.968  1.00  0.00     0.246 C 
HETATM   26  O   UNL     1       8.382  28.606  55.203  1.00  0.00    -0.271 OA
HETATM   27  H   UNL     1       5.782  27.366  56.509  1.00  0.00     0.169 HD
BRANCH  25  28
HETATM   28  C   UNL     1       7.968  27.762  57.419  1.00  0.00     0.270 C 
BRANCH  28  29
HETATM   29  O   UNL     1       8.677  28.831  58.049  1.00  0.00    -0.387 OA
HETATM   30  C   UNL     1       7.800  29.892  58.425  1.00  0.00     0.202 C 
ENDBRANCH  28  29
ENDBRANCH  25  28
ENDBRANCH   3  24
BRANCH   8  31
HETATM   31  C   UNL     1       6.449  24.612  54.811  1.00  0.00     0.134 C 
BRANCH  31  32
HETATM   32  C   UNL     1       7.894  24.235  54.476  1.00  0.00     0.058 C 
BRANCH  32  33
HETATM   33  C   UNL     1       8.138  22.749  54.364  1.00  0.00    -0.057 A 
HETATM   34  C   UNL     1       8.449  21.958  55.479  1.00  0.00     0.007 A 
HETATM   35  C   UNL     1       8.679  20.587  55.335  1.00  0.00     0.001 A 
HETATM   36  C   UNL     1       8.621  19.993  54.076  1.00  0.00     0.000 A 
HETATM   37  C   UNL     1       8.337  20.771  52.956  1.00  0.00     0.001 A 
HETATM   38  C   UNL     1       8.101  22.139  53.099  1.00  0.00     0.007 A 
ENDBRANCH  32  33
ENDBRANCH  31  32
ENDBRANCH   8  31
TORSDOF 9
ENDMDL
MODEL 5
REMARK VINA RESULT:      -9.7      2.972      5.333
REMARK  9 active torsions:
REMARK  status: ('A' for Active; 'I' for Inactive)
REMARK       I    between atoms: N_2  and  C_3 
REMARK    1  A    between atoms: N_2  and  C_28 
REMARK    2  A    between atoms: C_3  and  C_4 
REMARK    3  A    between atoms: C_6  and  N_7 
REMARK       I    between atoms: N_7  and  C_8 
REMARK    4  A    between atoms: C_8  and  C_9 
REMARK    5  A    between atoms: C_9  and  O_10 
REMARK    6  A    between atoms: N_17  and  C_18 
REMARK    7  A    between atoms: C_18  and  C_19 
REMARK    8  A    between atoms: C_19  and  C_20 
REMARK    9  A    between atoms: C_28  and  C_29 
ROOT
HETATM    1  C   UNL     1       8.147  30.198  57.823  1.00  0.00     0.036 A 
HETATM    2  C   UNL     1       7.069  31.079  57.974  1.00  0.00     0.049 A 
HETATM    3  C   UNL     1       6.763  31.685  59.207  1.00  0.00     0.065 A 
HETATM    4  C   UNL     1       7.581  31.323  60.304  1.00  0.00     0.091 A 
HETATM    5  C   UNL     1       8.675  30.458  60.148  1.00  0.00     0.088 A 
HETATM    6  N   UNL     1       9.336  30.249  61.329  1.00  0.00    -0.242 NA
HETATM    7  C   UNL     1       8.670  30.942  62.216  1.00  0.00     0.210 A 
HETATM    8  N   UNL     1       7.615  31.614  61.654  1.00  0.00    -0.337 N 
HETATM    9  C   UNL     1       8.989  29.918  58.897  1.00  0.00     0.051 A 
ENDROOT
BRANCH   1  10
HETATM   10  C   UNL     1       8.444  29.671  56.470  1.00  0.00     0.253 C 
HETATM   11  N   UNL     1       7.492  28.904  55.788  1.00  0.00    -0.350 N 
HETATM   12  C   UNL     1       7.911  28.278  54.541  1.00  0.00     0.153 C 
HETATM   13  O   UNL     1       9.555  29.936  56.010  1.00  0.00    -0.267 OA
BRANCH  11  14
HETATM   14  C   UNL     1       6.134  28.618  56.294  1.00  0.00     0.158 C 
BRANCH  14  15
HETATM   15  C   UNL     1       5.933  27.292  57.057  1.00  0.00     0.151 A 
HETATM   16  O   UNL     1       7.190  26.889  57.664  1.00  0.00    -0.343 OA
HETATM   17  C   UNL     1       7.513  25.700  57.070  1.00  0.00     0.075 A 
HETATM   18  C   UNL     1       6.568  25.239  56.172  1.00  0.00    -0.022 A 
HETATM   19  C   UNL     1       8.671  24.996  57.332  1.00  0.00     0.037 A 
HETATM   20  C   UNL     1       5.431  26.178  56.115  1.00  0.00     0.075 A 
HETATM   21  C   UNL     1       6.749  24.043  55.498  1.00  0.00     0.010 A 
HETATM   22  C   UNL     1       7.915  23.314  55.747  1.00  0.00     0.001 A 
HETATM   23  C   UNL     1       8.870  23.788  56.660  1.00  0.00     0.003 A 
ENDBRANCH  14  15
ENDBRANCH  11  14
ENDBRANCH   1  10
BRANCH   3  24
HETATM   24  N   UNL     1       5.734  32.633  59.341  1.00  0.00    -0.323 N 
HETATM   25  C   UNL     1       4.365  32.434  59.237  1.00  0.00     0.246 C 
HETATM   26  O   UNL     1       3.776  31.364  59.138  1.00  0.00    -0.271 OA
HETATM   27  H   UNL     1       5.987  33.603  59.467  1.00  0.00     0.169 HD
BRANCH  25  28
HETATM   28  C   UNL     1       3.595  33.757  59.340  1.00  0.00     0.270 C 
BRANCH  28  29
HETATM   29  O   UNL     1       2.766  34.005  58.203  1.00  0.00    -0.387 OA
HETATM   30  C   UNL     1       3.522  34.007  56.993  1.00  0.00     0.202 C 
ENDBRANCH  28  29
ENDBRANCH  25  28
ENDBRANCH   3  24
BRANCH   8  31
HETATM   31  C   UNL     1       6.724  32.442  62.448  1.00  0.00     0.134 C 
BRANCH  31  32
HETATM   32  C   UNL     1       7.444  33.053  63.653  1.00  0.00     0.058 C 
BRANCH  32  33
HETATM   33  C   UNL     1       6.524  33.503  64.764  1.00  0.00    -0.057 A 
HETATM   34  C   UNL     1       7.007  33.879  66.024  1.00  0.00     0.007 A 
HETATM   35  C   UNL     1       6.125  34.281  67.032  1.00  0.00     0.001 A 
HETATM   36  C   UNL     1       4.752  34.293  66.798  1.00  0.00     0.000 A 
HETATM   37  C   UNL     1       4.256  33.899  65.558  1.00  0.00     0.001 A 
HETATM   38  C   UNL     1       5.136  33.504  64.549  1.00  0.00     0.007 A 
ENDBRANCH  32  33
ENDBRANCH  31  32
ENDBRANCH   8  31
TORSDOF 9
ENDMDL
MODEL 6
REMARK VINA RESULT:      -9.6      2.218      9.225
REMARK  9 active torsions:
REMARK  status: ('A' for Active; 'I' for Inactive)
REMARK       I    between atoms: N_2  and  C_3 
REMARK    1  A    between atoms: N_2  and  C_28 
REMARK    2  A    between atoms: C_3  and  C_4 
REMARK    3  A    between atoms: C_6  and  N_7 
REMARK       I    between atoms: N_7  and  C_8 
REMARK    4  A    between atoms: C_8  and  C_9 
REMARK    5  A    between atoms: C_9  and  O_10 
REMARK    6  A    between atoms: N_17  and  C_18 
REMARK    7  A    between atoms: C_18  and  C_19 
REMARK    8  A    between atoms: C_19  and  C_20 
REMARK    9  A    between atoms: C_28  and  C_29 
ROOT
HETATM    1  C   UNL     1       4.220  29.631  55.541  1.00  0.00     0.036 A 
HETATM    2  C   UNL     1       4.340  29.276  54.191  1.00  0.00     0.049 A 
HETATM    3  C   UNL     1       4.767  27.997  53.789  1.00  0.00     0.065 A 
HETATM    4  C   UNL     1       5.111  27.096  54.824  1.00  0.00     0.091 A 
HETATM    5  C   UNL     1       4.970  27.444  56.175  1.00  0.00     0.088 A 
HETATM    6  N   UNL     1       5.350  26.426  57.010  1.00  0.00    -0.242 NA
HETATM    7  C   UNL     1       5.742  25.466  56.214  1.00  0.00     0.210 A 
HETATM    8  N   UNL     1       5.610  25.810  54.893  1.00  0.00    -0.337 N 
HETATM    9  C   UNL     1       4.487  28.704  56.545  1.00  0.00     0.051 A 
ENDROOT
BRANCH   1  10
HETATM   10  C   UNL     1       3.685  30.974  55.873  1.00  0.00     0.253 C 
HETATM   11  N   UNL     1       4.185  31.679  56.974  1.00  0.00    -0.350 N 
HETATM   12  C   UNL     1       3.500  32.911  57.341  1.00  0.00     0.153 C 
HETATM   13  O   UNL     1       2.791  31.403  55.143  1.00  0.00    -0.267 OA
BRANCH  11  14
HETATM   14  C   UNL     1       5.293  31.210  57.831  1.00  0.00     0.158 C 
BRANCH  14  15
HETATM   15  C   UNL     1       6.100  32.286  58.587  1.00  0.00     0.151 A 
HETATM   16  O   UNL     1       7.514  31.960  58.528  1.00  0.00    -0.343 OA
HETATM   17  C   UNL     1       7.892  31.749  59.825  1.00  0.00     0.075 A 
HETATM   18  C   UNL     1       6.887  31.960  60.750  1.00  0.00    -0.022 A 
HETATM   19  C   UNL     1       9.162  31.367  60.206  1.00  0.00     0.037 A 
HETATM   20  C   UNL     1       5.653  32.385  60.061  1.00  0.00     0.075 A 
HETATM   21  C   UNL     1       7.119  31.796  62.105  1.00  0.00     0.010 A 
HETATM   22  C   UNL     1       8.397  31.408  62.514  1.00  0.00     0.001 A 
HETATM   23  C   UNL     1       9.414  31.195  61.569  1.00  0.00     0.003 A 
ENDBRANCH  14  15
ENDBRANCH  11  14
ENDBRANCH   1  10
BRANCH   3  24
HETATM   24  N   UNL     1       4.807  27.612  52.437  1.00  0.00    -0.323 N 
HETATM   25  C   UNL     1       5.387  28.283  51.370  1.00  0.00     0.246 C 
HETATM   26  O   UNL     1       6.093  29.283  51.419  1.00  0.00    -0.271 OA
HETATM   27  H   UNL     1       4.308  26.779  52.159  1.00  0.00     0.169 HD
BRANCH  25  28
HETATM   28  C   UNL     1       5.107  27.573  50.040  1.00  0.00     0.270 C 
BRANCH  28  29
HETATM   29  O   UNL     1       5.374  28.398  48.904  1.00  0.00    -0.387 OA
HETATM   30  C   UNL     1       4.931  27.785  47.694  1.00  0.00     0.202 C 
ENDBRANCH  28  29
ENDBRANCH  25  28
ENDBRANCH   3  24
BRANCH   8  31
HETATM   31  C   UNL     1       5.995  24.904  53.825  1.00  0.00     0.134 C 
BRANCH  31  32
HETATM   32  C   UNL     1       7.468  24.502  53.927  1.00  0.00     0.058 C 
BRANCH  32  33
HETATM   33  C   UNL     1       7.697  23.019  54.102  1.00  0.00    -0.057 A 
HETATM   34  C   UNL     1       7.726  22.414  55.365  1.00  0.00     0.007 A 
HETATM   35  C   UNL     1       7.951  21.040  55.489  1.00  0.00     0.001 A 
HETATM   36  C   UNL     1       8.169  20.259  54.357  1.00  0.00     0.000 A 
HETATM   37  C   UNL     1       8.167  20.851  53.096  1.00  0.00     0.001 A 
HETATM   38  C   UNL     1       7.936  22.222  52.970  1.00  0.00     0.007 A 
ENDBRANCH  32  33
ENDBRANCH  31  32
ENDBRANCH   8  31
TORSDOF 9
ENDMDL
MODEL 7
REMARK VINA RESULT:      -9.1      1.921      8.547
REMARK  9 active torsions:
REMARK  status: ('A' for Active; 'I' for Inactive)
REMARK       I    between atoms: N_2  and  C_3 
REMARK    1  A    between atoms: N_2  and  C_28 
REMARK    2  A    between atoms: C_3  and  C_4 
REMARK    3  A    between atoms: C_6  and  N_7 
REMARK       I    between atoms: N_7  and  C_8 
REMARK    4  A    between atoms: C_8  and  C_9 
REMARK    5  A    between atoms: C_9  and  O_10 
REMARK    6  A    between atoms: N_17  and  C_18 
REMARK    7  A    between atoms: C_18  and  C_19 
REMARK    8  A    between atoms: C_19  and  C_20 
REMARK    9  A    between atoms: C_28  and  C_29 
ROOT
HETATM    1  C   UNL     1       3.992  30.154  54.492  1.00  0.00     0.036 A 
HETATM    2  C   UNL     1       5.075  30.003  55.368  1.00  0.00     0.049 A 
HETATM    3  C   UNL     1       5.844  28.825  55.412  1.00  0.00     0.065 A 
HETATM    4  C   UNL     1       5.438  27.779  54.550  1.00  0.00     0.091 A 
HETATM    5  C   UNL     1       4.367  27.938  53.658  1.00  0.00     0.088 A 
HETATM    6  N   UNL     1       4.149  26.809  52.913  1.00  0.00    -0.242 NA
HETATM    7  C   UNL     1       5.040  25.950  53.333  1.00  0.00     0.210 A 
HETATM    8  N   UNL     1       5.846  26.482  54.307  1.00  0.00    -0.337 N 
HETATM    9  C   UNL     1       3.659  29.142  53.596  1.00  0.00     0.051 A 
ENDROOT
BRANCH   1  10
HETATM   10  C   UNL     1       3.289  31.459  54.456  1.00  0.00     0.253 C 
HETATM   11  N   UNL     1       3.131  32.207  55.630  1.00  0.00    -0.350 N 
HETATM   12  C   UNL     1       2.287  33.392  55.554  1.00  0.00     0.153 C 
HETATM   13  O   UNL     1       2.858  31.820  53.361  1.00  0.00    -0.267 OA
BRANCH  11  14
HETATM   14  C   UNL     1       3.686  31.823  56.944  1.00  0.00     0.158 C 
BRANCH  14  15
HETATM   15  C   UNL     1       4.493  32.895  57.706  1.00  0.00     0.151 A 
HETATM   16  O   UNL     1       5.893  32.506  57.749  1.00  0.00    -0.343 OA
HETATM   17  C   UNL     1       6.180  32.335  59.075  1.00  0.00     0.075 A 
HETATM   18  C   UNL     1       5.131  32.629  59.925  1.00  0.00    -0.022 A 
HETATM   19  C   UNL     1       7.405  31.915  59.550  1.00  0.00     0.037 A 
HETATM   20  C   UNL     1       3.962  33.076  59.143  1.00  0.00     0.075 A 
HETATM   21  C   UNL     1       5.272  32.514  61.297  1.00  0.00     0.010 A 
HETATM   22  C   UNL     1       6.504  32.089  61.801  1.00  0.00     0.001 A 
HETATM   23  C   UNL     1       7.565  31.792  60.932  1.00  0.00     0.003 A 
ENDBRANCH  14  15
ENDBRANCH  11  14
ENDBRANCH   1  10
BRANCH   3  24
HETATM   24  N   UNL     1       6.981  28.705  56.229  1.00  0.00    -0.323 N 
HETATM   25  C   UNL     1       8.315  28.692  55.846  1.00  0.00     0.246 C 
HETATM   26  O   UNL     1       8.769  28.914  54.730  1.00  0.00    -0.271 OA
HETATM   27  H   UNL     1       6.849  28.543  57.217  1.00  0.00     0.169 HD
BRANCH  25  28
HETATM   28  C   UNL     1       9.240  28.429  57.041  1.00  0.00     0.270 C 
BRANCH  28  29
HETATM   29  O   UNL     1       9.683  29.631  57.674  1.00  0.00    -0.387 OA
HETATM   30  C   UNL     1      11.016  29.965  57.290  1.00  0.00     0.202 C 
ENDBRANCH  28  29
ENDBRANCH  25  28
ENDBRANCH   3  24
BRANCH   8  31
HETATM   31  C   UNL     1       6.902  25.707  54.933  1.00  0.00     0.134 C 
BRANCH  31  32
HETATM   32  C   UNL     1       7.760  24.978  53.896  1.00  0.00     0.058 C 
BRANCH  32  33
HETATM   33  C   UNL     1       7.816  23.479  54.078  1.00  0.00    -0.057 A 
HETATM   34  C   UNL     1       7.928  22.600  52.992  1.00  0.00     0.007 A 
HETATM   35  C   UNL     1       7.966  21.218  53.199  1.00  0.00     0.001 A 
HETATM   36  C   UNL     1       7.874  20.698  54.487  1.00  0.00     0.000 A 
HETATM   37  C   UNL     1       7.737  21.558  55.574  1.00  0.00     0.001 A 
HETATM   38  C   UNL     1       7.706  22.939  55.370  1.00  0.00     0.007 A 
ENDBRANCH  32  33
ENDBRANCH  31  32
ENDBRANCH   8  31
TORSDOF 9
ENDMDL
MODEL 8
REMARK VINA RESULT:      -9.0      3.772      8.765
REMARK  9 active torsions:
REMARK  status: ('A' for Active; 'I' for Inactive)
REMARK       I    between atoms: N_2  and  C_3 
REMARK    1  A    between atoms: N_2  and  C_28 
REMARK    2  A    between atoms: C_3  and  C_4 
REMARK    3  A    between atoms: C_6  and  N_7 
REMARK       I    between atoms: N_7  and  C_8 
REMARK    4  A    between atoms: C_8  and  C_9 
REMARK    5  A    between atoms: C_9  and  O_10 
REMARK    6  A    between atoms: N_17  and  C_18 
REMARK    7  A    between atoms: C_18  and  C_19 
REMARK    8  A    between atoms: C_19  and  C_20 
REMARK    9  A    between atoms: C_28  and  C_29 
ROOT
HETATM    1  C   UNL     1       5.195  29.045  50.923  1.00  0.00     0.036 A 
HETATM    2  C   UNL     1       5.656  29.187  52.237  1.00  0.00     0.049 A 
HETATM    3  C   UNL     1       5.839  28.082  53.091  1.00  0.00     0.065 A 
HETATM    4  C   UNL     1       5.490  26.817  52.563  1.00  0.00     0.091 A 
HETATM    5  C   UNL     1       5.048  26.672  51.239  1.00  0.00     0.088 A 
HETATM    6  N   UNL     1       4.773  25.366  50.930  1.00  0.00    -0.242 NA
HETATM    7  C   UNL     1       5.011  24.702  52.030  1.00  0.00     0.210 A 
HETATM    8  N   UNL     1       5.453  25.521  53.038  1.00  0.00    -0.337 N 
HETATM    9  C   UNL     1       4.933  27.782  50.396  1.00  0.00     0.051 A 
ENDROOT
BRANCH   1  10
HETATM   10  C   UNL     1       5.110  30.254  50.070  1.00  0.00     0.253 C 
HETATM   11  N   UNL     1       4.034  31.139  50.206  1.00  0.00    -0.350 N 
HETATM   12  C   UNL     1       3.926  32.210  49.225  1.00  0.00     0.153 C 
HETATM   13  O   UNL     1       6.017  30.412  49.252  1.00  0.00    -0.267 OA
BRANCH  11  14
HETATM   14  C   UNL     1       2.964  31.001  51.215  1.00  0.00     0.158 C 
BRANCH  14  15
HETATM   15  C   UNL     1       1.628  30.390  50.743  1.00  0.00     0.151 A 
HETATM   16  O   UNL     1       1.800  28.965  50.520  1.00  0.00    -0.343 OA
HETATM   17  C   UNL     1       1.565  28.776  49.186  1.00  0.00     0.075 A 
HETATM   18  C   UNL     1       1.194  29.923  48.508  1.00  0.00    -0.022 A 
HETATM   19  C   UNL     1       1.673  27.557  48.548  1.00  0.00     0.037 A 
HETATM   20  C   UNL     1       1.136  31.062  49.444  1.00  0.00     0.075 A 
HETATM   21  C   UNL     1       0.913  29.889  47.153  1.00  0.00     0.010 A 
HETATM   22  C   UNL     1       1.017  28.666  46.486  1.00  0.00     0.001 A 
HETATM   23  C   UNL     1       1.394  27.506  47.181  1.00  0.00     0.003 A 
ENDBRANCH  14  15
ENDBRANCH  11  14
ENDBRANCH   1  10
BRANCH   3  24
HETATM   24  N   UNL     1       6.382  28.215  54.381  1.00  0.00    -0.323 N 
HETATM   25  C   UNL     1       7.714  28.352  54.741  1.00  0.00     0.246 C 
HETATM   26  O   UNL     1       8.672  28.516  53.994  1.00  0.00    -0.271 OA
HETATM   27  H   UNL     1       5.760  28.144  55.174  1.00  0.00     0.169 HD
BRANCH  25  28
HETATM   28  C   UNL     1       7.888  28.355  56.265  1.00  0.00     0.270 C 
BRANCH  28  29
HETATM   29  O   UNL     1       6.914  27.553  56.935  1.00  0.00    -0.387 OA
HETATM   30  C   UNL     1       7.521  26.474  57.644  1.00  0.00     0.202 C 
ENDBRANCH  28  29
ENDBRANCH  25  28
ENDBRANCH   3  24
BRANCH   8  31
HETATM   31  C   UNL     1       5.771  25.006  54.358  1.00  0.00     0.134 C 
BRANCH  31  32
HETATM   32  C   UNL     1       7.251  24.634  54.480  1.00  0.00     0.058 C 
BRANCH  32  33
HETATM   33  C   UNL     1       7.528  23.151  54.397  1.00  0.00    -0.057 A 
HETATM   34  C   UNL     1       7.550  22.333  55.534  1.00  0.00     0.007 A 
HETATM   35  C   UNL     1       7.820  20.966  55.420  1.00  0.00     0.001 A 
HETATM   36  C   UNL     1       8.091  20.405  54.173  1.00  0.00     0.000 A 
HETATM   37  C   UNL     1       8.096  21.212  53.038  1.00  0.00     0.001 A 
HETATM   38  C   UNL     1       7.820  22.575  53.149  1.00  0.00     0.007 A 
ENDBRANCH  32  33
ENDBRANCH  31  32
ENDBRANCH   8  31
TORSDOF 9
ENDMDL
MODEL 9
REMARK VINA RESULT:      -9.0      3.106      8.107
REMARK  9 active torsions:
REMARK  status: ('A' for Active; 'I' for Inactive)
REMARK       I    between atoms: N_2  and  C_3 
REMARK    1  A    between atoms: N_2  and  C_28 
REMARK    2  A    between atoms: C_3  and  C_4 
REMARK    3  A    between atoms: C_6  and  N_7 
REMARK       I    between atoms: N_7  and  C_8 
REMARK    4  A    between atoms: C_8  and  C_9 
REMARK    5  A    between atoms: C_9  and  O_10 
REMARK    6  A    between atoms: N_17  and  C_18 
REMARK    7  A    between atoms: C_18  and  C_19 
REMARK    8  A    between atoms: C_19  and  C_20 
REMARK    9  A    between atoms: C_28  and  C_29 
ROOT
HETATM    1  C   UNL     1       3.770  30.428  54.646  1.00  0.00     0.036 A 
HETATM    2  C   UNL     1       4.946  30.347  55.403  1.00  0.00     0.049 A 
HETATM    3  C   UNL     1       5.849  29.275  55.273  1.00  0.00     0.065 A 
HETATM    4  C   UNL     1       5.484  28.255  54.363  1.00  0.00     0.091 A 
HETATM    5  C   UNL     1       4.317  28.346  53.589  1.00  0.00     0.088 A 
HETATM    6  N   UNL     1       4.159  27.260  52.769  1.00  0.00    -0.242 NA
HETATM    7  C   UNL     1       5.182  26.489  53.030  1.00  0.00     0.210 A 
HETATM    8  N   UNL     1       6.015  27.042  53.970  1.00  0.00    -0.337 N 
HETATM    9  C   UNL     1       3.469  29.453  53.698  1.00  0.00     0.051 A 
ENDROOT
BRANCH   1  10
HETATM   10  C   UNL     1       2.919  31.633  54.790  1.00  0.00     0.253 C 
HETATM   11  N   UNL     1       3.169  32.770  54.011  1.00  0.00    -0.350 N 
HETATM   12  C   UNL     1       2.406  33.970  54.323  1.00  0.00     0.153 C 
HETATM   13  O   UNL     1       2.016  31.570  55.624  1.00  0.00    -0.267 OA
BRANCH  11  14
HETATM   14  C   UNL     1       4.210  32.851  52.966  1.00  0.00     0.158 C 
BRANCH  14  15
HETATM   15  C   UNL     1       3.744  32.743  51.499  1.00  0.00     0.151 A 
HETATM   16  O   UNL     1       2.445  32.093  51.452  1.00  0.00    -0.343 OA
HETATM   17  C   UNL     1       2.645  30.936  50.751  1.00  0.00     0.075 A 
HETATM   18  C   UNL     1       3.933  30.778  50.274  1.00  0.00    -0.022 A 
HETATM   19  C   UNL     1       1.663  29.995  50.518  1.00  0.00     0.037 A 
HETATM   20  C   UNL     1       4.754  31.945  50.649  1.00  0.00     0.075 A 
HETATM   21  C   UNL     1       4.288  29.661  49.537  1.00  0.00     0.010 A 
HETATM   22  C   UNL     1       3.310  28.694  49.290  1.00  0.00     0.001 A 
HETATM   23  C   UNL     1       2.004  28.861  49.777  1.00  0.00     0.003 A 
ENDBRANCH  14  15
ENDBRANCH  11  14
ENDBRANCH   1  10
BRANCH   3  24
HETATM   24  N   UNL     1       7.069  29.236  55.969  1.00  0.00    -0.323 N 
HETATM   25  C   UNL     1       7.371  28.546  57.135  1.00  0.00     0.246 C 
HETATM   26  O   UNL     1       6.666  27.729  57.716  1.00  0.00    -0.271 OA
HETATM   27  H   UNL     1       7.827  29.819  55.645  1.00  0.00     0.169 HD
BRANCH  25  28
HETATM   28  C   UNL     1       8.789  28.862  57.625  1.00  0.00     0.270 C 
BRANCH  28  29
HETATM   29  O   UNL     1       9.734  28.967  56.558  1.00  0.00    -0.387 OA
HETATM   30  C   UNL     1      10.779  29.887  56.870  1.00  0.00     0.202 C 
ENDBRANCH  28  29
ENDBRANCH  25  28
ENDBRANCH   3  24
BRANCH   8  31
HETATM   31  C   UNL     1       7.213  26.360  54.427  1.00  0.00     0.134 C 
BRANCH  31  32
HETATM   32  C   UNL     1       7.777  25.427  53.352  1.00  0.00     0.058 C 
BRANCH  32  33
HETATM   33  C   UNL     1       7.811  23.970  53.749  1.00  0.00    -0.057 A 
HETATM   34  C   UNL     1       7.974  22.945  52.808  1.00  0.00     0.007 A 
HETATM   35  C   UNL     1       7.991  21.607  53.211  1.00  0.00     0.001 A 
HETATM   36  C   UNL     1       7.826  21.276  54.555  1.00  0.00     0.000 A 
HETATM   37  C   UNL     1       7.638  22.283  55.498  1.00  0.00     0.001 A 
HETATM   38  C   UNL     1       7.628  23.620  55.098  1.00  0.00     0.007 A 
ENDBRANCH  32  33
ENDBRANCH  31  32
ENDBRANCH   8  31
TORSDOF 9
ENDMDL
MODEL 10
REMARK VINA RESULT:      -8.9      1.419      2.233
REMARK  9 active torsions:
REMARK  status: ('A' for Active; 'I' for Inactive)
REMARK       I    between atoms: N_2  and  C_3 
REMARK    1  A    between atoms: N_2  and  C_28 
REMARK    2  A    between atoms: C_3  and  C_4 
REMARK    3  A    between atoms: C_6  and  N_7 
REMARK       I    between atoms: N_7  and  C_8 
REMARK    4  A    between atoms: C_8  and  C_9 
REMARK    5  A    between atoms: C_9  and  O_10 
REMARK    6  A    between atoms: N_17  and  C_18 
REMARK    7  A    between atoms: C_18  and  C_19 
REMARK    8  A    between atoms: C_19  and  C_20 
REMARK    9  A    between atoms: C_28  and  C_29 
ROOT
HETATM    1  C   UNL     1       4.194  29.860  54.007  1.00  0.00     0.036 A 
HETATM    2  C   UNL     1       5.485  29.577  54.471  1.00  0.00     0.049 A 
HETATM    3  C   UNL     1       5.922  29.961  55.752  1.00  0.00     0.065 A 
HETATM    4  C   UNL     1       4.998  30.689  56.538  1.00  0.00     0.091 A 
HETATM    5  C   UNL     1       3.697  30.954  56.083  1.00  0.00     0.088 A 
HETATM    6  N   UNL     1       2.966  31.661  57.000  1.00  0.00    -0.242 NA
HETATM    7  C   UNL     1       3.784  31.861  58.001  1.00  0.00     0.210 A 
HETATM    8  N   UNL     1       5.012  31.291  57.782  1.00  0.00    -0.337 N 
HETATM    9  C   UNL     1       3.273  30.507  54.827  1.00  0.00     0.051 A 
ENDROOT
BRANCH   1  10
HETATM   10  C   UNL     1       3.794  29.346  52.676  1.00  0.00     0.253 C 
HETATM   11  N   UNL     1       4.396  28.195  52.153  1.00  0.00    -0.350 N 
HETATM   12  C   UNL     1       4.079  27.846  50.775  1.00  0.00     0.153 C 
HETATM   13  O   UNL     1       2.931  29.990  52.077  1.00  0.00    -0.267 OA
BRANCH  11  14
HETATM   14  C   UNL     1       5.392  27.376  52.874  1.00  0.00     0.158 C 
BRANCH  14  15
HETATM   15  C   UNL     1       5.030  25.900  53.135  1.00  0.00     0.151 A 
HETATM   16  O   UNL     1       5.365  25.555  54.507  1.00  0.00    -0.343 OA
HETATM   17  C   UNL     1       6.324  24.585  54.412  1.00  0.00     0.075 A 
HETATM   18  C   UNL     1       6.620  24.205  53.116  1.00  0.00    -0.022 A 
HETATM   19  C   UNL     1       6.952  24.013  55.499  1.00  0.00     0.037 A 
HETATM   20  C   UNL     1       5.780  24.961  52.167  1.00  0.00     0.075 A 
HETATM   21  C   UNL     1       7.565  23.226  52.860  1.00  0.00     0.010 A 
HETATM   22  C   UNL     1       8.215  22.634  53.945  1.00  0.00     0.001 A 
HETATM   23  C   UNL     1       7.909  23.025  55.258  1.00  0.00     0.003 A 
ENDBRANCH  14  15
ENDBRANCH  11  14
ENDBRANCH   1  10
BRANCH   3  24
HETATM   24  N   UNL     1       7.187  29.604  56.250  1.00  0.00    -0.323 N 
HETATM   25  C   UNL     1       7.585  28.392  56.795  1.00  0.00     0.246 C 
HETATM   26  O   UNL     1       6.943  27.349  56.830  1.00  0.00    -0.271 OA
HETATM   27  H   UNL     1       7.907  30.313  56.289  1.00  0.00     0.169 HD
BRANCH  25  28
HETATM   28  C   UNL     1       9.025  28.456  57.319  1.00  0.00     0.270 C 
BRANCH  28  29
HETATM   29  O   UNL     1       9.543  29.787  57.358  1.00  0.00    -0.387 OA
HETATM   30  C   UNL     1      10.938  29.816  57.062  1.00  0.00     0.202 C 
ENDBRANCH  28  29
ENDBRANCH  25  28
ENDBRANCH   3  24
BRANCH   8  31
HETATM   31  C   UNL     1       6.087  31.393  58.752  1.00  0.00     0.134 C 
BRANCH  31  32
HETATM   32  C   UNL     1       5.974  32.670  59.589  1.00  0.00     0.058 C 
BRANCH  32  33
HETATM   33  C   UNL     1       6.709  32.616  60.908  1.00  0.00    -0.057 A 
HETATM   34  C   UNL     1       6.314  33.381  62.013  1.00  0.00     0.007 A 
HETATM   35  C   UNL     1       7.025  33.313  63.215  1.00  0.00     0.001 A 
HETATM   36  C   UNL     1       8.149  32.496  63.320  1.00  0.00     0.000 A 
HETATM   37  C   UNL     1       8.567  31.748  62.223  1.00  0.00     0.001 A 
HETATM   38  C   UNL     1       7.854  31.810  61.024  1.00  0.00     0.007 A 
ENDBRANCH  32  33
ENDBRANCH  31  32
ENDBRANCH   8  31
TORSDOF 9
ENDMDL
