MODEL 1
REMARK VINA RESULT:      -9.1      0.000      0.000
REMARK  3 active torsions:
REMARK  status: ('A' for Active; 'I' for Inactive)
REMARK    1  A    between atoms: N_3  and  C_4 
REMARK    2  A    between atoms: C_8  and  C_9 
REMARK       I    between atoms: C_9  and  N_10 
REMARK    3  A    between atoms: C_17  and  O_18 
ROOT
HETATM    1  C   UNL     1       7.143  26.964  54.287  1.00  0.00     0.254 C 
HETATM    2  N   UNL     1       7.565  25.696  54.675  1.00  0.00    -0.343 N 
HETATM    3  C   UNL     1       7.903  24.758  53.611  1.00  0.00     0.165 C 
HETATM    4  C   UNL     1       7.869  23.315  54.065  1.00  0.00    -0.031 A 
HETATM    5  C   UNL     1       7.836  22.974  55.432  1.00  0.00    -0.049 A 
HETATM    6  C   UNL     1       7.758  24.048  56.491  1.00  0.00     0.059 C 
HETATM    7  C   UNL     1       8.197  25.412  55.963  1.00  0.00     0.131 C 
HETATM    8  C   UNL     1       7.899  22.295  53.101  1.00  0.00     0.046 A 
HETATM    9  C   UNL     1       7.871  20.962  53.499  1.00  0.00     0.066 A 
HETATM   10  C   UNL     1       7.822  20.620  54.844  1.00  0.00     0.037 A 
HETATM   11  C   UNL     1       7.803  21.624  55.811  1.00  0.00     0.010 A 
HETATM   12  O   UNL     1       7.175  27.356  53.122  1.00  0.00    -0.267 OA
ENDROOT
BRANCH   1  13
HETATM   13  C   UNL     1       6.560  27.873  55.303  1.00  0.00     0.035 A 
HETATM   14  C   UNL     1       7.399  28.767  55.970  1.00  0.00     0.061 A 
HETATM   15  C   UNL     1       6.862  29.686  56.871  1.00  0.00     0.146 A 
HETATM   16  C   UNL     1       5.486  29.736  57.114  1.00  0.00     0.096 A 
HETATM   17  F   UNL     1       7.722  30.509  57.486  1.00  0.00    -0.204 F 
HETATM   18  C   UNL     1       4.646  28.839  56.430  1.00  0.00     0.036 A 
HETATM   19  C   UNL     1       5.179  27.922  55.519  1.00  0.00     0.019 A 
BRANCH  16  20
HETATM   20  N   UNL     1       4.908  30.673  58.012  1.00  0.00    -0.242 N 
HETATM   21  C   UNL     1       5.485  31.760  58.636  1.00  0.00     0.120 A 
HETATM   22  C   UNL     1       4.513  32.365  59.396  1.00  0.00     0.040 A 
HETATM   23  C   UNL     1       3.370  31.586  59.186  1.00  0.00     0.140 A 
HETATM   24  N   UNL     1       3.592  30.567  58.357  1.00  0.00    -0.180 NA
ENDBRANCH  16  20
ENDBRANCH   1  13
BRANCH   9  25
HETATM   25  O   UNL     1       7.883  19.948  52.587  1.00  0.00    -0.361 OA
HETATM   26  H   UNL     1       7.022  19.924  52.138  1.00  0.00     0.217 HD
ENDBRANCH   9  25
TORSDOF 3
ENDMDL
MODEL 2
REMARK VINA RESULT:      -8.8      5.876      8.951
REMARK  3 active torsions:
REMARK  status: ('A' for Active; 'I' for Inactive)
REMARK    1  A    between atoms: N_3  and  C_4 
REMARK    2  A    between atoms: C_8  and  C_9 
REMARK       I    between atoms: C_9  and  N_10 
REMARK    3  A    between atoms: C_17  and  O_18 
ROOT
HETATM    1  C   UNL     1       4.935  27.615  51.284  1.00  0.00     0.254 C 
HETATM    2  N   UNL     1       4.280  27.448  50.068  1.00  0.00    -0.343 N 
HETATM    3  C   UNL     1       3.559  28.600  49.542  1.00  0.00     0.165 C 
HETATM    4  C   UNL     1       2.505  28.222  48.524  1.00  0.00    -0.031 A 
HETATM    5  C   UNL     1       2.475  26.942  47.936  1.00  0.00    -0.049 A 
HETATM    6  C   UNL     1       3.457  25.877  48.362  1.00  0.00     0.059 C 
HETATM    7  C   UNL     1       4.681  26.467  49.060  1.00  0.00     0.131 C 
HETATM    8  C   UNL     1       1.552  29.179  48.139  1.00  0.00     0.046 A 
HETATM    9  C   UNL     1       0.577  28.852  47.204  1.00  0.00     0.066 A 
HETATM   10  C   UNL     1       0.533  27.587  46.632  1.00  0.00     0.037 A 
HETATM   11  C   UNL     1       1.480  26.630  46.998  1.00  0.00     0.010 A 
HETATM   12  O   UNL     1       5.040  28.703  51.846  1.00  0.00    -0.267 OA
ENDROOT
BRANCH   1  13
HETATM   13  C   UNL     1       5.476  26.423  51.981  1.00  0.00     0.035 A 
HETATM   14  C   UNL     1       6.816  26.082  51.792  1.00  0.00     0.061 A 
HETATM   15  C   UNL     1       7.369  25.013  52.499  1.00  0.00     0.146 A 
HETATM   16  C   UNL     1       6.603  24.279  53.409  1.00  0.00     0.096 A 
HETATM   17  F   UNL     1       8.657  24.730  52.264  1.00  0.00    -0.204 F 
HETATM   18  C   UNL     1       5.256  24.638  53.602  1.00  0.00     0.036 A 
HETATM   19  C   UNL     1       4.700  25.713  52.903  1.00  0.00     0.019 A 
BRANCH  16  20
HETATM   20  N   UNL     1       7.143  23.199  54.158  1.00  0.00    -0.242 N 
HETATM   21  C   UNL     1       7.332  23.086  55.519  1.00  0.00     0.120 A 
HETATM   22  C   UNL     1       7.872  21.845  55.760  1.00  0.00     0.040 A 
HETATM   23  C   UNL     1       7.987  21.262  54.493  1.00  0.00     0.140 A 
HETATM   24  N   UNL     1       7.552  22.063  53.521  1.00  0.00    -0.180 NA
ENDBRANCH  16  20
ENDBRANCH   1  13
BRANCH   9  25
HETATM   25  O   UNL     1      -0.372  29.753  46.820  1.00  0.00    -0.361 OA
HETATM   26  H   UNL     1      -0.001  30.647  46.900  1.00  0.00     0.217 HD
ENDBRANCH   9  25
TORSDOF 3
ENDMDL
MODEL 3
REMARK VINA RESULT:      -8.6      3.874      9.155
REMARK  3 active torsions:
REMARK  status: ('A' for Active; 'I' for Inactive)
REMARK    1  A    between atoms: N_3  and  C_4 
REMARK    2  A    between atoms: C_8  and  C_9 
REMARK       I    between atoms: C_9  and  N_10 
REMARK    3  A    between atoms: C_17  and  O_18 
ROOT
HETATM    1  C   UNL     1       8.798  29.923  58.225  1.00  0.00     0.254 C 
HETATM    2  N   UNL     1       8.046  30.830  58.965  1.00  0.00    -0.343 N 
HETATM    3  C   UNL     1       8.726  31.518  60.055  1.00  0.00     0.165 C 
HETATM    4  C   UNL     1       7.770  32.082  61.084  1.00  0.00    -0.031 A 
HETATM    5  C   UNL     1       6.390  32.199  60.820  1.00  0.00    -0.049 A 
HETATM    6  C   UNL     1       5.810  31.692  59.522  1.00  0.00     0.059 C 
HETATM    7  C   UNL     1       6.874  31.530  58.438  1.00  0.00     0.131 C 
HETATM    8  C   UNL     1       8.276  32.523  62.317  1.00  0.00     0.046 A 
HETATM    9  C   UNL     1       7.413  33.046  63.275  1.00  0.00     0.066 A 
HETATM   10  C   UNL     1       6.051  33.149  63.027  1.00  0.00     0.037 A 
HETATM   11  C   UNL     1       5.537  32.725  61.802  1.00  0.00     0.010 A 
HETATM   12  O   UNL     1      10.011  29.785  58.364  1.00  0.00    -0.267 OA
ENDROOT
BRANCH   1  13
HETATM   13  C   UNL     1       8.108  29.024  57.269  1.00  0.00     0.035 A 
HETATM   14  C   UNL     1       8.391  29.140  55.907  1.00  0.00     0.061 A 
HETATM   15  C   UNL     1       7.816  28.253  54.997  1.00  0.00     0.146 A 
HETATM   16  C   UNL     1       6.961  27.234  55.429  1.00  0.00     0.096 A 
HETATM   17  F   UNL     1       8.120  28.425  53.704  1.00  0.00    -0.204 F 
HETATM   18  C   UNL     1       6.689  27.117  56.804  1.00  0.00     0.036 A 
HETATM   19  C   UNL     1       7.271  27.998  57.720  1.00  0.00     0.019 A 
BRANCH  16  20
HETATM   20  N   UNL     1       6.375  26.303  54.528  1.00  0.00    -0.242 N 
HETATM   21  C   UNL     1       5.250  26.436  53.742  1.00  0.00     0.120 A 
HETATM   22  C   UNL     1       5.100  25.267  53.034  1.00  0.00     0.040 A 
HETATM   23  C   UNL     1       6.171  24.469  53.448  1.00  0.00     0.140 A 
HETATM   24  N   UNL     1       6.946  25.078  54.344  1.00  0.00    -0.180 NA
ENDBRANCH  16  20
ENDBRANCH   1  13
BRANCH   9  25
HETATM   25  O   UNL     1       7.870  33.468  64.488  1.00  0.00    -0.361 OA
HETATM   26  H   UNL     1       8.619  34.069  64.345  1.00  0.00     0.217 HD
ENDBRANCH   9  25
TORSDOF 3
ENDMDL
MODEL 4
REMARK VINA RESULT:      -8.6      2.203      2.550
REMARK  3 active torsions:
REMARK  status: ('A' for Active; 'I' for Inactive)
REMARK    1  A    between atoms: N_3  and  C_4 
REMARK    2  A    between atoms: C_8  and  C_9 
REMARK       I    between atoms: C_9  and  N_10 
REMARK    3  A    between atoms: C_17  and  O_18 
ROOT
HETATM    1  C   UNL     1       6.730  25.873  52.970  1.00  0.00     0.254 C 
HETATM    2  N   UNL     1       7.353  25.028  53.884  1.00  0.00    -0.343 N 
HETATM    3  C   UNL     1       7.973  23.821  53.352  1.00  0.00     0.165 C 
HETATM    4  C   UNL     1       8.181  22.753  54.403  1.00  0.00    -0.031 A 
HETATM    5  C   UNL     1       8.081  23.044  55.779  1.00  0.00    -0.049 A 
HETATM    6  C   UNL     1       7.687  24.425  56.245  1.00  0.00     0.059 C 
HETATM    7  C   UNL     1       7.899  25.482  55.163  1.00  0.00     0.131 C 
HETATM    8  C   UNL     1       8.507  21.449  53.997  1.00  0.00     0.046 A 
HETATM    9  C   UNL     1       8.703  20.453  54.948  1.00  0.00     0.066 A 
HETATM   10  C   UNL     1       8.590  20.730  56.304  1.00  0.00     0.037 A 
HETATM   11  C   UNL     1       8.278  22.024  56.721  1.00  0.00     0.010 A 
HETATM   12  O   UNL     1       6.798  25.713  51.754  1.00  0.00    -0.267 OA
ENDROOT
BRANCH   1  13
HETATM   13  C   UNL     1       5.881  26.979  53.474  1.00  0.00     0.035 A 
HETATM   14  C   UNL     1       6.447  27.930  54.325  1.00  0.00     0.061 A 
HETATM   15  C   UNL     1       5.691  29.024  54.747  1.00  0.00     0.146 A 
HETATM   16  C   UNL     1       4.370  29.194  54.321  1.00  0.00     0.096 A 
HETATM   17  F   UNL     1       6.289  29.894  55.572  1.00  0.00    -0.204 F 
HETATM   18  C   UNL     1       3.812  28.237  53.454  1.00  0.00     0.036 A 
HETATM   19  C   UNL     1       4.568  27.144  53.021  1.00  0.00     0.019 A 
BRANCH  16  20
HETATM   20  N   UNL     1       3.582  30.308  54.719  1.00  0.00    -0.242 N 
HETATM   21  C   UNL     1       3.144  30.666  55.977  1.00  0.00     0.120 A 
HETATM   22  C   UNL     1       2.427  31.831  55.848  1.00  0.00     0.040 A 
HETATM   23  C   UNL     1       2.470  32.119  54.479  1.00  0.00     0.140 A 
HETATM   24  N   UNL     1       3.161  31.213  53.789  1.00  0.00    -0.180 NA
ENDBRANCH  16  20
ENDBRANCH   1  13
BRANCH   9  25
HETATM   25  O   UNL     1       9.005  19.174  54.586  1.00  0.00    -0.361 OA
HETATM   26  H   UNL     1       8.190  18.645  54.608  1.00  0.00     0.217 HD
ENDBRANCH   9  25
TORSDOF 3
ENDMDL
MODEL 5
REMARK VINA RESULT:      -8.6      3.158      8.758
REMARK  3 active torsions:
REMARK  status: ('A' for Active; 'I' for Inactive)
REMARK    1  A    between atoms: N_3  and  C_4 
REMARK    2  A    between atoms: C_8  and  C_9 
REMARK       I    between atoms: C_9  and  N_10 
REMARK    3  A    between atoms: C_17  and  O_18 
ROOT
HETATM    1  C   UNL     1       7.290  27.189  57.106  1.00  0.00     0.254 C 
HETATM    2  N   UNL     1       6.592  28.177  56.419  1.00  0.00    -0.343 N 
HETATM    3  C   UNL     1       6.244  29.381  57.164  1.00  0.00     0.165 C 
HETATM    4  C   UNL     1       5.105  30.155  56.535  1.00  0.00    -0.031 A 
HETATM    5  C   UNL     1       4.678  29.896  55.217  1.00  0.00    -0.049 A 
HETATM    6  C   UNL     1       5.300  28.779  54.413  1.00  0.00     0.059 C 
HETATM    7  C   UNL     1       6.658  28.355  54.969  1.00  0.00     0.131 C 
HETATM    8  C   UNL     1       4.480  31.171  57.274  1.00  0.00     0.046 A 
HETATM    9  C   UNL     1       3.433  31.895  56.713  1.00  0.00     0.066 A 
HETATM   10  C   UNL     1       2.998  31.634  55.421  1.00  0.00     0.037 A 
HETATM   11  C   UNL     1       3.617  30.634  54.672  1.00  0.00     0.010 A 
HETATM   12  O   UNL     1       7.731  27.346  58.243  1.00  0.00    -0.267 OA
ENDROOT
BRANCH   1  13
HETATM   13  C   UNL     1       7.458  25.856  56.480  1.00  0.00     0.035 A 
HETATM   14  C   UNL     1       6.586  25.475  55.459  1.00  0.00     0.061 A 
HETATM   15  C   UNL     1       6.774  24.260  54.800  1.00  0.00     0.146 A 
HETATM   16  C   UNL     1       7.834  23.414  55.139  1.00  0.00     0.096 A 
HETATM   17  F   UNL     1       5.896  23.948  53.837  1.00  0.00    -0.204 F 
HETATM   18  C   UNL     1       8.716  23.811  56.161  1.00  0.00     0.036 A 
HETATM   19  C   UNL     1       8.537  25.032  56.818  1.00  0.00     0.019 A 
BRANCH  16  20
HETATM   20  N   UNL     1       8.063  22.179  54.472  1.00  0.00    -0.242 N 
HETATM   21  C   UNL     1       7.982  21.883  53.128  1.00  0.00     0.120 A 
HETATM   22  C   UNL     1       8.308  20.556  52.978  1.00  0.00     0.040 A 
HETATM   23  C   UNL     1       8.571  20.111  54.278  1.00  0.00     0.140 A 
HETATM   24  N   UNL     1       8.429  21.076  55.186  1.00  0.00    -0.180 NA
ENDBRANCH  16  20
ENDBRANCH   1  13
BRANCH   9  25
HETATM   25  O   UNL     1       2.795  32.878  57.410  1.00  0.00    -0.361 OA
HETATM   26  H   UNL     1       3.253  33.720  57.250  1.00  0.00     0.217 HD
ENDBRANCH   9  25
TORSDOF 3
ENDMDL
MODEL 6
REMARK VINA RESULT:      -8.2      5.208      6.579
REMARK  3 active torsions:
REMARK  status: ('A' for Active; 'I' for Inactive)
REMARK    1  A    between atoms: N_3  and  C_4 
REMARK    2  A    between atoms: C_8  and  C_9 
REMARK       I    between atoms: C_9  and  N_10 
REMARK    3  A    between atoms: C_17  and  O_18 
ROOT
HETATM    1  C   UNL     1       4.581  27.724  53.831  1.00  0.00     0.254 C 
HETATM    2  N   UNL     1       5.099  26.441  53.982  1.00  0.00    -0.343 N 
HETATM    3  C   UNL     1       5.436  26.021  55.337  1.00  0.00     0.165 C 
HETATM    4  C   UNL     1       6.414  24.866  55.369  1.00  0.00    -0.031 A 
HETATM    5  C   UNL     1       6.688  24.101  54.218  1.00  0.00    -0.049 A 
HETATM    6  C   UNL     1       6.066  24.461  52.890  1.00  0.00     0.059 C 
HETATM    7  C   UNL     1       4.831  25.345  53.052  1.00  0.00     0.131 C 
HETATM    8  C   UNL     1       7.040  24.536  56.582  1.00  0.00     0.046 A 
HETATM    9  C   UNL     1       7.941  23.477  56.632  1.00  0.00     0.066 A 
HETATM   10  C   UNL     1       8.227  22.729  55.498  1.00  0.00     0.037 A 
HETATM   11  C   UNL     1       7.604  23.041  54.290  1.00  0.00     0.010 A 
HETATM   12  O   UNL     1       4.279  28.443  54.781  1.00  0.00    -0.267 OA
ENDROOT
BRANCH   1  13
HETATM   13  C   UNL     1       4.448  28.291  52.467  1.00  0.00     0.035 A 
HETATM   14  C   UNL     1       3.180  28.650  52.007  1.00  0.00     0.061 A 
HETATM   15  C   UNL     1       3.038  29.260  50.760  1.00  0.00     0.146 A 
HETATM   16  C   UNL     1       4.153  29.530  49.960  1.00  0.00     0.096 A 
HETATM   17  F   UNL     1       1.794  29.569  50.372  1.00  0.00    -0.204 F 
HETATM   18  C   UNL     1       5.428  29.175  50.437  1.00  0.00     0.036 A 
HETATM   19  C   UNL     1       5.576  28.572  51.690  1.00  0.00     0.019 A 
BRANCH  16  20
HETATM   20  N   UNL     1       4.042  30.167  48.695  1.00  0.00    -0.242 N 
HETATM   21  C   UNL     1       3.746  29.621  47.463  1.00  0.00     0.120 A 
HETATM   22  C   UNL     1       3.742  30.646  46.547  1.00  0.00     0.040 A 
HETATM   23  C   UNL     1       4.050  31.786  47.297  1.00  0.00     0.140 A 
HETATM   24  N   UNL     1       4.232  31.514  48.589  1.00  0.00    -0.180 NA
ENDBRANCH  16  20
ENDBRANCH   1  13
BRANCH   9  25
HETATM   25  O   UNL     1       8.577  23.140  57.790  1.00  0.00    -0.361 OA
HETATM   26  H   UNL     1       7.938  23.186  58.520  1.00  0.00     0.217 HD
ENDBRANCH   9  25
TORSDOF 3
ENDMDL
MODEL 7
REMARK VINA RESULT:      -8.2      5.221      6.499
REMARK  3 active torsions:
REMARK  status: ('A' for Active; 'I' for Inactive)
REMARK    1  A    between atoms: N_3  and  C_4 
REMARK    2  A    between atoms: C_8  and  C_9 
REMARK       I    between atoms: C_9  and  N_10 
REMARK    3  A    between atoms: C_17  and  O_18 
ROOT
HETATM    1  C   UNL     1       4.511  27.873  53.765  1.00  0.00     0.254 C 
HETATM    2  N   UNL     1       4.999  26.570  53.786  1.00  0.00    -0.343 N 
HETATM    3  C   UNL     1       5.416  26.042  55.079  1.00  0.00     0.165 C 
HETATM    4  C   UNL     1       6.359  24.864  54.959  1.00  0.00    -0.031 A 
HETATM    5  C   UNL     1       6.532  24.181  53.739  1.00  0.00    -0.049 A 
HETATM    6  C   UNL     1       5.831  24.654  52.487  1.00  0.00     0.059 C 
HETATM    7  C   UNL     1       4.637  25.554  52.800  1.00  0.00     0.131 C 
HETATM    8  C   UNL     1       7.056  24.429  56.097  1.00  0.00     0.046 A 
HETATM    9  C   UNL     1       7.927  23.347  56.007  1.00  0.00     0.066 A 
HETATM   10  C   UNL     1       8.113  22.680  54.804  1.00  0.00     0.037 A 
HETATM   11  C   UNL     1       7.418  23.096  53.668  1.00  0.00     0.010 A 
HETATM   12  O   UNL     1       4.296  28.526  54.784  1.00  0.00    -0.267 OA
ENDROOT
BRANCH   1  13
HETATM   13  C   UNL     1       4.302  28.544  52.460  1.00  0.00     0.035 A 
HETATM   14  C   UNL     1       5.410  28.822  51.659  1.00  0.00     0.061 A 
HETATM   15  C   UNL     1       5.232  29.380  50.392  1.00  0.00     0.146 A 
HETATM   16  C   UNL     1       3.952  29.657  49.902  1.00  0.00     0.096 A 
HETATM   17  F   UNL     1       6.337  29.633  49.678  1.00  0.00    -0.204 F 
HETATM   18  C   UNL     1       2.840  29.362  50.711  1.00  0.00     0.036 A 
HETATM   19  C   UNL     1       3.013  28.796  51.977  1.00  0.00     0.019 A 
BRANCH  16  20
HETATM   20  N   UNL     1       3.738  30.206  48.609  1.00  0.00    -0.242 N 
HETATM   21  C   UNL     1       3.343  29.578  47.445  1.00  0.00     0.120 A 
HETATM   22  C   UNL     1       3.263  30.538  46.465  1.00  0.00     0.040 A 
HETATM   23  C   UNL     1       3.628  31.726  47.108  1.00  0.00     0.140 A 
HETATM   24  N   UNL     1       3.916  31.542  48.396  1.00  0.00    -0.180 NA
ENDBRANCH  16  20
ENDBRANCH   1  13
BRANCH   9  25
HETATM   25  O   UNL     1       8.631  22.909  57.090  1.00  0.00    -0.361 OA
HETATM   26  H   UNL     1       8.492  23.532  57.822  1.00  0.00     0.217 HD
ENDBRANCH   9  25
TORSDOF 3
ENDMDL
MODEL 8
REMARK VINA RESULT:      -8.1      4.006      5.693
REMARK  3 active torsions:
REMARK  status: ('A' for Active; 'I' for Inactive)
REMARK    1  A    between atoms: N_3  and  C_4 
REMARK    2  A    between atoms: C_8  and  C_9 
REMARK       I    between atoms: C_9  and  N_10 
REMARK    3  A    between atoms: C_17  and  O_18 
ROOT
HETATM    1  C   UNL     1       6.672  26.172  53.551  1.00  0.00     0.254 C 
HETATM    2  N   UNL     1       5.663  26.624  52.706  1.00  0.00    -0.343 N 
HETATM    3  C   UNL     1       5.398  25.833  51.511  1.00  0.00     0.165 C 
HETATM    4  C   UNL     1       4.675  26.614  50.435  1.00  0.00    -0.031 A 
HETATM    5  C   UNL     1       4.056  27.850  50.712  1.00  0.00    -0.049 A 
HETATM    6  C   UNL     1       4.161  28.471  52.085  1.00  0.00     0.059 C 
HETATM    7  C   UNL     1       4.541  27.448  53.154  1.00  0.00     0.131 C 
HETATM    8  C   UNL     1       4.597  26.080  49.139  1.00  0.00     0.046 A 
HETATM    9  C   UNL     1       3.935  26.782  48.137  1.00  0.00     0.066 A 
HETATM   10  C   UNL     1       3.337  28.007  48.400  1.00  0.00     0.037 A 
HETATM   11  C   UNL     1       3.398  28.543  49.686  1.00  0.00     0.010 A 
HETATM   12  O   UNL     1       7.236  25.090  53.404  1.00  0.00    -0.267 OA
ENDROOT
BRANCH   1  13
HETATM   13  C   UNL     1       7.147  27.055  54.644  1.00  0.00     0.035 A 
HETATM   14  C   UNL     1       7.137  26.572  55.953  1.00  0.00     0.061 A 
HETATM   15  C   UNL     1       7.654  27.353  56.988  1.00  0.00     0.146 A 
HETATM   16  C   UNL     1       8.196  28.617  56.733  1.00  0.00     0.096 A 
HETATM   17  F   UNL     1       7.605  26.838  58.223  1.00  0.00    -0.204 F 
HETATM   18  C   UNL     1       8.212  29.091  55.408  1.00  0.00     0.036 A 
HETATM   19  C   UNL     1       7.704  28.308  54.368  1.00  0.00     0.019 A 
BRANCH  16  20
HETATM   20  N   UNL     1       8.747  29.427  57.762  1.00  0.00    -0.242 N 
HETATM   21  C   UNL     1       9.922  30.150  57.772  1.00  0.00     0.120 A 
HETATM   22  C   UNL     1      10.007  30.782  58.990  1.00  0.00     0.040 A 
HETATM   23  C   UNL     1       8.848  30.391  59.669  1.00  0.00     0.140 A 
HETATM   24  N   UNL     1       8.081  29.579  58.943  1.00  0.00    -0.180 NA
ENDBRANCH  16  20
ENDBRANCH   1  13
BRANCH   9  25
HETATM   25  O   UNL     1       3.856  26.299  46.864  1.00  0.00    -0.361 OA
HETATM   26  H   UNL     1       3.069  26.675  46.438  1.00  0.00     0.217 HD
ENDBRANCH   9  25
TORSDOF 3
ENDMDL
MODEL 9
REMARK VINA RESULT:      -8.1      2.860      8.574
REMARK  3 active torsions:
REMARK  status: ('A' for Active; 'I' for Inactive)
REMARK    1  A    between atoms: N_3  and  C_4 
REMARK    2  A    between atoms: C_8  and  C_9 
REMARK       I    between atoms: C_9  and  N_10 
REMARK    3  A    between atoms: C_17  and  O_18 
ROOT
HETATM    1  C   UNL     1       5.093  27.979  53.606  1.00  0.00     0.254 C 
HETATM    2  N   UNL     1       4.930  28.692  54.790  1.00  0.00    -0.343 N 
HETATM    3  C   UNL     1       4.546  30.093  54.671  1.00  0.00     0.165 C 
HETATM    4  C   UNL     1       4.864  30.899  55.911  1.00  0.00    -0.031 A 
HETATM    5  C   UNL     1       5.186  30.275  57.133  1.00  0.00    -0.049 A 
HETATM    6  C   UNL     1       5.298  28.772  57.221  1.00  0.00     0.059 C 
HETATM    7  C   UNL     1       4.583  28.071  56.068  1.00  0.00     0.131 C 
HETATM    8  C   UNL     1       4.808  32.301  55.847  1.00  0.00     0.046 A 
HETATM    9  C   UNL     1       5.095  33.060  56.977  1.00  0.00     0.066 A 
HETATM   10  C   UNL     1       5.429  32.451  58.180  1.00  0.00     0.037 A 
HETATM   11  C   UNL     1       5.477  31.059  58.259  1.00  0.00     0.010 A 
HETATM   12  O   UNL     1       4.800  28.434  52.503  1.00  0.00    -0.267 OA
ENDROOT
BRANCH   1  13
HETATM   13  C   UNL     1       5.712  26.633  53.654  1.00  0.00     0.035 A 
HETATM   14  C   UNL     1       6.829  26.432  54.467  1.00  0.00     0.061 A 
HETATM   15  C   UNL     1       7.381  25.157  54.590  1.00  0.00     0.146 A 
HETATM   16  C   UNL     1       6.825  24.064  53.918  1.00  0.00     0.096 A 
HETATM   17  F   UNL     1       8.459  25.033  55.376  1.00  0.00    -0.204 F 
HETATM   18  C   UNL     1       5.692  24.273  53.111  1.00  0.00     0.036 A 
HETATM   19  C   UNL     1       5.131  25.548  52.991  1.00  0.00     0.019 A 
BRANCH  16  20
HETATM   20  N   UNL     1       7.352  22.750  54.040  1.00  0.00    -0.242 N 
HETATM   21  C   UNL     1       7.858  21.916  53.064  1.00  0.00     0.120 A 
HETATM   22  C   UNL     1       8.257  20.755  53.681  1.00  0.00     0.040 A 
HETATM   23  C   UNL     1       7.959  20.955  55.033  1.00  0.00     0.140 A 
HETATM   24  N   UNL     1       7.415  22.150  55.263  1.00  0.00    -0.180 NA
ENDBRANCH  16  20
ENDBRANCH   1  13
BRANCH   9  25
HETATM   25  O   UNL     1       5.066  34.423  56.944  1.00  0.00    -0.361 OA
HETATM   26  H   UNL     1       5.840  34.738  56.449  1.00  0.00     0.217 HD
ENDBRANCH   9  25
TORSDOF 3
ENDMDL
MODEL 10
REMARK VINA RESULT:      -8.0      3.885      4.752
REMARK  3 active torsions:
REMARK  status: ('A' for Active; 'I' for Inactive)
REMARK    1  A    between atoms: N_3  and  C_4 
REMARK    2  A    between atoms: C_8  and  C_9 
REMARK       I    between atoms: C_9  and  N_10 
REMARK    3  A    between atoms: C_17  and  O_18 
ROOT
HETATM    1  C   UNL     1       5.383  26.974  55.048  1.00  0.00     0.254 C 
HETATM    2  N   UNL     1       5.754  25.721  54.571  1.00  0.00    -0.343 N 
HETATM    3  C   UNL     1       6.343  24.796  55.531  1.00  0.00     0.165 C 
HETATM    4  C   UNL     1       7.146  23.695  54.873  1.00  0.00    -0.031 A 
HETATM    5  C   UNL     1       7.041  23.433  53.492  1.00  0.00    -0.049 A 
HETATM    6  C   UNL     1       6.175  24.298  52.609  1.00  0.00     0.059 C 
HETATM    7  C   UNL     1       5.137  25.083  53.409  1.00  0.00     0.131 C 
HETATM    8  C   UNL     1       7.992  22.900  55.662  1.00  0.00     0.046 A 
HETATM    9  C   UNL     1       8.736  21.882  55.076  1.00  0.00     0.066 A 
HETATM   10  C   UNL     1       8.649  21.629  53.713  1.00  0.00     0.037 A 
HETATM   11  C   UNL     1       7.804  22.404  52.920  1.00  0.00     0.010 A 
HETATM   12  O   UNL     1       5.408  27.273  56.240  1.00  0.00    -0.267 OA
ENDROOT
BRANCH   1  13
HETATM   13  C   UNL     1       5.006  28.032  54.080  1.00  0.00     0.035 A 
HETATM   14  C   UNL     1       4.059  28.985  54.457  1.00  0.00     0.061 A 
HETATM   15  C   UNL     1       3.747  30.036  53.595  1.00  0.00     0.146 A 
HETATM   16  C   UNL     1       4.379  30.160  52.354  1.00  0.00     0.096 A 
HETATM   17  F   UNL     1       2.821  30.911  54.011  1.00  0.00    -0.204 F 
HETATM   18  C   UNL     1       5.341  29.202  51.986  1.00  0.00     0.036 A 
HETATM   19  C   UNL     1       5.663  28.152  52.851  1.00  0.00     0.019 A 
BRANCH  16  20
HETATM   20  N   UNL     1       4.096  31.231  51.462  1.00  0.00    -0.242 N 
HETATM   21  C   UNL     1       3.334  31.234  50.313  1.00  0.00     0.120 A 
HETATM   22  C   UNL     1       3.351  32.513  49.809  1.00  0.00     0.040 A 
HETATM   23  C   UNL     1       4.150  33.231  50.706  1.00  0.00     0.140 A 
HETATM   24  N   UNL     1       4.603  32.474  51.704  1.00  0.00    -0.180 NA
ENDBRANCH  16  20
ENDBRANCH   1  13
BRANCH   9  25
HETATM   25  O   UNL     1       9.579  21.103  55.812  1.00  0.00    -0.361 OA
HETATM   26  H   UNL     1       9.315  20.174  55.706  1.00  0.00     0.217 HD
ENDBRANCH   9  25
TORSDOF 3
ENDMDL
