MODEL 1
REMARK VINA RESULT:     -11.2      0.000      0.000
REMARK  7 active torsions:
REMARK  status: ('A' for Active; 'I' for Inactive)
REMARK    1  A    between atoms: C_4  and  C_5 
REMARK    2  A    between atoms: C_5  and  N_6 
REMARK    3  A    between atoms: N_10  and  N_11 
REMARK       I    between atoms: N_11  and  C_12 
REMARK    4  A    between atoms: C_12  and  C_13 
REMARK    5  A    between atoms: C_13  and  N_14 
REMARK       I    between atoms: N_14  and  C_15 
REMARK    6  A    between atoms: C_15  and  C_16 
REMARK    7  A    between atoms: C_17  and  O_18 
ROOT
HETATM    1  N   UNL     1       6.885  25.105  55.580  1.00  0.00    -0.307 N 
HETATM    2  C   UNL     1       7.661  26.136  56.079  1.00  0.00     0.280 A 
HETATM    3  O   UNL     1       8.429  26.159  57.018  1.00  0.00    -0.265 OA
HETATM    4  C   UNL     1       7.373  27.337  55.184  1.00  0.00     0.157 A 
HETATM    5  N   UNL     1       7.827  28.546  55.267  1.00  0.00    -0.166 NA
HETATM    6  C   UNL     1       6.430  26.872  54.176  1.00  0.00     0.027 A 
HETATM    7  C   UNL     1       6.160  25.533  54.454  1.00  0.00     0.050 A 
HETATM    8  C   UNL     1       5.844  27.560  53.129  1.00  0.00     0.016 A 
HETATM    9  C   UNL     1       4.947  26.853  52.330  1.00  0.00     0.001 A 
HETATM   10  C   UNL     1       4.663  25.499  52.596  1.00  0.00     0.002 A 
HETATM   11  C   UNL     1       5.270  24.827  53.666  1.00  0.00     0.031 A 
ENDROOT
BRANCH   5  12
HETATM   12  N   UNL     1       8.669  28.847  56.299  1.00  0.00    -0.245 N 
HETATM   13  C   UNL     1       9.870  29.486  56.019  1.00  0.00     0.255 C 
HETATM   14  O   UNL     1      10.290  29.743  54.891  1.00  0.00    -0.270 OA
HETATM   15  H   UNL     1       8.391  28.652  57.269  1.00  0.00     0.192 HD
BRANCH  13  16
HETATM   16  C   UNL     1      10.671  29.861  57.260  1.00  0.00     0.227 C 
BRANCH  16  17
HETATM   17  N   UNL     1       9.798  30.112  58.393  1.00  0.00    -0.348 N 
HETATM   18  C   UNL     1       9.662  31.370  58.929  1.00  0.00     0.254 C 
HETATM   19  O   UNL     1      10.226  32.353  58.467  1.00  0.00    -0.268 OA
HETATM   20  H   UNL     1       9.379  29.312  58.860  1.00  0.00     0.163 HD
BRANCH  18  21
HETATM   21  C   UNL     1       8.801  31.474  60.131  1.00  0.00     0.065 A 
HETATM   22  C   UNL     1       7.498  31.985  60.091  1.00  0.00     0.081 A 
HETATM   23  C   UNL     1       6.708  31.984  61.239  1.00  0.00     0.037 A 
HETATM   24  C   UNL     1       7.226  31.500  62.441  1.00  0.00     0.003 A 
HETATM   25  C   UNL     1       8.535  31.021  62.498  1.00  0.00     0.001 A 
HETATM   26  C   UNL     1       9.323  31.010  61.346  1.00  0.00     0.020 A 
BRANCH  22  27
HETATM   27  O   UNL     1       6.933  32.521  58.966  1.00  0.00    -0.360 OA
HETATM   28  H   UNL     1       6.945  33.494  59.043  1.00  0.00     0.217 HD
ENDBRANCH  22  27
ENDBRANCH  18  21
ENDBRANCH  16  17
ENDBRANCH  13  16
ENDBRANCH   5  12
BRANCH   1  29
HETATM   29  C   UNL     1       6.876  23.768  56.126  1.00  0.00     0.171 C 
BRANCH  29  30
HETATM   30  C   UNL     1       7.530  22.757  55.213  1.00  0.00    -0.040 A 
HETATM   31  C   UNL     1       8.131  23.168  54.014  1.00  0.00     0.009 A 
HETATM   32  C   UNL     1       8.735  22.237  53.167  1.00  0.00     0.001 A 
HETATM   33  C   UNL     1       8.746  20.886  53.509  1.00  0.00     0.000 A 
HETATM   34  C   UNL     1       8.158  20.465  54.699  1.00  0.00     0.001 A 
HETATM   35  C   UNL     1       7.555  21.396  55.549  1.00  0.00     0.009 A 
ENDBRANCH  29  30
ENDBRANCH   1  29
TORSDOF 7
ENDMDL
MODEL 2
REMARK VINA RESULT:     -10.7      1.582      1.925
REMARK  7 active torsions:
REMARK  status: ('A' for Active; 'I' for Inactive)
REMARK    1  A    between atoms: C_4  and  C_5 
REMARK    2  A    between atoms: C_5  and  N_6 
REMARK    3  A    between atoms: N_10  and  N_11 
REMARK       I    between atoms: N_11  and  C_12 
REMARK    4  A    between atoms: C_12  and  C_13 
REMARK    5  A    between atoms: C_13  and  N_14 
REMARK       I    between atoms: N_14  and  C_15 
REMARK    6  A    between atoms: C_15  and  C_16 
REMARK    7  A    between atoms: C_17  and  O_18 
ROOT
HETATM    1  N   UNL     1       6.600  25.788  55.367  1.00  0.00    -0.307 N 
HETATM    2  C   UNL     1       7.338  26.714  56.082  1.00  0.00     0.280 A 
HETATM    3  O   UNL     1       7.957  26.593  57.119  1.00  0.00    -0.265 OA
HETATM    4  C   UNL     1       7.244  28.014  55.292  1.00  0.00     0.157 A 
HETATM    5  N   UNL     1       7.735  29.179  55.572  1.00  0.00    -0.166 NA
HETATM    6  C   UNL     1       6.443  27.713  54.113  1.00  0.00     0.027 A 
HETATM    7  C   UNL     1       6.072  26.372  54.202  1.00  0.00     0.050 A 
HETATM    8  C   UNL     1       6.052  28.538  53.075  1.00  0.00     0.016 A 
HETATM    9  C   UNL     1       5.254  27.972  52.082  1.00  0.00     0.001 A 
HETATM   10  C   UNL     1       4.871  26.619  52.154  1.00  0.00     0.002 A 
HETATM   11  C   UNL     1       5.280  25.805  53.221  1.00  0.00     0.031 A 
ENDROOT
BRANCH   5  12
HETATM   12  N   UNL     1       8.425  29.321  56.742  1.00  0.00    -0.245 N 
HETATM   13  C   UNL     1       7.838  30.028  57.783  1.00  0.00     0.255 C 
HETATM   14  O   UNL     1       6.758  30.616  57.720  1.00  0.00    -0.270 OA
HETATM   15  H   UNL     1       9.338  28.866  56.864  1.00  0.00     0.192 HD
BRANCH  13  16
HETATM   16  C   UNL     1       8.659  30.027  59.067  1.00  0.00     0.227 C 
BRANCH  16  17
HETATM   17  N   UNL     1       7.920  30.625  60.163  1.00  0.00    -0.348 N 
HETATM   18  C   UNL     1       8.341  31.787  60.763  1.00  0.00     0.254 C 
HETATM   19  O   UNL     1       9.328  32.408  60.390  1.00  0.00    -0.268 OA
HETATM   20  H   UNL     1       7.145  30.099  60.561  1.00  0.00     0.163 HD
BRANCH  18  21
HETATM   21  C   UNL     1       7.540  32.247  61.922  1.00  0.00     0.065 A 
HETATM   22  C   UNL     1       6.139  32.255  61.923  1.00  0.00     0.081 A 
HETATM   23  C   UNL     1       5.439  32.623  63.071  1.00  0.00     0.037 A 
HETATM   24  C   UNL     1       6.135  33.015  64.215  1.00  0.00     0.003 A 
HETATM   25  C   UNL     1       7.530  33.044  64.212  1.00  0.00     0.001 A 
HETATM   26  C   UNL     1       8.232  32.664  63.067  1.00  0.00     0.020 A 
BRANCH  22  27
HETATM   27  O   UNL     1       5.383  31.930  60.830  1.00  0.00    -0.360 OA
HETATM   28  H   UNL     1       5.828  32.267  60.030  1.00  0.00     0.217 HD
ENDBRANCH  22  27
ENDBRANCH  18  21
ENDBRANCH  16  17
ENDBRANCH  13  16
ENDBRANCH   5  12
BRANCH   1  29
HETATM   29  C   UNL     1       6.448  24.406  55.755  1.00  0.00     0.171 C 
BRANCH  29  30
HETATM   30  C   UNL     1       7.407  23.485  55.037  1.00  0.00    -0.040 A 
HETATM   31  C   UNL     1       7.134  23.056  53.729  1.00  0.00     0.009 A 
HETATM   32  C   UNL     1       8.016  22.204  53.062  1.00  0.00     0.001 A 
HETATM   33  C   UNL     1       9.179  21.770  53.695  1.00  0.00     0.000 A 
HETATM   34  C   UNL     1       9.464  22.191  54.992  1.00  0.00     0.001 A 
HETATM   35  C   UNL     1       8.585  23.046  55.659  1.00  0.00     0.009 A 
ENDBRANCH  29  30
ENDBRANCH   1  29
TORSDOF 7
ENDMDL
MODEL 3
REMARK VINA RESULT:     -10.5      3.028      7.946
REMARK  7 active torsions:
REMARK  status: ('A' for Active; 'I' for Inactive)
REMARK    1  A    between atoms: C_4  and  C_5 
REMARK    2  A    between atoms: C_5  and  N_6 
REMARK    3  A    between atoms: N_10  and  N_11 
REMARK       I    between atoms: N_11  and  C_12 
REMARK    4  A    between atoms: C_12  and  C_13 
REMARK    5  A    between atoms: C_13  and  N_14 
REMARK       I    between atoms: N_14  and  C_15 
REMARK    6  A    between atoms: C_15  and  C_16 
REMARK    7  A    between atoms: C_17  and  O_18 
ROOT
HETATM    1  N   UNL     1       5.878  28.704  56.483  1.00  0.00    -0.307 N 
HETATM    2  C   UNL     1       5.409  27.799  55.548  1.00  0.00     0.280 A 
HETATM    3  O   UNL     1       5.641  26.616  55.414  1.00  0.00    -0.265 OA
HETATM    4  C   UNL     1       4.474  28.592  54.642  1.00  0.00     0.157 A 
HETATM    5  N   UNL     1       3.819  28.199  53.596  1.00  0.00    -0.166 NA
HETATM    6  C   UNL     1       4.456  29.950  55.168  1.00  0.00     0.027 A 
HETATM    7  C   UNL     1       5.317  29.975  56.265  1.00  0.00     0.050 A 
HETATM    8  C   UNL     1       3.775  31.065  54.717  1.00  0.00     0.016 A 
HETATM    9  C   UNL     1       3.975  32.255  55.415  1.00  0.00     0.001 A 
HETATM   10  C   UNL     1       4.838  32.298  56.527  1.00  0.00     0.002 A 
HETATM   11  C   UNL     1       5.520  31.152  56.961  1.00  0.00     0.031 A 
ENDROOT
BRANCH   5  12
HETATM   12  N   UNL     1       3.973  26.903  53.192  1.00  0.00    -0.245 N 
HETATM   13  C   UNL     1       4.912  26.616  52.209  1.00  0.00     0.255 C 
HETATM   14  O   UNL     1       5.580  27.452  51.601  1.00  0.00    -0.270 OA
HETATM   15  H   UNL     1       3.441  26.151  53.646  1.00  0.00     0.192 HD
BRANCH  13  16
HETATM   16  C   UNL     1       5.064  25.128  51.920  1.00  0.00     0.227 C 
BRANCH  16  17
HETATM   17  N   UNL     1       5.742  24.448  53.008  1.00  0.00    -0.348 N 
HETATM   18  C   UNL     1       7.084  24.157  52.947  1.00  0.00     0.254 C 
HETATM   19  O   UNL     1       7.792  24.485  52.004  1.00  0.00    -0.268 OA
HETATM   20  H   UNL     1       5.177  24.082  53.770  1.00  0.00     0.163 HD
BRANCH  18  21
HETATM   21  C   UNL     1       7.635  23.391  54.090  1.00  0.00     0.065 A 
HETATM   22  C   UNL     1       8.022  23.994  55.293  1.00  0.00     0.081 A 
HETATM   23  C   UNL     1       8.459  23.212  56.361  1.00  0.00     0.037 A 
HETATM   24  C   UNL     1       8.541  21.826  56.223  1.00  0.00     0.003 A 
HETATM   25  C   UNL     1       8.189  21.220  55.016  1.00  0.00     0.001 A 
HETATM   26  C   UNL     1       7.740  22.001  53.950  1.00  0.00     0.020 A 
BRANCH  22  27
HETATM   27  O   UNL     1       8.018  25.347  55.494  1.00  0.00    -0.360 OA
HETATM   28  H   UNL     1       7.229  25.725  55.061  1.00  0.00     0.217 HD
ENDBRANCH  22  27
ENDBRANCH  18  21
ENDBRANCH  16  17
ENDBRANCH  13  16
ENDBRANCH   5  12
BRANCH   1  29
HETATM   29  C   UNL     1       6.782  28.358  57.555  1.00  0.00     0.171 C 
BRANCH  29  30
HETATM   30  C   UNL     1       8.111  29.071  57.456  1.00  0.00    -0.040 A 
HETATM   31  C   UNL     1       8.877  28.984  56.283  1.00  0.00     0.009 A 
HETATM   32  C   UNL     1      10.106  29.639  56.188  1.00  0.00     0.001 A 
HETATM   33  C   UNL     1      10.583  30.387  57.262  1.00  0.00     0.000 A 
HETATM   34  C   UNL     1       9.830  30.486  58.430  1.00  0.00     0.001 A 
HETATM   35  C   UNL     1       8.599  29.834  58.526  1.00  0.00     0.009 A 
ENDBRANCH  29  30
ENDBRANCH   1  29
TORSDOF 7
ENDMDL
MODEL 4
REMARK VINA RESULT:     -10.4      1.950      4.263
REMARK  7 active torsions:
REMARK  status: ('A' for Active; 'I' for Inactive)
REMARK    1  A    between atoms: C_4  and  C_5 
REMARK    2  A    between atoms: C_5  and  N_6 
REMARK    3  A    between atoms: N_10  and  N_11 
REMARK       I    between atoms: N_11  and  C_12 
REMARK    4  A    between atoms: C_12  and  C_13 
REMARK    5  A    between atoms: C_13  and  N_14 
REMARK       I    between atoms: N_14  and  C_15 
REMARK    6  A    between atoms: C_15  and  C_16 
REMARK    7  A    between atoms: C_17  and  O_18 
ROOT
HETATM    1  N   UNL     1       5.803  25.079  54.001  1.00  0.00    -0.307 N 
HETATM    2  C   UNL     1       5.830  26.038  54.997  1.00  0.00     0.280 A 
HETATM    3  O   UNL     1       5.078  26.965  55.217  1.00  0.00    -0.265 OA
HETATM    4  C   UNL     1       7.056  25.716  55.845  1.00  0.00     0.157 A 
HETATM    5  N   UNL     1       7.530  26.346  56.871  1.00  0.00    -0.166 NA
HETATM    6  C   UNL     1       7.650  24.523  55.257  1.00  0.00     0.027 A 
HETATM    7  C   UNL     1       6.873  24.180  54.152  1.00  0.00     0.050 A 
HETATM    8  C   UNL     1       8.778  23.818  55.636  1.00  0.00     0.016 A 
HETATM    9  C   UNL     1       9.127  22.715  54.858  1.00  0.00     0.001 A 
HETATM   10  C   UNL     1       8.352  22.353  53.739  1.00  0.00     0.002 A 
HETATM   11  C   UNL     1       7.214  23.088  53.376  1.00  0.00     0.031 A 
ENDROOT
BRANCH   5  12
HETATM   12  N   UNL     1       6.890  27.482  57.279  1.00  0.00    -0.245 N 
HETATM   13  C   UNL     1       7.528  28.704  57.114  1.00  0.00     0.255 C 
HETATM   14  O   UNL     1       8.675  28.855  56.694  1.00  0.00    -0.270 OA
HETATM   15  H   UNL     1       5.934  27.433  57.651  1.00  0.00     0.192 HD
BRANCH  13  16
HETATM   16  C   UNL     1       6.672  29.902  57.510  1.00  0.00     0.227 C 
BRANCH  16  17
HETATM   17  N   UNL     1       6.921  30.294  58.885  1.00  0.00    -0.348 N 
HETATM   18  C   UNL     1       6.903  31.613  59.269  1.00  0.00     0.254 C 
HETATM   19  O   UNL     1       6.637  32.526  58.498  1.00  0.00    -0.268 OA
HETATM   20  H   UNL     1       7.230  29.578  59.538  1.00  0.00     0.163 HD
BRANCH  18  21
HETATM   21  C   UNL     1       7.251  31.882  60.684  1.00  0.00     0.065 A 
HETATM   22  C   UNL     1       8.184  31.117  61.397  1.00  0.00     0.081 A 
HETATM   23  C   UNL     1       8.529  31.467  62.701  1.00  0.00     0.037 A 
HETATM   24  C   UNL     1       7.923  32.565  63.312  1.00  0.00     0.003 A 
HETATM   25  C   UNL     1       6.967  33.313  62.622  1.00  0.00     0.001 A 
HETATM   26  C   UNL     1       6.629  32.970  61.311  1.00  0.00     0.020 A 
BRANCH  22  27
HETATM   27  O   UNL     1       8.787  30.000  60.888  1.00  0.00    -0.360 OA
HETATM   28  H   UNL     1       8.570  29.239  61.460  1.00  0.00     0.217 HD
ENDBRANCH  22  27
ENDBRANCH  18  21
ENDBRANCH  16  17
ENDBRANCH  13  16
ENDBRANCH   5  12
BRANCH   1  29
HETATM   29  C   UNL     1       4.779  25.002  52.986  1.00  0.00     0.171 C 
BRANCH  29  30
HETATM   30  C   UNL     1       4.966  26.019  51.884  1.00  0.00    -0.040 A 
HETATM   31  C   UNL     1       5.469  27.297  52.176  1.00  0.00     0.009 A 
HETATM   32  C   UNL     1       5.642  28.240  51.162  1.00  0.00     0.001 A 
HETATM   33  C   UNL     1       5.315  27.919  49.846  1.00  0.00     0.000 A 
HETATM   34  C   UNL     1       4.818  26.654  49.542  1.00  0.00     0.001 A 
HETATM   35  C   UNL     1       4.648  25.708  50.555  1.00  0.00     0.009 A 
ENDBRANCH  29  30
ENDBRANCH   1  29
TORSDOF 7
ENDMDL
MODEL 5
REMARK VINA RESULT:     -10.1      2.793      9.898
REMARK  7 active torsions:
REMARK  status: ('A' for Active; 'I' for Inactive)
REMARK    1  A    between atoms: C_4  and  C_5 
REMARK    2  A    between atoms: C_5  and  N_6 
REMARK    3  A    between atoms: N_10  and  N_11 
REMARK       I    between atoms: N_11  and  C_12 
REMARK    4  A    between atoms: C_12  and  C_13 
REMARK    5  A    between atoms: C_13  and  N_14 
REMARK       I    between atoms: N_14  and  C_15 
REMARK    6  A    between atoms: C_15  and  C_16 
REMARK    7  A    between atoms: C_17  and  O_18 
ROOT
HETATM    1  N   UNL     1       5.973  31.253  58.650  1.00  0.00    -0.307 N 
HETATM    2  C   UNL     1       6.400  30.297  57.745  1.00  0.00     0.280 A 
HETATM    3  O   UNL     1       5.818  29.783  56.812  1.00  0.00    -0.265 OA
HETATM    4  C   UNL     1       7.836  29.971  58.138  1.00  0.00     0.157 A 
HETATM    5  N   UNL     1       8.651  29.110  57.618  1.00  0.00    -0.166 NA
HETATM    6  C   UNL     1       8.147  30.825  59.276  1.00  0.00     0.027 A 
HETATM    7  C   UNL     1       7.002  31.570  59.554  1.00  0.00     0.050 A 
HETATM    8  C   UNL     1       9.311  30.924  60.016  1.00  0.00     0.016 A 
HETATM    9  C   UNL     1       9.309  31.822  61.082  1.00  0.00     0.001 A 
HETATM   10  C   UNL     1       8.162  32.585  61.376  1.00  0.00     0.002 A 
HETATM   11  C   UNL     1       6.994  32.462  60.610  1.00  0.00     0.031 A 
ENDROOT
BRANCH   5  12
HETATM   12  N   UNL     1       8.201  28.343  56.582  1.00  0.00    -0.245 N 
HETATM   13  C   UNL     1       7.906  27.006  56.818  1.00  0.00     0.255 C 
HETATM   14  O   UNL     1       8.091  26.417  57.883  1.00  0.00    -0.270 OA
HETATM   15  H   UNL     1       8.033  28.764  55.660  1.00  0.00     0.192 HD
BRANCH  13  16
HETATM   16  C   UNL     1       7.314  26.285  55.613  1.00  0.00     0.227 C 
BRANCH  16  17
HETATM   17  N   UNL     1       7.835  24.935  55.501  1.00  0.00    -0.348 N 
HETATM   18  C   UNL     1       7.213  23.989  54.723  1.00  0.00     0.254 C 
HETATM   19  O   UNL     1       6.220  24.230  54.050  1.00  0.00    -0.268 OA
HETATM   20  H   UNL     1       8.606  24.668  56.108  1.00  0.00     0.163 HD
BRANCH  18  21
HETATM   21  C   UNL     1       7.803  22.629  54.759  1.00  0.00     0.065 A 
HETATM   22  C   UNL     1       8.283  22.039  55.935  1.00  0.00     0.081 A 
HETATM   23  C   UNL     1       8.753  20.727  55.922  1.00  0.00     0.037 A 
HETATM   24  C   UNL     1       8.774  20.007  54.727  1.00  0.00     0.003 A 
HETATM   25  C   UNL     1       8.330  20.598  53.544  1.00  0.00     0.001 A 
HETATM   26  C   UNL     1       7.848  21.908  53.558  1.00  0.00     0.020 A 
BRANCH  22  27
HETATM   27  O   UNL     1       8.340  22.691  57.136  1.00  0.00    -0.360 OA
HETATM   28  H   UNL     1       8.863  23.508  57.024  1.00  0.00     0.217 HD
ENDBRANCH  22  27
ENDBRANCH  18  21
ENDBRANCH  16  17
ENDBRANCH  13  16
ENDBRANCH   5  12
BRANCH   1  29
HETATM   29  C   UNL     1       4.664  31.861  58.621  1.00  0.00     0.171 C 
BRANCH  29  30
HETATM   30  C   UNL     1       4.652  33.194  57.910  1.00  0.00    -0.040 A 
HETATM   31  C   UNL     1       4.941  33.270  56.539  1.00  0.00     0.009 A 
HETATM   32  C   UNL     1       4.933  34.500  55.878  1.00  0.00     0.001 A 
HETATM   33  C   UNL     1       4.637  35.667  56.579  1.00  0.00     0.000 A 
HETATM   34  C   UNL     1       4.343  35.605  57.940  1.00  0.00     0.001 A 
HETATM   35  C   UNL     1       4.348  34.376  58.601  1.00  0.00     0.009 A 
ENDBRANCH  29  30
ENDBRANCH   1  29
TORSDOF 7
ENDMDL
MODEL 6
REMARK VINA RESULT:     -10.0      4.579      9.457
REMARK  7 active torsions:
REMARK  status: ('A' for Active; 'I' for Inactive)
REMARK    1  A    between atoms: C_4  and  C_5 
REMARK    2  A    between atoms: C_5  and  N_6 
REMARK    3  A    between atoms: N_10  and  N_11 
REMARK       I    between atoms: N_11  and  C_12 
REMARK    4  A    between atoms: C_12  and  C_13 
REMARK    5  A    between atoms: C_13  and  N_14 
REMARK       I    between atoms: N_14  and  C_15 
REMARK    6  A    between atoms: C_15  and  C_16 
REMARK    7  A    between atoms: C_17  and  O_18 
ROOT
HETATM    1  N   UNL     1       6.627  25.633  55.880  1.00  0.00    -0.307 N 
HETATM    2  C   UNL     1       5.753  26.234  54.991  1.00  0.00     0.280 A 
HETATM    3  O   UNL     1       5.002  27.175  55.143  1.00  0.00    -0.265 OA
HETATM    4  C   UNL     1       5.901  25.464  53.684  1.00  0.00     0.157 A 
HETATM    5  N   UNL     1       5.269  25.622  52.565  1.00  0.00    -0.166 NA
HETATM    6  C   UNL     1       6.917  24.448  53.927  1.00  0.00     0.027 A 
HETATM    7  C   UNL     1       7.318  24.580  55.255  1.00  0.00     0.050 A 
HETATM    8  C   UNL     1       7.424  23.484  53.076  1.00  0.00     0.016 A 
HETATM    9  C   UNL     1       8.384  22.619  53.600  1.00  0.00     0.001 A 
HETATM   10  C   UNL     1       8.803  22.738  54.939  1.00  0.00     0.002 A 
HETATM   11  C   UNL     1       8.269  23.725  55.780  1.00  0.00     0.031 A 
ENDROOT
BRANCH   5  12
HETATM   12  N   UNL     1       4.305  26.587  52.503  1.00  0.00    -0.245 N 
HETATM   13  C   UNL     1       4.591  27.777  51.847  1.00  0.00     0.255 C 
HETATM   14  O   UNL     1       5.686  28.079  51.372  1.00  0.00    -0.270 OA
HETATM   15  H   UNL     1       3.369  26.410  52.887  1.00  0.00     0.192 HD
BRANCH  13  16
HETATM   16  C   UNL     1       3.405  28.729  51.754  1.00  0.00     0.227 C 
BRANCH  16  17
HETATM   17  N   UNL     1       2.605  28.456  50.574  1.00  0.00    -0.348 N 
HETATM   18  C   UNL     1       2.761  29.183  49.418  1.00  0.00     0.254 C 
HETATM   19  O   UNL     1       3.601  30.065  49.296  1.00  0.00    -0.268 OA
HETATM   20  H   UNL     1       1.839  27.792  50.657  1.00  0.00     0.163 HD
BRANCH  18  21
HETATM   21  C   UNL     1       1.828  28.856  48.314  1.00  0.00     0.065 A 
HETATM   22  C   UNL     1       1.513  27.540  47.949  1.00  0.00     0.081 A 
HETATM   23  C   UNL     1       0.568  27.294  46.955  1.00  0.00     0.037 A 
HETATM   24  C   UNL     1      -0.047  28.361  46.298  1.00  0.00     0.003 A 
HETATM   25  C   UNL     1       0.286  29.675  46.631  1.00  0.00     0.001 A 
HETATM   26  C   UNL     1       1.224  29.922  47.635  1.00  0.00     0.020 A 
BRANCH  22  27
HETATM   27  O   UNL     1       2.104  26.441  48.509  1.00  0.00    -0.360 OA
HETATM   28  H   UNL     1       1.634  25.642  48.202  1.00  0.00     0.217 HD
ENDBRANCH  22  27
ENDBRANCH  18  21
ENDBRANCH  16  17
ENDBRANCH  13  16
ENDBRANCH   5  12
BRANCH   1  29
HETATM   29  C   UNL     1       6.820  26.074  57.241  1.00  0.00     0.171 C 
BRANCH  29  30
HETATM   30  C   UNL     1       7.497  27.422  57.331  1.00  0.00    -0.040 A 
HETATM   31  C   UNL     1       6.776  28.551  57.750  1.00  0.00     0.009 A 
HETATM   32  C   UNL     1       7.396  29.799  57.833  1.00  0.00     0.001 A 
HETATM   33  C   UNL     1       8.742  29.933  57.498  1.00  0.00     0.000 A 
HETATM   34  C   UNL     1       9.470  28.820  57.085  1.00  0.00     0.001 A 
HETATM   35  C   UNL     1       8.852  27.570  57.005  1.00  0.00     0.009 A 
ENDBRANCH  29  30
ENDBRANCH   1  29
TORSDOF 7
ENDMDL
MODEL 7
REMARK VINA RESULT:      -9.9      3.406      9.548
REMARK  7 active torsions:
REMARK  status: ('A' for Active; 'I' for Inactive)
REMARK    1  A    between atoms: C_4  and  C_5 
REMARK    2  A    between atoms: C_5  and  N_6 
REMARK    3  A    between atoms: N_10  and  N_11 
REMARK       I    between atoms: N_11  and  C_12 
REMARK    4  A    between atoms: C_12  and  C_13 
REMARK    5  A    between atoms: C_13  and  N_14 
REMARK       I    between atoms: N_14  and  C_15 
REMARK    6  A    between atoms: C_15  and  C_16 
REMARK    7  A    between atoms: C_17  and  O_18 
ROOT
HETATM    1  N   UNL     1       5.732  32.309  60.391  1.00  0.00    -0.307 N 
HETATM    2  C   UNL     1       6.686  31.628  59.657  1.00  0.00     0.280 A 
HETATM    3  O   UNL     1       6.636  31.175  58.532  1.00  0.00    -0.265 OA
HETATM    4  C   UNL     1       7.911  31.534  60.560  1.00  0.00     0.157 A 
HETATM    5  N   UNL     1       9.048  30.956  60.339  1.00  0.00    -0.166 NA
HETATM    6  C   UNL     1       7.557  32.225  61.793  1.00  0.00     0.027 A 
HETATM    7  C   UNL     1       6.242  32.666  61.652  1.00  0.00     0.050 A 
HETATM    8  C   UNL     1       8.304  32.426  62.938  1.00  0.00     0.016 A 
HETATM    9  C   UNL     1       7.686  33.110  63.985  1.00  0.00     0.001 A 
HETATM   10  C   UNL     1       6.359  33.565  63.860  1.00  0.00     0.002 A 
HETATM   11  C   UNL     1       5.624  33.343  62.686  1.00  0.00     0.031 A 
ENDROOT
BRANCH   5  12
HETATM   12  N   UNL     1       9.217  30.303  59.151  1.00  0.00    -0.245 N 
HETATM   13  C   UNL     1      10.032  30.875  58.183  1.00  0.00     0.255 C 
HETATM   14  O   UNL     1      10.568  31.980  58.270  1.00  0.00    -0.270 OA
HETATM   15  H   UNL     1       8.791  29.380  59.002  1.00  0.00     0.192 HD
BRANCH  13  16
HETATM   16  C   UNL     1      10.224  30.003  56.948  1.00  0.00     0.227 C 
BRANCH  16  17
HETATM   17  N   UNL     1       8.953  29.705  56.313  1.00  0.00    -0.348 N 
HETATM   18  C   UNL     1       8.256  28.559  56.608  1.00  0.00     0.254 C 
HETATM   19  O   UNL     1       8.632  27.748  57.444  1.00  0.00    -0.268 OA
HETATM   20  H   UNL     1       8.646  30.306  55.552  1.00  0.00     0.163 HD
BRANCH  18  21
HETATM   21  C   UNL     1       7.013  28.337  55.832  1.00  0.00     0.065 A 
HETATM   22  C   UNL     1       5.736  28.417  56.402  1.00  0.00     0.081 A 
HETATM   23  C   UNL     1       4.601  28.277  55.605  1.00  0.00     0.037 A 
HETATM   24  C   UNL     1       4.735  28.026  54.238  1.00  0.00     0.003 A 
HETATM   25  C   UNL     1       6.004  27.911  53.668  1.00  0.00     0.001 A 
HETATM   26  C   UNL     1       7.141  28.062  54.464  1.00  0.00     0.020 A 
BRANCH  22  27
HETATM   27  O   UNL     1       5.518  28.612  57.738  1.00  0.00    -0.360 OA
HETATM   28  H   UNL     1       5.698  27.777  58.210  1.00  0.00     0.217 HD
ENDBRANCH  22  27
ENDBRANCH  18  21
ENDBRANCH  16  17
ENDBRANCH  13  16
ENDBRANCH   5  12
BRANCH   1  29
HETATM   29  C   UNL     1       4.417  32.638  59.894  1.00  0.00     0.171 C 
BRANCH  29  30
HETATM   30  C   UNL     1       4.375  33.971  59.183  1.00  0.00    -0.040 A 
HETATM   31  C   UNL     1       4.665  34.053  57.812  1.00  0.00     0.009 A 
HETATM   32  C   UNL     1       4.630  35.281  57.151  1.00  0.00     0.001 A 
HETATM   33  C   UNL     1       4.305  36.442  57.851  1.00  0.00     0.000 A 
HETATM   34  C   UNL     1       4.011  36.374  59.211  1.00  0.00     0.001 A 
HETATM   35  C   UNL     1       4.043  35.145  59.873  1.00  0.00     0.009 A 
ENDBRANCH  29  30
ENDBRANCH   1  29
TORSDOF 7
ENDMDL
MODEL 8
REMARK VINA RESULT:      -9.8      3.032     10.420
REMARK  7 active torsions:
REMARK  status: ('A' for Active; 'I' for Inactive)
REMARK    1  A    between atoms: C_4  and  C_5 
REMARK    2  A    between atoms: C_5  and  N_6 
REMARK    3  A    between atoms: N_10  and  N_11 
REMARK       I    between atoms: N_11  and  C_12 
REMARK    4  A    between atoms: C_12  and  C_13 
REMARK    5  A    between atoms: C_13  and  N_14 
REMARK       I    between atoms: N_14  and  C_15 
REMARK    6  A    between atoms: C_15  and  C_16 
REMARK    7  A    between atoms: C_17  and  O_18 
ROOT
HETATM    1  N   UNL     1       5.398  32.472  60.118  1.00  0.00    -0.307 N 
HETATM    2  C   UNL     1       5.965  31.834  59.029  1.00  0.00     0.280 A 
HETATM    3  O   UNL     1       5.526  31.641  57.915  1.00  0.00    -0.265 OA
HETATM    4  C   UNL     1       7.344  31.377  59.492  1.00  0.00     0.157 A 
HETATM    5  N   UNL     1       8.242  30.704  58.847  1.00  0.00    -0.166 NA
HETATM    6  C   UNL     1       7.480  31.834  60.868  1.00  0.00     0.027 A 
HETATM    7  C   UNL     1       6.290  32.478  61.205  1.00  0.00     0.050 A 
HETATM    8  C   UNL     1       8.532  31.680  61.752  1.00  0.00     0.016 A 
HETATM    9  C   UNL     1       8.367  32.208  63.031  1.00  0.00     0.001 A 
HETATM   10  C   UNL     1       7.173  32.863  63.389  1.00  0.00     0.002 A 
HETATM   11  C   UNL     1       6.120  33.002  62.473  1.00  0.00     0.031 A 
ENDROOT
BRANCH   5  12
HETATM   12  N   UNL     1       7.952  30.300  57.575  1.00  0.00    -0.245 N 
HETATM   13  C   UNL     1       7.770  28.946  57.328  1.00  0.00     0.255 C 
HETATM   14  O   UNL     1       7.925  28.047  58.155  1.00  0.00    -0.270 OA
HETATM   15  H   UNL     1       7.818  30.993  56.829  1.00  0.00     0.192 HD
BRANCH  13  16
HETATM   16  C   UNL     1       7.349  28.633  55.897  1.00  0.00     0.227 C 
BRANCH  16  17
HETATM   17  N   UNL     1       7.481  27.216  55.609  1.00  0.00    -0.348 N 
HETATM   18  C   UNL     1       7.426  26.738  54.322  1.00  0.00     0.254 C 
HETATM   19  O   UNL     1       7.307  27.468  53.346  1.00  0.00    -0.268 OA
HETATM   20  H   UNL     1       7.496  26.568  56.392  1.00  0.00     0.163 HD
BRANCH  18  21
HETATM   21  C   UNL     1       7.496  25.265  54.172  1.00  0.00     0.065 A 
HETATM   22  C   UNL     1       7.858  24.639  52.973  1.00  0.00     0.081 A 
HETATM   23  C   UNL     1       7.984  23.252  52.915  1.00  0.00     0.037 A 
HETATM   24  C   UNL     1       7.718  22.480  54.046  1.00  0.00     0.003 A 
HETATM   25  C   UNL     1       7.324  23.094  55.236  1.00  0.00     0.001 A 
HETATM   26  C   UNL     1       7.209  24.484  55.299  1.00  0.00     0.020 A 
BRANCH  22  27
HETATM   27  O   UNL     1       8.088  25.318  51.808  1.00  0.00    -0.360 OA
HETATM   28  H   UNL     1       8.809  25.960  51.956  1.00  0.00     0.217 HD
ENDBRANCH  22  27
ENDBRANCH  18  21
ENDBRANCH  16  17
ENDBRANCH  13  16
ENDBRANCH   5  12
BRANCH   1  29
HETATM   29  C   UNL     1       4.090  33.083  60.102  1.00  0.00     0.171 C 
BRANCH  29  30
HETATM   30  C   UNL     1       4.127  34.537  59.693  1.00  0.00    -0.040 A 
HETATM   31  C   UNL     1       4.105  34.893  58.335  1.00  0.00     0.009 A 
HETATM   32  C   UNL     1       4.140  36.235  57.952  1.00  0.00     0.001 A 
HETATM   33  C   UNL     1       4.198  37.236  58.921  1.00  0.00     0.000 A 
HETATM   34  C   UNL     1       4.215  36.896  60.271  1.00  0.00     0.001 A 
HETATM   35  C   UNL     1       4.177  35.555  60.656  1.00  0.00     0.009 A 
ENDBRANCH  29  30
ENDBRANCH   1  29
TORSDOF 7
ENDMDL
MODEL 9
REMARK VINA RESULT:      -9.7      2.834      5.391
REMARK  7 active torsions:
REMARK  status: ('A' for Active; 'I' for Inactive)
REMARK    1  A    between atoms: C_4  and  C_5 
REMARK    2  A    between atoms: C_5  and  N_6 
REMARK    3  A    between atoms: N_10  and  N_11 
REMARK       I    between atoms: N_11  and  C_12 
REMARK    4  A    between atoms: C_12  and  C_13 
REMARK    5  A    between atoms: C_13  and  N_14 
REMARK       I    between atoms: N_14  and  C_15 
REMARK    6  A    between atoms: C_15  and  C_16 
REMARK    7  A    between atoms: C_17  and  O_18 
ROOT
HETATM    1  N   UNL     1       5.898  25.087  54.331  1.00  0.00    -0.307 N 
HETATM    2  C   UNL     1       6.104  25.924  55.413  1.00  0.00     0.280 A 
HETATM    3  O   UNL     1       5.444  26.857  55.822  1.00  0.00    -0.265 OA
HETATM    4  C   UNL     1       7.396  25.444  56.064  1.00  0.00     0.157 A 
HETATM    5  N   UNL     1       8.027  25.928  57.086  1.00  0.00    -0.166 NA
HETATM    6  C   UNL     1       7.839  24.297  55.283  1.00  0.00     0.027 A 
HETATM    7  C   UNL     1       6.918  24.123  54.252  1.00  0.00     0.050 A 
HETATM    8  C   UNL     1       8.955  23.496  55.443  1.00  0.00     0.016 A 
HETATM    9  C   UNL     1       9.138  22.473  54.514  1.00  0.00     0.001 A 
HETATM   10  C   UNL     1       8.217  22.281  53.467  1.00  0.00     0.002 A 
HETATM   11  C   UNL     1       7.094  23.110  53.328  1.00  0.00     0.031 A 
ENDROOT
BRANCH   5  12
HETATM   12  N   UNL     1       7.515  27.041  57.688  1.00  0.00    -0.245 N 
HETATM   13  C   UNL     1       8.191  28.247  57.552  1.00  0.00     0.255 C 
HETATM   14  O   UNL     1       9.275  28.391  56.989  1.00  0.00    -0.270 OA
HETATM   15  H   UNL     1       6.617  26.995  58.186  1.00  0.00     0.192 HD
BRANCH  13  16
HETATM   16  C   UNL     1       7.467  29.432  58.179  1.00  0.00     0.227 C 
BRANCH  16  17
HETATM   17  N   UNL     1       6.790  30.227  57.171  1.00  0.00    -0.348 N 
HETATM   18  C   UNL     1       5.427  30.171  57.009  1.00  0.00     0.254 C 
HETATM   19  O   UNL     1       4.701  29.490  57.721  1.00  0.00    -0.268 OA
HETATM   20  H   UNL     1       7.361  30.740  56.503  1.00  0.00     0.163 HD
BRANCH  18  21
HETATM   21  C   UNL     1       4.872  30.973  55.892  1.00  0.00     0.065 A 
HETATM   22  C   UNL     1       4.928  32.372  55.859  1.00  0.00     0.081 A 
HETATM   23  C   UNL     1       4.461  33.067  54.745  1.00  0.00     0.037 A 
HETATM   24  C   UNL     1       3.907  32.371  53.670  1.00  0.00     0.003 A 
HETATM   25  C   UNL     1       3.817  30.979  53.709  1.00  0.00     0.001 A 
HETATM   26  C   UNL     1       4.295  30.280  54.819  1.00  0.00     0.020 A 
BRANCH  22  27
HETATM   27  O   UNL     1       5.410  33.131  56.890  1.00  0.00    -0.360 OA
HETATM   28  H   UNL     1       4.669  33.624  57.289  1.00  0.00     0.217 HD
ENDBRANCH  22  27
ENDBRANCH  18  21
ENDBRANCH  16  17
ENDBRANCH  13  16
ENDBRANCH   5  12
BRANCH   1  29
HETATM   29  C   UNL     1       4.759  25.180  53.447  1.00  0.00     0.171 C 
BRANCH  29  30
HETATM   30  C   UNL     1       4.982  26.140  52.302  1.00  0.00    -0.040 A 
HETATM   31  C   UNL     1       5.220  27.500  52.552  1.00  0.00     0.009 A 
HETATM   32  C   UNL     1       5.424  28.391  51.497  1.00  0.00     0.001 A 
HETATM   33  C   UNL     1       5.392  27.934  50.181  1.00  0.00     0.000 A 
HETATM   34  C   UNL     1       5.160  26.586  49.919  1.00  0.00     0.001 A 
HETATM   35  C   UNL     1       4.959  25.693  50.973  1.00  0.00     0.009 A 
ENDBRANCH  29  30
ENDBRANCH   1  29
TORSDOF 7
ENDMDL
MODEL 10
REMARK VINA RESULT:      -9.7      3.702      6.535
REMARK  7 active torsions:
REMARK  status: ('A' for Active; 'I' for Inactive)
REMARK    1  A    between atoms: C_4  and  C_5 
REMARK    2  A    between atoms: C_5  and  N_6 
REMARK    3  A    between atoms: N_10  and  N_11 
REMARK       I    between atoms: N_11  and  C_12 
REMARK    4  A    between atoms: C_12  and  C_13 
REMARK    5  A    between atoms: C_13  and  N_14 
REMARK       I    between atoms: N_14  and  C_15 
REMARK    6  A    between atoms: C_15  and  C_16 
REMARK    7  A    between atoms: C_17  and  O_18 
ROOT
HETATM    1  N   UNL     1       6.427  25.873  55.740  1.00  0.00    -0.307 N 
HETATM    2  C   UNL     1       5.597  26.530  54.849  1.00  0.00     0.280 A 
HETATM    3  O   UNL     1       4.859  27.479  55.016  1.00  0.00    -0.265 OA
HETATM    4  C   UNL     1       5.776  25.814  53.515  1.00  0.00     0.157 A 
HETATM    5  N   UNL     1       5.187  26.033  52.384  1.00  0.00    -0.166 NA
HETATM    6  C   UNL     1       6.762  24.768  53.748  1.00  0.00     0.027 A 
HETATM    7  C   UNL     1       7.119  24.834  55.094  1.00  0.00     0.050 A 
HETATM    8  C   UNL     1       7.280  23.830  52.874  1.00  0.00     0.016 A 
HETATM    9  C   UNL     1       8.204  22.924  53.392  1.00  0.00     0.001 A 
HETATM   10  C   UNL     1       8.578  22.976  54.748  1.00  0.00     0.002 A 
HETATM   11  C   UNL     1       8.034  23.937  55.614  1.00  0.00     0.031 A 
ENDROOT
BRANCH   5  12
HETATM   12  N   UNL     1       4.244  27.020  52.330  1.00  0.00    -0.245 N 
HETATM   13  C   UNL     1       4.286  27.929  51.281  1.00  0.00     0.255 C 
HETATM   14  O   UNL     1       5.160  27.973  50.416  1.00  0.00    -0.270 OA
HETATM   15  H   UNL     1       3.488  27.053  53.025  1.00  0.00     0.192 HD
BRANCH  13  16
HETATM   16  C   UNL     1       3.123  28.914  51.275  1.00  0.00     0.227 C 
BRANCH  16  17
HETATM   17  N   UNL     1       3.029  29.623  52.538  1.00  0.00    -0.348 N 
HETATM   18  C   UNL     1       3.794  30.735  52.795  1.00  0.00     0.254 C 
HETATM   19  O   UNL     1       4.561  31.218  51.973  1.00  0.00    -0.268 OA
HETATM   20  H   UNL     1       2.470  29.208  53.279  1.00  0.00     0.163 HD
BRANCH  18  21
HETATM   21  C   UNL     1       3.659  31.317  54.152  1.00  0.00     0.065 A 
HETATM   22  C   UNL     1       4.618  31.135  55.156  1.00  0.00     0.081 A 
HETATM   23  C   UNL     1       4.475  31.773  56.387  1.00  0.00     0.037 A 
HETATM   24  C   UNL     1       3.358  32.572  56.633  1.00  0.00     0.003 A 
HETATM   25  C   UNL     1       2.380  32.731  55.650  1.00  0.00     0.001 A 
HETATM   26  C   UNL     1       2.528  32.102  54.412  1.00  0.00     0.020 A 
BRANCH  22  27
HETATM   27  O   UNL     1       5.716  30.331  55.013  1.00  0.00    -0.360 OA
HETATM   28  H   UNL     1       5.920  30.246  54.062  1.00  0.00     0.217 HD
ENDBRANCH  22  27
ENDBRANCH  18  21
ENDBRANCH  16  17
ENDBRANCH  13  16
ENDBRANCH   5  12
BRANCH   1  29
HETATM   29  C   UNL     1       6.581  26.250  57.125  1.00  0.00     0.171 C 
BRANCH  29  30
HETATM   30  C   UNL     1       7.360  27.533  57.301  1.00  0.00    -0.040 A 
HETATM   31  C   UNL     1       8.717  27.593  56.947  1.00  0.00     0.009 A 
HETATM   32  C   UNL     1       9.441  28.775  57.109  1.00  0.00     0.001 A 
HETATM   33  C   UNL     1       8.819  29.910  57.627  1.00  0.00     0.000 A 
HETATM   34  C   UNL     1       7.472  29.865  57.979  1.00  0.00     0.001 A 
HETATM   35  C   UNL     1       6.745  28.684  57.814  1.00  0.00     0.009 A 
ENDBRANCH  29  30
ENDBRANCH   1  29
TORSDOF 7
ENDMDL
