MODEL 1
REMARK VINA RESULT:      -8.4      0.000      0.000
REMARK  2 active torsions:
REMARK  status: ('A' for Active; 'I' for Inactive)
REMARK    1  A    between atoms: N_8  and  C_9 
REMARK    2  A    between atoms: C_11  and  C_12 
ROOT
HETATM    1  C   UNL     1       5.883  27.647  51.456  1.00  0.00     0.269 C 
HETATM    2  N   UNL     1       5.650  26.398  52.263  1.00  0.00    -0.075 N 
HETATM    3  H   UNL     1       5.258  25.722  51.593  1.00  0.00     0.279 HD
HETATM    4  C   UNL     1       6.922  25.758  52.763  1.00  0.00     0.235 C 
HETATM    5  C   UNL     1       7.477  26.528  53.954  1.00  0.00     0.039 C 
HETATM    6  C   UNL     1       6.457  26.663  55.116  1.00  0.00    -0.021 C 
HETATM    7  C   UNL     1       6.152  25.283  55.754  1.00  0.00     0.151 C 
HETATM    8  N   UNL     1       7.387  24.768  56.310  1.00  0.00    -0.213 N 
HETATM    9  C   UNL     1       7.940  25.503  57.440  1.00  0.00     0.141 C 
HETATM   10  C   UNL     1       8.215  26.943  56.986  1.00  0.00     0.021 C 
HETATM   11  C   UNL     1       7.028  27.573  56.241  1.00  0.00     0.013 C 
HETATM   12  C   UNL     1       5.163  27.294  54.551  1.00  0.00     0.039 C 
HETATM   13  C   UNL     1       4.605  26.556  53.336  1.00  0.00     0.235 C 
ENDROOT
BRANCH   8  14
HETATM   14  C   UNL     1       7.717  23.450  56.109  1.00  0.00     0.724 A 
HETATM   15  N   UNL     1       7.698  22.994  54.846  1.00  0.00    -0.058 NA
HETATM   16  C   UNL     1       8.110  21.719  54.607  1.00  0.00     0.160 A 
HETATM   17  C   UNL     1       8.520  20.885  55.625  1.00  0.00     0.057 A 
HETATM   18  C   UNL     1       8.507  21.432  56.881  1.00  0.00     0.139 A 
HETATM   19  N   UNL     1       8.127  22.697  57.135  1.00  0.00    -0.075 NA
BRANCH  16  20
HETATM   20  C   UNL     1       8.115  21.217  53.176  1.00  0.00     0.435 C 
HETATM   21  F   UNL     1       9.288  20.603  52.828  1.00  0.00    -0.165 F 
HETATM   22  F   UNL     1       7.138  20.299  52.933  1.00  0.00    -0.165 F 
HETATM   23  F   UNL     1       7.933  22.212  52.264  1.00  0.00    -0.165 F 
ENDBRANCH  16  20
ENDBRANCH   8  14
TORSDOF 2
ENDMDL
MODEL 2
REMARK VINA RESULT:      -8.2      1.880      2.424
REMARK  2 active torsions:
REMARK  status: ('A' for Active; 'I' for Inactive)
REMARK    1  A    between atoms: N_8  and  C_9 
REMARK    2  A    between atoms: C_11  and  C_12 
ROOT
HETATM    1  C   UNL     1       5.189  29.319  51.849  1.00  0.00     0.269 C 
HETATM    2  N   UNL     1       5.127  27.906  52.366  1.00  0.00    -0.075 N 
HETATM    3  H   UNL     1       4.709  27.364  51.596  1.00  0.00     0.279 HD
HETATM    4  C   UNL     1       6.485  27.285  52.586  1.00  0.00     0.235 C 
HETATM    5  C   UNL     1       7.115  27.817  53.866  1.00  0.00     0.039 C 
HETATM    6  C   UNL     1       6.221  27.599  55.116  1.00  0.00    -0.021 C 
HETATM    7  C   UNL     1       6.078  26.091  55.445  1.00  0.00     0.151 C 
HETATM    8  N   UNL     1       7.397  25.576  55.751  1.00  0.00    -0.213 N 
HETATM    9  C   UNL     1       8.021  26.086  56.965  1.00  0.00     0.141 C 
HETATM   10  C   UNL     1       8.151  27.609  56.832  1.00  0.00     0.021 C 
HETATM   11  C   UNL     1       6.852  28.282  56.363  1.00  0.00     0.013 C 
HETATM   12  C   UNL     1       4.835  28.224  54.833  1.00  0.00     0.039 C 
HETATM   13  C   UNL     1       4.197  27.729  53.537  1.00  0.00     0.235 C 
ENDROOT
BRANCH   8  14
HETATM   14  C   UNL     1       7.787  24.369  55.223  1.00  0.00     0.724 A 
HETATM   15  N   UNL     1       7.920  23.337  56.071  1.00  0.00    -0.058 NA
HETATM   16  C   UNL     1       8.214  22.109  55.563  1.00  0.00     0.160 A 
HETATM   17  C   UNL     1       8.399  21.907  54.211  1.00  0.00     0.057 A 
HETATM   18  C   UNL     1       8.244  23.015  53.420  1.00  0.00     0.139 A 
HETATM   19  N   UNL     1       7.931  24.232  53.901  1.00  0.00    -0.075 NA
BRANCH  16  20
HETATM   20  C   UNL     1       8.334  20.939  56.521  1.00  0.00     0.435 C 
HETATM   21  F   UNL     1       7.326  20.024  56.378  1.00  0.00    -0.165 F 
HETATM   22  F   UNL     1       9.489  20.237  56.355  1.00  0.00    -0.165 F 
HETATM   23  F   UNL     1       8.307  21.320  57.827  1.00  0.00    -0.165 F 
ENDBRANCH  16  20
ENDBRANCH   8  14
TORSDOF 2
ENDMDL
MODEL 3
REMARK VINA RESULT:      -8.1      1.579      3.272
REMARK  2 active torsions:
REMARK  status: ('A' for Active; 'I' for Inactive)
REMARK    1  A    between atoms: N_8  and  C_9 
REMARK    2  A    between atoms: C_11  and  C_12 
ROOT
HETATM    1  C   UNL     1       5.683  29.611  57.493  1.00  0.00     0.269 C 
HETATM    2  N   UNL     1       6.711  28.589  57.089  1.00  0.00    -0.075 N 
HETATM    3  H   UNL     1       7.403  28.597  57.852  1.00  0.00     0.279 HD
HETATM    4  C   UNL     1       6.179  27.177  57.063  1.00  0.00     0.235 C 
HETATM    5  C   UNL     1       5.334  26.947  55.816  1.00  0.00     0.039 C 
HETATM    6  C   UNL     1       6.100  27.251  54.501  1.00  0.00    -0.021 C 
HETATM    7  C   UNL     1       7.257  26.242  54.283  1.00  0.00     0.151 C 
HETATM    8  N   UNL     1       6.676  24.921  54.158  1.00  0.00    -0.213 N 
HETATM    9  C   UNL     1       5.852  24.689  52.979  1.00  0.00     0.141 C 
HETATM   10  C   UNL     1       4.691  25.692  53.002  1.00  0.00     0.021 C 
HETATM   11  C   UNL     1       5.149  27.132  53.276  1.00  0.00     0.013 C 
HETATM   12  C   UNL     1       6.651  28.693  54.587  1.00  0.00     0.039 C 
HETATM   13  C   UNL     1       7.476  28.957  55.845  1.00  0.00     0.235 C 
ENDROOT
BRANCH   8  14
HETATM   14  C   UNL     1       7.256  23.866  54.820  1.00  0.00     0.724 A 
HETATM   15  N   UNL     1       7.469  22.740  54.121  1.00  0.00    -0.058 NA
HETATM   16  C   UNL     1       8.127  21.713  54.725  1.00  0.00     0.160 A 
HETATM   17  C   UNL     1       8.556  21.793  56.033  1.00  0.00     0.057 A 
HETATM   18  C   UNL     1       8.296  22.978  56.670  1.00  0.00     0.139 A 
HETATM   19  N   UNL     1       7.668  24.013  56.083  1.00  0.00    -0.075 NA
BRANCH  16  20
HETATM   20  C   UNL     1       8.393  20.453  53.922  1.00  0.00     0.435 C 
HETATM   21  F   UNL     1       7.313  20.051  53.184  1.00  0.00    -0.165 F 
HETATM   22  F   UNL     1       9.410  20.601  53.028  1.00  0.00    -0.165 F 
HETATM   23  F   UNL     1       8.727  19.389  54.702  1.00  0.00    -0.165 F 
ENDBRANCH  16  20
ENDBRANCH   8  14
TORSDOF 2
ENDMDL
MODEL 4
REMARK VINA RESULT:      -7.7      1.907      2.764
REMARK  2 active torsions:
REMARK  status: ('A' for Active; 'I' for Inactive)
REMARK    1  A    between atoms: N_8  and  C_9 
REMARK    2  A    between atoms: C_11  and  C_12 
ROOT
HETATM    1  C   UNL     1       4.421  30.601  54.426  1.00  0.00     0.269 C 
HETATM    2  N   UNL     1       4.395  29.097  54.459  1.00  0.00    -0.075 N 
HETATM    3  H   UNL     1       3.706  28.831  53.741  1.00  0.00     0.279 HD
HETATM    4  C   UNL     1       5.688  28.461  54.010  1.00  0.00     0.235 C 
HETATM    5  C   UNL     1       6.738  28.552  55.109  1.00  0.00     0.039 C 
HETATM    6  C   UNL     1       6.271  27.920  56.447  1.00  0.00    -0.021 C 
HETATM    7  C   UNL     1       6.098  26.385  56.310  1.00  0.00     0.151 C 
HETATM    8  N   UNL     1       7.393  25.820  55.984  1.00  0.00    -0.213 N 
HETATM    9  C   UNL     1       8.414  25.913  57.019  1.00  0.00     0.141 C 
HETATM   10  C   UNL     1       8.637  27.398  57.340  1.00  0.00     0.021 C 
HETATM   11  C   UNL     1       7.325  28.165  57.564  1.00  0.00     0.013 C 
HETATM   12  C   UNL     1       4.931  28.579  56.850  1.00  0.00     0.039 C 
HETATM   13  C   UNL     1       3.872  28.528  55.751  1.00  0.00     0.235 C 
ENDROOT
BRANCH   8  14
HETATM   14  C   UNL     1       7.481  24.862  55.004  1.00  0.00     0.724 A 
HETATM   15  N   UNL     1       7.738  23.603  55.392  1.00  0.00    -0.058 NA
HETATM   16  C   UNL     1       7.737  22.618  54.453  1.00  0.00     0.160 A 
HETATM   17  C   UNL     1       7.504  22.885  53.120  1.00  0.00     0.057 A 
HETATM   18  C   UNL     1       7.251  24.196  52.814  1.00  0.00     0.139 A 
HETATM   19  N   UNL     1       7.223  25.180  53.731  1.00  0.00    -0.075 NA
BRANCH  16  20
HETATM   20  C   UNL     1       7.999  21.192  54.900  1.00  0.00     0.435 C 
HETATM   21  F   UNL     1       7.181  20.793  55.922  1.00  0.00    -0.165 F 
HETATM   22  F   UNL     1       7.807  20.283  53.904  1.00  0.00    -0.165 F 
HETATM   23  F   UNL     1       9.270  21.001  55.345  1.00  0.00    -0.165 F 
ENDBRANCH  16  20
ENDBRANCH   8  14
TORSDOF 2
ENDMDL
MODEL 5
REMARK VINA RESULT:      -7.5      3.921      6.394
REMARK  2 active torsions:
REMARK  status: ('A' for Active; 'I' for Inactive)
REMARK    1  A    between atoms: N_8  and  C_9 
REMARK    2  A    between atoms: C_11  and  C_12 
ROOT
HETATM    1  C   UNL     1       7.106  28.374  57.523  1.00  0.00     0.269 C 
HETATM    2  N   UNL     1       6.024  28.093  56.515  1.00  0.00    -0.075 N 
HETATM    3  H   UNL     1       5.292  28.789  56.716  1.00  0.00     0.279 HD
HETATM    4  C   UNL     1       6.441  28.369  55.091  1.00  0.00     0.235 C 
HETATM    5  C   UNL     1       7.336  27.252  54.569  1.00  0.00     0.039 C 
HETATM    6  C   UNL     1       6.675  25.852  54.668  1.00  0.00    -0.021 C 
HETATM    7  C   UNL     1       5.455  25.742  53.718  1.00  0.00     0.151 C 
HETATM    8  N   UNL     1       5.934  25.908  52.360  1.00  0.00    -0.213 N 
HETATM    9  C   UNL     1       6.803  24.856  51.851  1.00  0.00     0.141 C 
HETATM   10  C   UNL     1       8.038  24.775  52.758  1.00  0.00     0.021 C 
HETATM   11  C   UNL     1       7.683  24.742  54.252  1.00  0.00     0.013 C 
HETATM   12  C   UNL     1       6.238  25.627  56.134  1.00  0.00     0.039 C 
HETATM   13  C   UNL     1       5.366  26.751  56.690  1.00  0.00     0.235 C 
ENDROOT
BRANCH   8  14
HETATM   14  C   UNL     1       5.233  26.711  51.494  1.00  0.00     0.724 A 
HETATM   15  N   UNL     1       5.130  26.303  50.219  1.00  0.00    -0.058 NA
HETATM   16  C   UNL     1       4.363  27.030  49.361  1.00  0.00     0.160 A 
HETATM   17  C   UNL     1       3.713  28.178  49.763  1.00  0.00     0.057 A 
HETATM   18  C   UNL     1       3.874  28.520  51.079  1.00  0.00     0.139 A 
HETATM   19  N   UNL     1       4.608  27.802  51.948  1.00  0.00    -0.075 NA
BRANCH  16  20
HETATM   20  C   UNL     1       4.224  26.549  47.929  1.00  0.00     0.435 C 
HETATM   21  F   UNL     1       5.426  26.446  47.281  1.00  0.00    -0.165 F 
HETATM   22  F   UNL     1       3.655  25.315  47.839  1.00  0.00    -0.165 F 
HETATM   23  F   UNL     1       3.460  27.375  47.164  1.00  0.00    -0.165 F 
ENDBRANCH  16  20
ENDBRANCH   8  14
TORSDOF 2
ENDMDL
MODEL 6
REMARK VINA RESULT:      -7.5      4.604      6.594
REMARK  2 active torsions:
REMARK  status: ('A' for Active; 'I' for Inactive)
REMARK    1  A    between atoms: N_8  and  C_9 
REMARK    2  A    between atoms: C_11  and  C_12 
ROOT
HETATM    1  C   UNL     1       4.725  24.813  51.882  1.00  0.00     0.269 C 
HETATM    2  N   UNL     1       5.482  25.945  52.523  1.00  0.00    -0.075 N 
HETATM    3  H   UNL     1       5.154  26.790  52.033  1.00  0.00     0.279 HD
HETATM    4  C   UNL     1       5.118  26.170  53.970  1.00  0.00     0.235 C 
HETATM    5  C   UNL     1       5.773  25.118  54.856  1.00  0.00     0.039 C 
HETATM    6  C   UNL     1       7.316  25.068  54.696  1.00  0.00    -0.021 C 
HETATM    7  C   UNL     1       7.975  26.369  55.222  1.00  0.00     0.151 C 
HETATM    8  N   UNL     1       7.682  26.474  56.637  1.00  0.00    -0.213 N 
HETATM    9  C   UNL     1       8.288  25.466  57.496  1.00  0.00     0.141 C 
HETATM   10  C   UNL     1       7.797  24.087  57.036  1.00  0.00     0.021 C 
HETATM   11  C   UNL     1       7.912  23.888  55.517  1.00  0.00     0.013 C 
HETATM   12  C   UNL     1       7.640  24.867  53.197  1.00  0.00     0.039 C 
HETATM   13  C   UNL     1       6.968  25.893  52.286  1.00  0.00     0.235 C 
ENDROOT
BRANCH   8  14
HETATM   14  C   UNL     1       7.290  27.685  57.154  1.00  0.00     0.724 A 
HETATM   15  N   UNL     1       8.211  28.398  57.823  1.00  0.00    -0.058 NA
HETATM   16  C   UNL     1       7.878  29.642  58.264  1.00  0.00     0.160 A 
HETATM   17  C   UNL     1       6.622  30.172  58.063  1.00  0.00     0.057 A 
HETATM   18  C   UNL     1       5.746  29.376  57.373  1.00  0.00     0.139 A 
HETATM   19  N   UNL     1       6.063  28.155  56.907  1.00  0.00    -0.075 NA
BRANCH  16  20
HETATM   20  C   UNL     1       8.930  30.456  58.993  1.00  0.00     0.435 C 
HETATM   21  F   UNL     1      10.198  30.231  58.528  1.00  0.00    -0.165 F 
HETATM   22  F   UNL     1       8.733  31.799  58.876  1.00  0.00    -0.165 F 
HETATM   23  F   UNL     1       8.972  30.195  60.328  1.00  0.00    -0.165 F 
ENDBRANCH  16  20
ENDBRANCH   8  14
TORSDOF 2
ENDMDL
MODEL 7
REMARK VINA RESULT:      -7.5      5.554      7.272
REMARK  2 active torsions:
REMARK  status: ('A' for Active; 'I' for Inactive)
REMARK    1  A    between atoms: N_8  and  C_9 
REMARK    2  A    between atoms: C_11  and  C_12 
ROOT
HETATM    1  C   UNL     1       3.537  29.021  53.327  1.00  0.00     0.269 C 
HETATM    2  N   UNL     1       4.997  29.291  53.571  1.00  0.00    -0.075 N 
HETATM    3  H   UNL     1       5.178  30.192  53.106  1.00  0.00     0.279 HD
HETATM    4  C   UNL     1       5.332  29.529  55.023  1.00  0.00     0.235 C 
HETATM    5  C   UNL     1       5.359  28.213  55.789  1.00  0.00     0.039 C 
HETATM    6  C   UNL     1       6.343  27.179  55.179  1.00  0.00    -0.021 C 
HETATM    7  C   UNL     1       7.812  27.652  55.324  1.00  0.00     0.151 C 
HETATM    8  N   UNL     1       8.107  27.759  56.739  1.00  0.00    -0.213 N 
HETATM    9  C   UNL     1       8.122  26.511  57.489  1.00  0.00     0.141 C 
HETATM   10  C   UNL     1       6.737  25.861  57.364  1.00  0.00     0.021 C 
HETATM   11  C   UNL     1       6.226  25.814  55.916  1.00  0.00     0.013 C 
HETATM   12  C   UNL     1       5.981  26.991  53.687  1.00  0.00     0.039 C 
HETATM   13  C   UNL     1       5.916  28.301  52.906  1.00  0.00     0.235 C 
ENDROOT
BRANCH   8  14
HETATM   14  C   UNL     1       8.789  28.858  57.202  1.00  0.00     0.724 A 
HETATM   15  N   UNL     1       8.451  29.331  58.412  1.00  0.00    -0.058 NA
HETATM   16  C   UNL     1       9.173  30.359  58.935  1.00  0.00     0.160 A 
HETATM   17  C   UNL     1      10.220  30.935  58.248  1.00  0.00     0.057 A 
HETATM   18  C   UNL     1      10.496  30.390  57.022  1.00  0.00     0.139 A 
HETATM   19  N   UNL     1       9.809  29.359  56.498  1.00  0.00    -0.075 NA
BRANCH  16  20
HETATM   20  C   UNL     1       8.806  30.871  60.315  1.00  0.00     0.435 C 
HETATM   21  F   UNL     1       9.341  32.101  60.589  1.00  0.00    -0.165 F 
HETATM   22  F   UNL     1       7.461  31.013  60.486  1.00  0.00    -0.165 F 
HETATM   23  F   UNL     1       9.229  30.051  61.315  1.00  0.00    -0.165 F 
ENDBRANCH  16  20
ENDBRANCH   8  14
TORSDOF 2
ENDMDL
MODEL 8
REMARK VINA RESULT:      -7.4     10.720     12.990
REMARK  2 active torsions:
REMARK  status: ('A' for Active; 'I' for Inactive)
REMARK    1  A    between atoms: N_8  and  C_9 
REMARK    2  A    between atoms: C_11  and  C_12 
ROOT
HETATM    1  C   UNL     1       4.472  35.870  66.511  1.00  0.00     0.269 C 
HETATM    2  N   UNL     1       5.302  35.753  65.261  1.00  0.00    -0.075 N 
HETATM    3  H   UNL     1       6.277  35.818  65.587  1.00  0.00     0.279 HD
HETATM    4  C   UNL     1       5.204  34.402  64.596  1.00  0.00     0.235 C 
HETATM    5  C   UNL     1       3.889  34.273  63.839  1.00  0.00     0.039 C 
HETATM    6  C   UNL     1       3.682  35.398  62.790  1.00  0.00    -0.021 C 
HETATM    7  C   UNL     1       4.716  35.286  61.639  1.00  0.00     0.151 C 
HETATM    8  N   UNL     1       4.501  34.017  60.972  1.00  0.00    -0.213 N 
HETATM    9  C   UNL     1       3.242  33.871  60.256  1.00  0.00     0.141 C 
HETATM   10  C   UNL     1       2.096  34.052  61.261  1.00  0.00     0.021 C 
HETATM   11  C   UNL     1       2.269  35.293  62.149  1.00  0.00     0.013 C 
HETATM   12  C   UNL     1       3.822  36.760  63.509  1.00  0.00     0.039 C 
HETATM   13  C   UNL     1       5.119  36.900  64.303  1.00  0.00     0.235 C 
ENDROOT
BRANCH   8  14
HETATM   14  C   UNL     1       5.585  33.242  60.639  1.00  0.00     0.724 A 
HETATM   15  N   UNL     1       6.511  33.033  61.589  1.00  0.00    -0.058 NA
HETATM   16  C   UNL     1       7.547  32.193  61.317  1.00  0.00     0.160 A 
HETATM   17  C   UNL     1       7.678  31.575  60.091  1.00  0.00     0.057 A 
HETATM   18  C   UNL     1       6.690  31.845  59.182  1.00  0.00     0.139 A 
HETATM   19  N   UNL     1       5.645  32.653  59.440  1.00  0.00    -0.075 NA
BRANCH  16  20
HETATM   20  C   UNL     1       8.574  31.936  62.402  1.00  0.00     0.435 C 
HETATM   21  F   UNL     1       8.430  32.764  63.483  1.00  0.00    -0.165 F 
HETATM   22  F   UNL     1       8.509  30.670  62.903  1.00  0.00    -0.165 F 
HETATM   23  F   UNL     1       9.854  32.106  61.972  1.00  0.00    -0.165 F 
ENDBRANCH  16  20
ENDBRANCH   8  14
TORSDOF 2
ENDMDL
MODEL 9
REMARK VINA RESULT:      -7.3      8.749     10.938
REMARK  2 active torsions:
REMARK  status: ('A' for Active; 'I' for Inactive)
REMARK    1  A    between atoms: N_8  and  C_9 
REMARK    2  A    between atoms: C_11  and  C_12 
ROOT
HETATM    1  C   UNL     1       3.729  36.778  63.644  1.00  0.00     0.269 C 
HETATM    2  N   UNL     1       3.651  35.519  62.823  1.00  0.00    -0.075 N 
HETATM    3  H   UNL     1       2.853  35.669  62.189  1.00  0.00     0.279 HD
HETATM    4  C   UNL     1       4.837  35.318  61.912  1.00  0.00     0.235 C 
HETATM    5  C   UNL     1       6.042  34.828  62.705  1.00  0.00     0.039 C 
HETATM    6  C   UNL     1       5.756  33.527  63.500  1.00  0.00    -0.021 C 
HETATM    7  C   UNL     1       5.507  32.332  62.545  1.00  0.00     0.151 C 
HETATM    8  N   UNL     1       6.716  32.120  61.774  1.00  0.00    -0.213 N 
HETATM    9  C   UNL     1       7.882  31.666  62.519  1.00  0.00     0.141 C 
HETATM   10  C   UNL     1       8.207  32.720  63.587  1.00  0.00     0.021 C 
HETATM   11  C   UNL     1       6.974  33.155  64.394  1.00  0.00     0.013 C 
HETATM   12  C   UNL     1       4.517  33.771  64.394  1.00  0.00     0.039 C 
HETATM   13  C   UNL     1       3.305  34.293  63.625  1.00  0.00     0.235 C 
ENDROOT
BRANCH   8  14
HETATM   14  C   UNL     1       6.620  31.889  60.423  1.00  0.00     0.724 A 
HETATM   15  N   UNL     1       7.501  31.036  59.878  1.00  0.00    -0.058 NA
HETATM   16  C   UNL     1       7.371  30.716  58.562  1.00  0.00     0.160 A 
HETATM   17  C   UNL     1       6.378  31.262  57.776  1.00  0.00     0.057 A 
HETATM   18  C   UNL     1       5.524  32.123  58.414  1.00  0.00     0.139 A 
HETATM   19  N   UNL     1       5.621  32.432  59.720  1.00  0.00    -0.075 NA
BRANCH  16  20
HETATM   20  C   UNL     1       8.350  29.729  57.957  1.00  0.00     0.435 C 
HETATM   21  F   UNL     1       8.428  29.819  56.593  1.00  0.00    -0.165 F 
HETATM   22  F   UNL     1       9.625  29.905  58.406  1.00  0.00    -0.165 F 
HETATM   23  F   UNL     1       8.032  28.433  58.226  1.00  0.00    -0.165 F 
ENDBRANCH  16  20
ENDBRANCH   8  14
TORSDOF 2
ENDMDL
MODEL 10
REMARK VINA RESULT:      -7.3      2.015      2.864
REMARK  2 active torsions:
REMARK  status: ('A' for Active; 'I' for Inactive)
REMARK    1  A    between atoms: N_8  and  C_9 
REMARK    2  A    between atoms: C_11  and  C_12 
ROOT
HETATM    1  C   UNL     1       3.697  30.162  53.851  1.00  0.00     0.269 C 
HETATM    2  N   UNL     1       3.916  28.849  54.554  1.00  0.00    -0.075 N 
HETATM    3  H   UNL     1       3.156  28.242  54.217  1.00  0.00     0.279 HD
HETATM    4  C   UNL     1       5.186  28.148  54.139  1.00  0.00     0.235 C 
HETATM    5  C   UNL     1       6.396  28.800  54.795  1.00  0.00     0.039 C 
HETATM    6  C   UNL     1       6.294  28.844  56.343  1.00  0.00    -0.021 C 
HETATM    7  C   UNL     1       6.345  27.416  56.947  1.00  0.00     0.151 C 
HETATM    8  N   UNL     1       7.628  26.836  56.606  1.00  0.00    -0.213 N 
HETATM    9  C   UNL     1       8.797  27.457  57.214  1.00  0.00     0.141 C 
HETATM   10  C   UNL     1       8.838  28.928  56.778  1.00  0.00     0.021 C 
HETATM   11  C   UNL     1       7.487  29.640  56.946  1.00  0.00     0.013 C 
HETATM   12  C   UNL     1       4.967  29.542  56.720  1.00  0.00     0.039 C 
HETATM   13  C   UNL     1       3.742  28.925  56.047  1.00  0.00     0.235 C 
ENDROOT
BRANCH   8  14
HETATM   14  C   UNL     1       7.682  25.536  56.164  1.00  0.00     0.724 A 
HETATM   15  N   UNL     1       7.507  25.323  54.850  1.00  0.00    -0.058 NA
HETATM   16  C   UNL     1       7.647  24.057  54.371  1.00  0.00     0.160 A 
HETATM   17  C   UNL     1       7.940  22.994  55.200  1.00  0.00     0.057 A 
HETATM   18  C   UNL     1       8.101  23.303  56.524  1.00  0.00     0.139 A 
HETATM   19  N   UNL     1       7.990  24.551  57.014  1.00  0.00    -0.075 NA
BRANCH  16  20
HETATM   20  C   UNL     1       7.479  23.825  52.882  1.00  0.00     0.435 C 
HETATM   21  F   UNL     1       6.185  23.978  52.459  1.00  0.00    -0.165 F 
HETATM   22  F   UNL     1       8.213  24.688  52.125  1.00  0.00    -0.165 F 
HETATM   23  F   UNL     1       7.850  22.574  52.495  1.00  0.00    -0.165 F 
ENDBRANCH  16  20
ENDBRANCH   8  14
TORSDOF 2
ENDMDL
