MODEL 1
REMARK VINA RESULT:      -7.2      0.000      0.000
REMARK  4 active torsions:
REMARK  status: ('A' for Active; 'I' for Inactive)
REMARK    1  A    between atoms: C_2  and  N_3 
REMARK       I    between atoms: N_3  and  C_4 
REMARK    2  A    between atoms: C_4  and  C_5 
REMARK    3  A    between atoms: C_5  and  N_6 
REMARK    4  A    between atoms: N_6  and  C_7 
ROOT
HETATM    1  C   UNL     1       6.986  25.698  55.202  1.00  0.00     0.022 A 
HETATM    2  C   UNL     1       7.335  24.405  54.710  1.00  0.00     0.013 A 
HETATM    3  C   UNL     1       7.610  24.250  53.324  1.00  0.00     0.044 A 
HETATM    4  C   UNL     1       7.983  23.006  52.790  1.00  0.00     0.032 A 
HETATM    5  C   UNL     1       8.081  21.887  53.616  1.00  0.00     0.021 A 
HETATM    6  C   UNL     1       7.800  22.009  54.971  1.00  0.00     0.012 A 
HETATM    7 BR   UNL     1       7.918  20.492  56.090  1.00  0.00    -0.051 Br
HETATM    8  C   UNL     1       7.429  23.244  55.514  1.00  0.00     0.034 A 
HETATM    9  N   UNL     1       7.499  25.313  52.508  1.00  0.00    -0.365 N 
HETATM   10  H   UNL     1       7.694  25.187  51.516  1.00  0.00     0.165 HD
HETATM   11  C   UNL     1       7.122  26.523  52.933  1.00  0.00     0.090 A 
HETATM   12  C   UNL     1       6.848  26.737  54.274  1.00  0.00     0.041 A 
ENDROOT
BRANCH   1  13
HETATM   13  N   UNL     1       6.649  25.874  56.553  1.00  0.00    -0.283 NA
HETATM   14  H   UNL     1       6.148  25.070  56.939  1.00  0.00     0.128 HD
BRANCH  13  15
HETATM   15  C   UNL     1       7.673  26.314  57.530  1.00  0.00     0.195 C 
BRANCH  15  16
HETATM   16  C   UNL     1       7.847  27.836  57.490  1.00  0.00     0.230 C 
HETATM   17  N   UNL     1       9.113  28.240  57.119  1.00  0.00    -0.360 N 
HETATM   18  H   UNL     1       9.775  27.524  56.839  1.00  0.00     0.162 HD
HETATM   19  O   UNL     1       6.944  28.604  57.804  1.00  0.00    -0.272 OA
BRANCH  17  20
HETATM   20  C   UNL     1       9.491  29.634  57.037  1.00  0.00     0.118 C 
HETATM   21  C   UNL     1      10.997  29.810  57.097  1.00  0.00     0.026 C 
ENDBRANCH  17  20
ENDBRANCH  15  16
ENDBRANCH  13  15
ENDBRANCH   1  13
TORSDOF 4
ENDMDL
MODEL 2
REMARK VINA RESULT:      -7.2      3.295      5.861
REMARK  4 active torsions:
REMARK  status: ('A' for Active; 'I' for Inactive)
REMARK    1  A    between atoms: C_2  and  N_3 
REMARK       I    between atoms: N_3  and  C_4 
REMARK    2  A    between atoms: C_4  and  C_5 
REMARK    3  A    between atoms: C_5  and  N_6 
REMARK    4  A    between atoms: N_6  and  C_7 
ROOT
HETATM    1  C   UNL     1       7.000  25.709  53.591  1.00  0.00     0.022 A 
HETATM    2  C   UNL     1       7.504  24.488  54.129  1.00  0.00     0.013 A 
HETATM    3  C   UNL     1       7.904  24.453  55.492  1.00  0.00     0.044 A 
HETATM    4  C   UNL     1       8.383  23.271  56.080  1.00  0.00     0.032 A 
HETATM    5  C   UNL     1       8.486  22.102  55.327  1.00  0.00     0.021 A 
HETATM    6  C   UNL     1       8.118  22.116  53.988  1.00  0.00     0.012 A 
HETATM    7 BR   UNL     1       8.269  20.537  52.961  1.00  0.00    -0.051 Br
HETATM    8  C   UNL     1       7.638  23.286  53.392  1.00  0.00     0.034 A 
HETATM    9  N   UNL     1       7.833  25.576  56.228  1.00  0.00    -0.365 N 
HETATM   10  H   UNL     1       8.129  25.538  57.203  1.00  0.00     0.165 HD
HETATM   11  C   UNL     1       7.416  26.746  55.736  1.00  0.00     0.090 A 
HETATM   12  C   UNL     1       7.006  26.841  54.415  1.00  0.00     0.041 A 
ENDROOT
BRANCH   1  13
HETATM   13  N   UNL     1       6.653  25.795  52.233  1.00  0.00    -0.283 NA
HETATM   14  H   UNL     1       7.242  25.206  51.641  1.00  0.00     0.128 HD
BRANCH  13  15
HETATM   15  C   UNL     1       5.241  25.641  51.809  1.00  0.00     0.195 C 
BRANCH  15  16
HETATM   16  C   UNL     1       4.973  26.414  50.513  1.00  0.00     0.230 C 
HETATM   17  N   UNL     1       4.086  25.784  49.665  1.00  0.00    -0.360 N 
HETATM   18  H   UNL     1       3.643  24.932  49.992  1.00  0.00     0.162 HD
HETATM   19  O   UNL     1       5.537  27.471  50.256  1.00  0.00    -0.272 OA
BRANCH  17  20
HETATM   20  C   UNL     1       3.711  26.337  48.382  1.00  0.00     0.118 C 
HETATM   21  C   UNL     1       3.063  25.294  47.491  1.00  0.00     0.026 C 
ENDBRANCH  17  20
ENDBRANCH  15  16
ENDBRANCH  13  15
ENDBRANCH   1  13
TORSDOF 4
ENDMDL
MODEL 3
REMARK VINA RESULT:      -7.1      2.913      5.180
REMARK  4 active torsions:
REMARK  status: ('A' for Active; 'I' for Inactive)
REMARK    1  A    between atoms: C_2  and  N_3 
REMARK       I    between atoms: N_3  and  C_4 
REMARK    2  A    between atoms: C_4  and  C_5 
REMARK    3  A    between atoms: C_5  and  N_6 
REMARK    4  A    between atoms: N_6  and  C_7 
ROOT
HETATM    1  C   UNL     1       5.769  25.509  55.135  1.00  0.00     0.022 A 
HETATM    2  C   UNL     1       6.798  24.523  55.213  1.00  0.00     0.013 A 
HETATM    3  C   UNL     1       7.727  24.587  56.286  1.00  0.00     0.044 A 
HETATM    4  C   UNL     1       8.744  23.629  56.427  1.00  0.00     0.032 A 
HETATM    5  C   UNL     1       8.869  22.594  55.501  1.00  0.00     0.021 A 
HETATM    6  C   UNL     1       7.984  22.521  54.433  1.00  0.00     0.012 A 
HETATM    7 BR   UNL     1       8.158  21.128  53.168  1.00  0.00    -0.051 Br
HETATM    8  C   UNL     1       6.966  23.469  54.283  1.00  0.00     0.034 A 
HETATM    9  N   UNL     1       7.636  25.590  57.177  1.00  0.00    -0.365 N 
HETATM   10  H   UNL     1       8.312  25.627  57.939  1.00  0.00     0.165 HD
HETATM   11  C   UNL     1       6.717  26.556  57.097  1.00  0.00     0.090 A 
HETATM   12  C   UNL     1       5.779  26.544  56.077  1.00  0.00     0.041 A 
ENDROOT
BRANCH   1  13
HETATM   13  N   UNL     1       4.873  25.511  54.054  1.00  0.00    -0.283 NA
HETATM   14  H   UNL     1       3.929  25.229  54.328  1.00  0.00     0.128 HD
BRANCH  13  15
HETATM   15  C   UNL     1       4.779  26.691  53.161  1.00  0.00     0.195 C 
BRANCH  15  16
HETATM   16  C   UNL     1       5.226  26.336  51.738  1.00  0.00     0.230 C 
HETATM   17  N   UNL     1       4.355  26.766  50.760  1.00  0.00    -0.360 N 
HETATM   18  H   UNL     1       3.561  27.328  51.047  1.00  0.00     0.162 HD
HETATM   19  O   UNL     1       6.245  25.691  51.517  1.00  0.00    -0.272 OA
BRANCH  17  20
HETATM   20  C   UNL     1       4.582  26.516  49.353  1.00  0.00     0.118 C 
HETATM   21  C   UNL     1       4.998  27.778  48.621  1.00  0.00     0.026 C 
ENDBRANCH  17  20
ENDBRANCH  15  16
ENDBRANCH  13  15
ENDBRANCH   1  13
TORSDOF 4
ENDMDL
MODEL 4
REMARK VINA RESULT:      -6.9      3.322      5.761
REMARK  4 active torsions:
REMARK  status: ('A' for Active; 'I' for Inactive)
REMARK    1  A    between atoms: C_2  and  N_3 
REMARK       I    between atoms: N_3  and  C_4 
REMARK    2  A    between atoms: C_4  and  C_5 
REMARK    3  A    between atoms: C_5  and  N_6 
REMARK    4  A    between atoms: N_6  and  C_7 
ROOT
HETATM    1  C   UNL     1       6.437  25.610  52.939  1.00  0.00     0.022 A 
HETATM    2  C   UNL     1       6.899  24.453  53.634  1.00  0.00     0.013 A 
HETATM    3  C   UNL     1       6.922  24.470  55.055  1.00  0.00     0.044 A 
HETATM    4  C   UNL     1       7.343  23.350  55.790  1.00  0.00     0.032 A 
HETATM    5  C   UNL     1       7.761  22.194  55.133  1.00  0.00     0.021 A 
HETATM    6  C   UNL     1       7.765  22.159  53.744  1.00  0.00     0.012 A 
HETATM    7 BR   UNL     1       8.345  20.599  52.850  1.00  0.00    -0.051 Br
HETATM    8  C   UNL     1       7.347  23.268  53.001  1.00  0.00     0.034 A 
HETATM    9  N   UNL     1       6.543  25.583  55.706  1.00  0.00    -0.365 N 
HETATM   10  H   UNL     1       6.569  25.584  56.725  1.00  0.00     0.165 HD
HETATM   11  C   UNL     1       6.157  26.699  55.080  1.00  0.00     0.090 A 
HETATM   12  C   UNL     1       6.108  26.741  53.696  1.00  0.00     0.041 A 
ENDROOT
BRANCH   1  13
HETATM   13  N   UNL     1       6.460  25.650  51.536  1.00  0.00    -0.283 NA
HETATM   14  H   UNL     1       6.949  24.850  51.130  1.00  0.00     0.128 HD
BRANCH  13  15
HETATM   15  C   UNL     1       5.211  25.885  50.773  1.00  0.00     0.195 C 
BRANCH  15  16
HETATM   16  C   UNL     1       5.277  27.216  50.014  1.00  0.00     0.230 C 
HETATM   17  N   UNL     1       5.068  27.091  48.657  1.00  0.00    -0.360 N 
HETATM   18  H   UNL     1       4.819  26.174  48.299  1.00  0.00     0.162 HD
HETATM   19  O   UNL     1       5.536  28.274  50.576  1.00  0.00    -0.272 OA
BRANCH  17  20
HETATM   20  C   UNL     1       5.107  28.223  47.757  1.00  0.00     0.118 C 
HETATM   21  C   UNL     1       3.712  28.721  47.424  1.00  0.00     0.026 C 
ENDBRANCH  17  20
ENDBRANCH  15  16
ENDBRANCH  13  15
ENDBRANCH   1  13
TORSDOF 4
ENDMDL
MODEL 5
REMARK VINA RESULT:      -6.8      3.401      5.954
REMARK  4 active torsions:
REMARK  status: ('A' for Active; 'I' for Inactive)
REMARK    1  A    between atoms: C_2  and  N_3 
REMARK       I    between atoms: N_3  and  C_4 
REMARK    2  A    between atoms: C_4  and  C_5 
REMARK    3  A    between atoms: C_5  and  N_6 
REMARK    4  A    between atoms: N_6  and  C_7 
ROOT
HETATM    1  C   UNL     1       7.390  23.742  53.635  1.00  0.00     0.022 A 
HETATM    2  C   UNL     1       7.707  24.305  54.906  1.00  0.00     0.013 A 
HETATM    3  C   UNL     1       8.630  23.625  55.746  1.00  0.00     0.044 A 
HETATM    4  C   UNL     1       8.998  24.147  56.998  1.00  0.00     0.032 A 
HETATM    5  C   UNL     1       8.450  25.348  57.447  1.00  0.00     0.021 A 
HETATM    6  C   UNL     1       7.532  26.022  56.652  1.00  0.00     0.012 A 
HETATM    7 BR   UNL     1       6.778  27.643  57.264  1.00  0.00    -0.051 Br
HETATM    8  C   UNL     1       7.159  25.513  55.403  1.00  0.00     0.034 A 
HETATM    9  N   UNL     1       9.151  22.455  55.340  1.00  0.00    -0.365 N 
HETATM   10  H   UNL     1       9.808  21.975  55.954  1.00  0.00     0.165 HD
HETATM   11  C   UNL     1       8.831  21.877  54.178  1.00  0.00     0.090 A 
HETATM   12  C   UNL     1       7.943  22.496  53.313  1.00  0.00     0.041 A 
ENDROOT
BRANCH   1  13
HETATM   13  N   UNL     1       6.436  24.355  52.806  1.00  0.00    -0.283 NA
HETATM   14  H   UNL     1       5.627  24.697  53.329  1.00  0.00     0.128 HD
BRANCH  13  15
HETATM   15  C   UNL     1       6.848  25.391  51.829  1.00  0.00     0.195 C 
BRANCH  15  16
HETATM   16  C   UNL     1       5.639  26.203  51.353  1.00  0.00     0.230 C 
HETATM   17  N   UNL     1       5.583  26.363  49.984  1.00  0.00    -0.360 N 
HETATM   18  H   UNL     1       6.277  25.881  49.423  1.00  0.00     0.162 HD
HETATM   19  O   UNL     1       4.832  26.693  52.136  1.00  0.00    -0.272 OA
BRANCH  17  20
HETATM   20  C   UNL     1       4.531  27.112  49.331  1.00  0.00     0.118 C 
HETATM   21  C   UNL     1       4.070  26.433  48.055  1.00  0.00     0.026 C 
ENDBRANCH  17  20
ENDBRANCH  15  16
ENDBRANCH  13  15
ENDBRANCH   1  13
TORSDOF 4
ENDMDL
MODEL 6
REMARK VINA RESULT:      -6.8      2.675      3.422
REMARK  4 active torsions:
REMARK  status: ('A' for Active; 'I' for Inactive)
REMARK    1  A    between atoms: C_2  and  N_3 
REMARK       I    between atoms: N_3  and  C_4 
REMARK    2  A    between atoms: C_4  and  C_5 
REMARK    3  A    between atoms: C_5  and  N_6 
REMARK    4  A    between atoms: N_6  and  C_7 
ROOT
HETATM    1  C   UNL     1       7.726  26.225  56.394  1.00  0.00     0.022 A 
HETATM    2  C   UNL     1       7.462  25.457  55.221  1.00  0.00     0.013 A 
HETATM    3  C   UNL     1       7.864  24.095  55.188  1.00  0.00     0.044 A 
HETATM    4  C   UNL     1       7.606  23.286  54.069  1.00  0.00     0.032 A 
HETATM    5  C   UNL     1       6.955  23.814  52.955  1.00  0.00     0.021 A 
HETATM    6  C   UNL     1       6.569  25.148  52.955  1.00  0.00     0.012 A 
HETATM    7 BR   UNL     1       5.699  25.870  51.441  1.00  0.00    -0.051 Br
HETATM    8  C   UNL     1       6.819  25.963  54.065  1.00  0.00     0.034 A 
HETATM    9  N   UNL     1       8.512  23.574  56.244  1.00  0.00    -0.365 N 
HETATM   10  H   UNL     1       8.799  22.597  56.206  1.00  0.00     0.165 HD
HETATM   11  C   UNL     1       8.820  24.284  57.334  1.00  0.00     0.090 A 
HETATM   12  C   UNL     1       8.448  25.616  57.427  1.00  0.00     0.041 A 
ENDROOT
BRANCH   1  13
HETATM   13  N   UNL     1       7.398  27.590  56.436  1.00  0.00    -0.283 NA
HETATM   14  H   UNL     1       6.684  27.841  55.749  1.00  0.00     0.128 HD
BRANCH  13  15
HETATM   15  C   UNL     1       7.072  28.242  57.727  1.00  0.00     0.195 C 
BRANCH  15  16
HETATM   16  C   UNL     1       8.204  29.176  58.168  1.00  0.00     0.230 C 
HETATM   17  N   UNL     1       7.915  29.901  59.305  1.00  0.00    -0.360 N 
HETATM   18  H   UNL     1       7.040  29.705  59.781  1.00  0.00     0.162 HD
HETATM   19  O   UNL     1       9.245  29.285  57.529  1.00  0.00    -0.272 OA
BRANCH  17  20
HETATM   20  C   UNL     1       8.841  30.853  59.877  1.00  0.00     0.118 C 
HETATM   21  C   UNL     1       9.160  30.525  61.323  1.00  0.00     0.026 C 
ENDBRANCH  17  20
ENDBRANCH  15  16
ENDBRANCH  13  15
ENDBRANCH   1  13
TORSDOF 4
ENDMDL
MODEL 7
REMARK VINA RESULT:      -6.6      2.415      2.846
REMARK  4 active torsions:
REMARK  status: ('A' for Active; 'I' for Inactive)
REMARK    1  A    between atoms: C_2  and  N_3 
REMARK       I    between atoms: N_3  and  C_4 
REMARK    2  A    between atoms: C_4  and  C_5 
REMARK    3  A    between atoms: C_5  and  N_6 
REMARK    4  A    between atoms: N_6  and  C_7 
ROOT
HETATM    1  C   UNL     1       5.640  25.915  54.459  1.00  0.00     0.022 A 
HETATM    2  C   UNL     1       6.470  24.800  54.140  1.00  0.00     0.013 A 
HETATM    3  C   UNL     1       7.041  24.720  52.841  1.00  0.00     0.044 A 
HETATM    4  C   UNL     1       7.886  23.658  52.481  1.00  0.00     0.032 A 
HETATM    5  C   UNL     1       8.175  22.647  53.396  1.00  0.00     0.021 A 
HETATM    6  C   UNL     1       7.615  22.693  54.666  1.00  0.00     0.012 A 
HETATM    7 BR   UNL     1       7.993  21.317  55.905  1.00  0.00    -0.051 Br
HETATM    8  C   UNL     1       6.772  23.747  55.037  1.00  0.00     0.034 A 
HETATM    9  N   UNL     1       6.756  25.674  51.938  1.00  0.00    -0.365 N 
HETATM   10  H   UNL     1       7.168  25.602  51.008  1.00  0.00     0.165 HD
HETATM   11  C   UNL     1       5.939  26.700  52.192  1.00  0.00     0.090 A 
HETATM   12  C   UNL     1       5.358  26.836  53.443  1.00  0.00     0.041 A 
ENDROOT
BRANCH   1  13
HETATM   13  N   UNL     1       5.011  25.993  55.712  1.00  0.00    -0.283 NA
HETATM   14  H   UNL     1       4.606  25.101  56.003  1.00  0.00     0.128 HD
BRANCH  13  15
HETATM   15  C   UNL     1       5.715  26.598  56.868  1.00  0.00     0.195 C 
BRANCH  15  16
HETATM   16  C   UNL     1       5.380  28.089  56.992  1.00  0.00     0.230 C 
HETATM   17  N   UNL     1       4.145  28.424  56.475  1.00  0.00    -0.360 N 
HETATM   18  H   UNL     1       3.553  27.672  56.140  1.00  0.00     0.162 HD
HETATM   19  O   UNL     1       6.168  28.897  57.471  1.00  0.00    -0.272 OA
BRANCH  17  20
HETATM   20  C   UNL     1       3.645  29.781  56.477  1.00  0.00     0.118 C 
HETATM   21  C   UNL     1       3.705  30.401  55.093  1.00  0.00     0.026 C 
ENDBRANCH  17  20
ENDBRANCH  15  16
ENDBRANCH  13  15
ENDBRANCH   1  13
TORSDOF 4
ENDMDL
MODEL 8
REMARK VINA RESULT:      -6.6      2.116      2.652
REMARK  4 active torsions:
REMARK  status: ('A' for Active; 'I' for Inactive)
REMARK    1  A    between atoms: C_2  and  N_3 
REMARK       I    between atoms: N_3  and  C_4 
REMARK    2  A    between atoms: C_4  and  C_5 
REMARK    3  A    between atoms: C_5  and  N_6 
REMARK    4  A    between atoms: N_6  and  C_7 
ROOT
HETATM    1  C   UNL     1       5.168  26.919  53.404  1.00  0.00     0.022 A 
HETATM    2  C   UNL     1       6.135  25.870  53.397  1.00  0.00     0.013 A 
HETATM    3  C   UNL     1       6.670  25.440  52.153  1.00  0.00     0.044 A 
HETATM    4  C   UNL     1       7.643  24.429  52.089  1.00  0.00     0.032 A 
HETATM    5  C   UNL     1       8.097  23.816  53.255  1.00  0.00     0.021 A 
HETATM    6  C   UNL     1       7.576  24.206  54.482  1.00  0.00     0.012 A 
HETATM    7 BR   UNL     1       8.180  23.368  56.064  1.00  0.00    -0.051 Br
HETATM    8  C   UNL     1       6.608  25.213  54.558  1.00  0.00     0.034 A 
HETATM    9  N   UNL     1       6.228  26.004  51.016  1.00  0.00    -0.365 N 
HETATM   10  H   UNL     1       6.616  25.683  50.130  1.00  0.00     0.165 HD
HETATM   11  C   UNL     1       5.284  26.951  50.989  1.00  0.00     0.090 A 
HETATM   12  C   UNL     1       4.730  27.416  52.171  1.00  0.00     0.041 A 
ENDROOT
BRANCH   1  13
HETATM   13  N   UNL     1       4.574  27.326  54.610  1.00  0.00    -0.283 NA
HETATM   14  H   UNL     1       4.892  26.774  55.408  1.00  0.00     0.128 HD
BRANCH  13  15
HETATM   15  C   UNL     1       4.561  28.759  54.992  1.00  0.00     0.195 C 
BRANCH  15  16
HETATM   16  C   UNL     1       5.611  29.045  56.072  1.00  0.00     0.230 C 
HETATM   17  N   UNL     1       6.893  29.170  55.579  1.00  0.00    -0.360 N 
HETATM   18  H   UNL     1       7.018  29.142  54.572  1.00  0.00     0.162 HD
HETATM   19  O   UNL     1       5.322  29.109  57.262  1.00  0.00    -0.272 OA
BRANCH  17  20
HETATM   20  C   UNL     1       8.033  29.423  56.433  1.00  0.00     0.118 C 
HETATM   21  C   UNL     1       8.618  28.134  56.981  1.00  0.00     0.026 C 
ENDBRANCH  17  20
ENDBRANCH  15  16
ENDBRANCH  13  15
ENDBRANCH   1  13
TORSDOF 4
ENDMDL
MODEL 9
REMARK VINA RESULT:      -6.5      5.111      7.512
REMARK  4 active torsions:
REMARK  status: ('A' for Active; 'I' for Inactive)
REMARK    1  A    between atoms: C_2  and  N_3 
REMARK       I    between atoms: N_3  and  C_4 
REMARK    2  A    between atoms: C_4  and  C_5 
REMARK    3  A    between atoms: C_5  and  N_6 
REMARK    4  A    between atoms: N_6  and  C_7 
ROOT
HETATM    1  C   UNL     1       8.563  28.983  57.719  1.00  0.00     0.022 A 
HETATM    2  C   UNL     1       8.787  30.065  58.622  1.00  0.00     0.013 A 
HETATM    3  C   UNL     1       9.851  30.969  58.356  1.00  0.00     0.044 A 
HETATM    4  C   UNL     1      10.101  32.066  59.197  1.00  0.00     0.032 A 
HETATM    5  C   UNL     1       9.310  32.283  60.325  1.00  0.00     0.021 A 
HETATM    6  C   UNL     1       8.277  31.402  60.616  1.00  0.00     0.012 A 
HETATM    7 BR   UNL     1       7.212  31.685  62.151  1.00  0.00    -0.051 Br
HETATM    8  C   UNL     1       8.017  30.307  59.785  1.00  0.00     0.034 A 
HETATM    9  N   UNL     1      10.638  30.765  57.286  1.00  0.00    -0.365 N 
HETATM   10  H   UNL     1      11.400  31.418  57.110  1.00  0.00     0.165 HD
HETATM   11  C   UNL     1      10.484  29.730  56.454  1.00  0.00     0.090 A 
HETATM   12  C   UNL     1       9.460  28.818  56.657  1.00  0.00     0.041 A 
ENDROOT
BRANCH   1  13
HETATM   13  N   UNL     1       7.560  28.036  57.984  1.00  0.00    -0.283 NA
HETATM   14  H   UNL     1       7.209  28.097  58.942  1.00  0.00     0.128 HD
BRANCH  13  15
HETATM   15  C   UNL     1       6.411  27.884  57.061  1.00  0.00     0.195 C 
BRANCH  15  16
HETATM   16  C   UNL     1       5.651  29.207  56.912  1.00  0.00     0.230 C 
HETATM   17  N   UNL     1       4.822  29.493  57.977  1.00  0.00    -0.360 N 
HETATM   18  H   UNL     1       4.843  28.866  58.774  1.00  0.00     0.162 HD
HETATM   19  O   UNL     1       5.753  29.908  55.911  1.00  0.00    -0.272 OA
BRANCH  17  20
HETATM   20  C   UNL     1       4.003  30.685  58.025  1.00  0.00     0.118 C 
HETATM   21  C   UNL     1       4.720  31.828  58.720  1.00  0.00     0.026 C 
ENDBRANCH  17  20
ENDBRANCH  15  16
ENDBRANCH  13  15
ENDBRANCH   1  13
TORSDOF 4
ENDMDL
MODEL 10
REMARK VINA RESULT:      -6.4      7.111     10.739
REMARK  4 active torsions:
REMARK  status: ('A' for Active; 'I' for Inactive)
REMARK    1  A    between atoms: C_2  and  N_3 
REMARK       I    between atoms: N_3  and  C_4 
REMARK    2  A    between atoms: C_4  and  C_5 
REMARK    3  A    between atoms: C_5  and  N_6 
REMARK    4  A    between atoms: N_6  and  C_7 
ROOT
HETATM    1  C   UNL     1       7.246  32.217  62.252  1.00  0.00     0.022 A 
HETATM    2  C   UNL     1       6.254  33.175  61.885  1.00  0.00     0.013 A 
HETATM    3  C   UNL     1       5.964  34.239  62.781  1.00  0.00     0.044 A 
HETATM    4  C   UNL     1       5.016  35.224  62.460  1.00  0.00     0.032 A 
HETATM    5  C   UNL     1       4.326  35.168  61.250  1.00  0.00     0.021 A 
HETATM    6  C   UNL     1       4.579  34.127  60.365  1.00  0.00     0.012 A 
HETATM    7 BR   UNL     1       3.636  34.040  58.730  1.00  0.00    -0.051 Br
HETATM    8  C   UNL     1       5.522  33.141  60.674  1.00  0.00     0.034 A 
HETATM    9  N   UNL     1       6.603  34.297  63.962  1.00  0.00    -0.365 N 
HETATM   10  H   UNL     1       6.383  35.063  64.598  1.00  0.00     0.165 HD
HETATM   11  C   UNL     1       7.497  33.385  64.355  1.00  0.00     0.090 A 
HETATM   12  C   UNL     1       7.827  32.328  63.521  1.00  0.00     0.041 A 
ENDROOT
BRANCH   1  13
HETATM   13  N   UNL     1       7.513  31.119  61.419  1.00  0.00    -0.283 NA
HETATM   14  H   UNL     1       6.927  31.113  60.581  1.00  0.00     0.128 HD
BRANCH  13  15
HETATM   15  C   UNL     1       8.906  30.793  61.032  1.00  0.00     0.195 C 
BRANCH  15  16
HETATM   16  C   UNL     1       9.165  31.158  59.565  1.00  0.00     0.230 C 
HETATM   17  N   UNL     1       9.304  30.062  58.739  1.00  0.00    -0.360 N 
HETATM   18  H   UNL     1       9.153  29.143  59.141  1.00  0.00     0.162 HD
HETATM   19  O   UNL     1       9.276  32.320  59.192  1.00  0.00    -0.272 OA
BRANCH  17  20
HETATM   20  C   UNL     1       9.571  30.187  57.322  1.00  0.00     0.118 C 
HETATM   21  C   UNL     1      10.977  29.731  56.976  1.00  0.00     0.026 C 
ENDBRANCH  17  20
ENDBRANCH  15  16
ENDBRANCH  13  15
ENDBRANCH   1  13
TORSDOF 4
ENDMDL
