MODEL 1
REMARK VINA RESULT:     -10.3      0.000      0.000
REMARK  3 active torsions:
REMARK  status: ('A' for Active; 'I' for Inactive)
REMARK    1  A    between atoms: C_4  and  C_5 
REMARK    2  A    between atoms: C_5  and  C_6 
REMARK    3  A    between atoms: C_6  and  N_7 
ROOT
HETATM    1  N   UNL     1       7.420  26.180  55.559  1.00  0.00    -0.071 N 
HETATM    2  H   UNL     1       8.400  25.862  55.591  1.00  0.00     0.279 HD
HETATM    3  C   UNL     1       7.017  26.560  56.967  1.00  0.00     0.237 C 
HETATM    4  C   UNL     1       7.885  27.692  57.469  1.00  0.00     0.065 C 
HETATM    5  C   UNL     1       7.776  28.954  56.587  1.00  0.00     0.076 C 
HETATM    6  N   UNL     1       8.855  29.870  57.000  1.00  0.00    -0.373 N 
HETATM    7  C   UNL     1       8.629  30.628  58.162  1.00  0.00     0.056 A 
HETATM    8  C   UNL     1       7.335  30.994  58.568  1.00  0.00     0.065 A 
HETATM    9  N   UNL     1       6.260  30.530  57.777  1.00  0.00    -0.321 N 
HETATM   10  C   UNL     1       6.416  29.600  56.758  1.00  0.00     0.045 A 
HETATM   11  C   UNL     1       4.934  30.880  57.854  1.00  0.00     0.097 A 
HETATM   12  C   UNL     1       4.258  30.274  56.821  1.00  0.00     0.020 A 
HETATM   13  C   UNL     1       5.193  29.483  56.117  1.00  0.00     0.029 A 
HETATM   14  C   UNL     1       9.717  31.156  58.866  1.00  0.00     0.031 A 
HETATM   15  C   UNL     1       9.518  31.961  59.991  1.00  0.00     0.002 A 
HETATM   16  C   UNL     1       8.227  32.277  60.407  1.00  0.00     0.002 A 
HETATM   17  C   UNL     1       7.129  31.807  59.690  1.00  0.00     0.032 A 
HETATM   18  C   UNL     1       8.078  28.568  55.124  1.00  0.00     0.065 C 
HETATM   19  C   UNL     1       7.333  27.346  54.604  1.00  0.00     0.237 C 
HETATM   20  H   UNL     1       9.797  29.488  56.975  1.00  0.00     0.161 HD
ENDROOT
BRANCH   1  21
HETATM   21  C   UNL     1       6.580  24.986  55.112  1.00  0.00     0.239 C 
BRANCH  21  22
HETATM   22  C   UNL     1       7.085  24.360  53.810  1.00  0.00     0.066 C 
BRANCH  22  23
HETATM   23  C   UNL     1       7.524  22.943  54.075  1.00  0.00    -0.057 A 
HETATM   24  C   UNL     1       7.873  22.100  53.010  1.00  0.00     0.007 A 
HETATM   25  C   UNL     1       8.206  20.766  53.247  1.00  0.00     0.001 A 
HETATM   26  C   UNL     1       8.196  20.263  54.546  1.00  0.00     0.000 A 
HETATM   27  C   UNL     1       7.858  21.095  55.611  1.00  0.00     0.001 A 
HETATM   28  C   UNL     1       7.523  22.430  55.379  1.00  0.00     0.007 A 
ENDBRANCH  22  23
ENDBRANCH  21  22
ENDBRANCH   1  21
TORSDOF 3
ENDMDL
MODEL 2
REMARK VINA RESULT:     -10.1      1.589      3.228
REMARK  3 active torsions:
REMARK  status: ('A' for Active; 'I' for Inactive)
REMARK    1  A    between atoms: C_4  and  C_5 
REMARK    2  A    between atoms: C_5  and  C_6 
REMARK    3  A    between atoms: C_6  and  N_7 
ROOT
HETATM    1  N   UNL     1       5.312  25.775  54.617  1.00  0.00    -0.071 N 
HETATM    2  H   UNL     1       4.293  25.696  54.487  1.00  0.00     0.279 HD
HETATM    3  C   UNL     1       5.701  27.207  54.319  1.00  0.00     0.237 C 
HETATM    4  C   UNL     1       5.006  28.146  55.279  1.00  0.00     0.065 C 
HETATM    5  C   UNL     1       5.367  27.853  56.752  1.00  0.00     0.076 C 
HETATM    6  N   UNL     1       4.434  28.627  57.592  1.00  0.00    -0.373 N 
HETATM    7  C   UNL     1       4.722  29.992  57.762  1.00  0.00     0.056 A 
HETATM    8  C   UNL     1       6.037  30.485  57.704  1.00  0.00     0.065 A 
HETATM    9  N   UNL     1       7.059  29.551  57.425  1.00  0.00    -0.321 N 
HETATM   10  C   UNL     1       6.804  28.244  57.030  1.00  0.00     0.045 A 
HETATM   11  C   UNL     1       8.420  29.736  57.481  1.00  0.00     0.097 A 
HETATM   12  C   UNL     1       9.038  28.531  57.239  1.00  0.00     0.020 A 
HETATM   13  C   UNL     1       8.022  27.586  56.975  1.00  0.00     0.029 A 
HETATM   14  C   UNL     1       3.702  30.874  58.137  1.00  0.00     0.031 A 
HETATM   15  C   UNL     1       3.973  32.225  58.369  1.00  0.00     0.002 A 
HETATM   16  C   UNL     1       5.276  32.706  58.264  1.00  0.00     0.002 A 
HETATM   17  C   UNL     1       6.317  31.836  57.944  1.00  0.00     0.032 A 
HETATM   18  C   UNL     1       5.081  26.367  57.050  1.00  0.00     0.065 C 
HETATM   19  C   UNL     1       5.639  25.378  56.036  1.00  0.00     0.237 C 
HETATM   20  H   UNL     1       3.444  28.468  57.420  1.00  0.00     0.161 HD
ENDROOT
BRANCH   1  21
HETATM   21  C   UNL     1       5.966  24.862  53.582  1.00  0.00     0.239 C 
BRANCH  21  22
HETATM   22  C   UNL     1       7.434  24.568  53.896  1.00  0.00     0.066 C 
BRANCH  22  23
HETATM   23  C   UNL     1       7.624  23.081  54.046  1.00  0.00    -0.057 A 
HETATM   24  C   UNL     1       7.665  22.497  55.321  1.00  0.00     0.007 A 
HETATM   25  C   UNL     1       7.917  21.132  55.463  1.00  0.00     0.001 A 
HETATM   26  C   UNL     1       8.128  20.339  54.337  1.00  0.00     0.000 A 
HETATM   27  C   UNL     1       8.082  20.908  53.067  1.00  0.00     0.001 A 
HETATM   28  C   UNL     1       7.831  22.273  52.919  1.00  0.00     0.007 A 
ENDBRANCH  22  23
ENDBRANCH  21  22
ENDBRANCH   1  21
TORSDOF 3
ENDMDL
MODEL 3
REMARK VINA RESULT:      -9.9      1.551      8.506
REMARK  3 active torsions:
REMARK  status: ('A' for Active; 'I' for Inactive)
REMARK    1  A    between atoms: C_4  and  C_5 
REMARK    2  A    between atoms: C_5  and  C_6 
REMARK    3  A    between atoms: C_6  and  N_7 
ROOT
HETATM    1  N   UNL     1       7.137  28.261  57.741  1.00  0.00    -0.071 N 
HETATM    2  H   UNL     1       7.318  27.791  58.641  1.00  0.00     0.279 HD
HETATM    3  C   UNL     1       8.161  27.754  56.747  1.00  0.00     0.237 C 
HETATM    4  C   UNL     1       8.010  26.261  56.562  1.00  0.00     0.065 C 
HETATM    5  C   UNL     1       6.610  25.870  56.043  1.00  0.00     0.076 C 
HETATM    6  N   UNL     1       6.491  24.406  56.169  1.00  0.00    -0.373 N 
HETATM    7  C   UNL     1       7.108  23.634  55.170  1.00  0.00     0.056 A 
HETATM    8  C   UNL     1       7.283  24.117  53.862  1.00  0.00     0.065 A 
HETATM    9  N   UNL     1       6.848  25.436  53.603  1.00  0.00    -0.321 N 
HETATM   10  C   UNL     1       6.441  26.310  54.603  1.00  0.00     0.045 A 
HETATM   11  C   UNL     1       6.747  26.077  52.391  1.00  0.00     0.097 A 
HETATM   12  C   UNL     1       6.172  27.310  52.592  1.00  0.00     0.020 A 
HETATM   13  C   UNL     1       5.959  27.450  53.981  1.00  0.00     0.029 A 
HETATM   14  C   UNL     1       7.437  22.299  55.430  1.00  0.00     0.031 A 
HETATM   15  C   UNL     1       7.999  21.493  54.436  1.00  0.00     0.002 A 
HETATM   16  C   UNL     1       8.207  22.002  53.157  1.00  0.00     0.002 A 
HETATM   17  C   UNL     1       7.838  23.313  52.859  1.00  0.00     0.032 A 
HETATM   18  C   UNL     1       5.543  26.470  56.983  1.00  0.00     0.065 C 
HETATM   19  C   UNL     1       5.724  27.944  57.318  1.00  0.00     0.237 C 
HETATM   20  H   UNL     1       6.655  24.024  57.097  1.00  0.00     0.161 HD
ENDROOT
BRANCH   1  21
HETATM   21  C   UNL     1       7.367  29.754  57.965  1.00  0.00     0.239 C 
BRANCH  21  22
HETATM   22  C   UNL     1       8.721  30.054  58.610  1.00  0.00     0.066 C 
BRANCH  22  23
HETATM   23  C   UNL     1       8.511  30.883  59.851  1.00  0.00    -0.057 A 
HETATM   24  C   UNL     1       9.163  30.548  61.047  1.00  0.00     0.007 A 
HETATM   25  C   UNL     1       8.910  31.268  62.214  1.00  0.00     0.001 A 
HETATM   26  C   UNL     1       8.008  32.330  62.199  1.00  0.00     0.000 A 
HETATM   27  C   UNL     1       7.361  32.676  61.014  1.00  0.00     0.001 A 
HETATM   28  C   UNL     1       7.610  31.957  59.844  1.00  0.00     0.007 A 
ENDBRANCH  22  23
ENDBRANCH  21  22
ENDBRANCH   1  21
TORSDOF 3
ENDMDL
MODEL 4
REMARK VINA RESULT:      -9.8      2.121      8.114
REMARK  3 active torsions:
REMARK  status: ('A' for Active; 'I' for Inactive)
REMARK    1  A    between atoms: C_4  and  C_5 
REMARK    2  A    between atoms: C_5  and  C_6 
REMARK    3  A    between atoms: C_6  and  N_7 
ROOT
HETATM    1  N   UNL     1       5.356  27.357  53.819  1.00  0.00    -0.071 N 
HETATM    2  H   UNL     1       5.030  27.241  52.849  1.00  0.00     0.279 HD
HETATM    3  C   UNL     1       5.028  26.083  54.568  1.00  0.00     0.237 C 
HETATM    4  C   UNL     1       5.752  24.912  53.942  1.00  0.00     0.065 C 
HETATM    5  C   UNL     1       7.285  25.091  53.958  1.00  0.00     0.076 C 
HETATM    6  N   UNL     1       7.856  24.045  53.088  1.00  0.00    -0.373 N 
HETATM    7  C   UNL     1       7.971  22.758  53.641  1.00  0.00     0.056 A 
HETATM    8  C   UNL     1       8.140  22.557  55.022  1.00  0.00     0.065 A 
HETATM    9  N   UNL     1       8.147  23.708  55.841  1.00  0.00    -0.321 N 
HETATM   10  C   UNL     1       7.814  24.973  55.372  1.00  0.00     0.045 A 
HETATM   11  C   UNL     1       8.461  23.802  57.175  1.00  0.00     0.097 A 
HETATM   12  C   UNL     1       8.446  25.128  57.539  1.00  0.00     0.020 A 
HETATM   13  C   UNL     1       8.059  25.869  56.401  1.00  0.00     0.029 A 
HETATM   14  C   UNL     1       8.062  21.647  52.796  1.00  0.00     0.031 A 
HETATM   15  C   UNL     1       8.235  20.363  53.318  1.00  0.00     0.002 A 
HETATM   16  C   UNL     1       8.356  20.176  54.693  1.00  0.00     0.002 A 
HETATM   17  C   UNL     1       8.323  21.274  55.551  1.00  0.00     0.032 A 
HETATM   18  C   UNL     1       7.638  26.440  53.295  1.00  0.00     0.065 C 
HETATM   19  C   UNL     1       6.839  27.637  53.789  1.00  0.00     0.237 C 
HETATM   20  H   UNL     1       7.502  24.017  52.135  1.00  0.00     0.161 HD
ENDROOT
BRANCH   1  21
HETATM   21  C   UNL     1       4.550  28.504  54.425  1.00  0.00     0.239 C 
BRANCH  21  22
HETATM   22  C   UNL     1       4.323  28.339  55.929  1.00  0.00     0.066 C 
BRANCH  22  23
HETATM   23  C   UNL     1       5.217  29.295  56.677  1.00  0.00    -0.057 A 
HETATM   24  C   UNL     1       6.380  28.830  57.309  1.00  0.00     0.007 A 
HETATM   25  C   UNL     1       7.167  29.699  58.064  1.00  0.00     0.001 A 
HETATM   26  C   UNL     1       6.803  31.038  58.194  1.00  0.00     0.000 A 
HETATM   27  C   UNL     1       5.654  31.510  57.564  1.00  0.00     0.001 A 
HETATM   28  C   UNL     1       4.862  30.645  56.808  1.00  0.00     0.007 A 
ENDBRANCH  22  23
ENDBRANCH  21  22
ENDBRANCH   1  21
TORSDOF 3
ENDMDL
MODEL 5
REMARK VINA RESULT:      -9.7      4.211      8.121
REMARK  3 active torsions:
REMARK  status: ('A' for Active; 'I' for Inactive)
REMARK    1  A    between atoms: C_4  and  C_5 
REMARK    2  A    between atoms: C_5  and  C_6 
REMARK    3  A    between atoms: C_6  and  N_7 
ROOT
HETATM    1  N   UNL     1       5.473  26.215  51.871  1.00  0.00    -0.071 N 
HETATM    2  H   UNL     1       5.419  25.723  50.967  1.00  0.00     0.279 HD
HETATM    3  C   UNL     1       5.005  25.254  52.943  1.00  0.00     0.237 C 
HETATM    4  C   UNL     1       5.909  24.044  52.987  1.00  0.00     0.065 C 
HETATM    5  C   UNL     1       7.377  24.415  53.290  1.00  0.00     0.076 C 
HETATM    6  N   UNL     1       8.194  23.215  53.033  1.00  0.00    -0.373 N 
HETATM    7  C   UNL     1       8.205  22.232  54.037  1.00  0.00     0.056 A 
HETATM    8  C   UNL     1       8.011  22.554  55.391  1.00  0.00     0.065 A 
HETATM    9  N   UNL     1       7.760  23.909  55.698  1.00  0.00    -0.321 N 
HETATM   10  C   UNL     1       7.517  24.873  54.728  1.00  0.00     0.045 A 
HETATM   11  C   UNL     1       7.707  24.507  56.934  1.00  0.00     0.097 A 
HETATM   12  C   UNL     1       7.549  25.862  56.762  1.00  0.00     0.020 A 
HETATM   13  C   UNL     1       7.450  26.097  55.373  1.00  0.00     0.029 A 
HETATM   14  C   UNL     1       8.555  20.916  53.714  1.00  0.00     0.031 A 
HETATM   15  C   UNL     1       8.631  19.932  54.703  1.00  0.00     0.002 A 
HETATM   16  C   UNL     1       8.391  20.259  56.036  1.00  0.00     0.002 A 
HETATM   17  C   UNL     1       8.093  21.574  56.389  1.00  0.00     0.032 A 
HETATM   18  C   UNL     1       7.843  25.478  52.273  1.00  0.00     0.065 C 
HETATM   19  C   UNL     1       6.900  26.658  52.084  1.00  0.00     0.237 C 
HETATM   20  H   UNL     1       8.105  22.807  52.105  1.00  0.00     0.161 HD
ENDROOT
BRANCH   1  21
HETATM   21  C   UNL     1       4.495  27.386  51.799  1.00  0.00     0.239 C 
BRANCH  21  22
HETATM   22  C   UNL     1       4.612  28.176  50.495  1.00  0.00     0.066 C 
BRANCH  22  23
HETATM   23  C   UNL     1       3.782  27.508  49.430  1.00  0.00    -0.057 A 
HETATM   24  C   UNL     1       4.308  26.441  48.686  1.00  0.00     0.007 A 
HETATM   25  C   UNL     1       3.569  25.872  47.649  1.00  0.00     0.001 A 
HETATM   26  C   UNL     1       2.299  26.359  47.346  1.00  0.00     0.000 A 
HETATM   27  C   UNL     1       1.764  27.413  48.085  1.00  0.00     0.001 A 
HETATM   28  C   UNL     1       2.501  27.986  49.122  1.00  0.00     0.007 A 
ENDBRANCH  22  23
ENDBRANCH  21  22
ENDBRANCH   1  21
TORSDOF 3
ENDMDL
MODEL 6
REMARK VINA RESULT:      -9.4      3.308      4.854
REMARK  3 active torsions:
REMARK  status: ('A' for Active; 'I' for Inactive)
REMARK    1  A    between atoms: C_4  and  C_5 
REMARK    2  A    between atoms: C_5  and  C_6 
REMARK    3  A    between atoms: C_6  and  N_7 
ROOT
HETATM    1  N   UNL     1       7.048  24.846  52.515  1.00  0.00    -0.071 N 
HETATM    2  H   UNL     1       6.924  24.865  51.492  1.00  0.00     0.279 HD
HETATM    3  C   UNL     1       7.435  26.242  52.955  1.00  0.00     0.237 C 
HETATM    4  C   UNL     1       6.335  27.220  52.611  1.00  0.00     0.065 C 
HETATM    5  C   UNL     1       4.996  26.863  53.291  1.00  0.00     0.076 C 
HETATM    6  N   UNL     1       3.954  27.702  52.671  1.00  0.00    -0.373 N 
HETATM    7  C   UNL     1       3.861  29.030  53.123  1.00  0.00     0.056 A 
HETATM    8  C   UNL     1       4.242  29.398  54.424  1.00  0.00     0.065 A 
HETATM    9  N   UNL     1       4.763  28.379  55.252  1.00  0.00    -0.321 N 
HETATM   10  C   UNL     1       5.080  27.111  54.783  1.00  0.00     0.045 A 
HETATM   11  C   UNL     1       5.043  28.434  56.596  1.00  0.00     0.097 A 
HETATM   12  C   UNL     1       5.427  27.182  57.018  1.00  0.00     0.020 A 
HETATM   13  C   UNL     1       5.431  26.343  55.882  1.00  0.00     0.029 A 
HETATM   14  C   UNL     1       3.249  29.994  52.315  1.00  0.00     0.031 A 
HETATM   15  C   UNL     1       3.093  31.309  52.763  1.00  0.00     0.002 A 
HETATM   16  C   UNL     1       3.516  31.668  54.041  1.00  0.00     0.002 A 
HETATM   17  C   UNL     1       4.081  30.711  54.883  1.00  0.00     0.032 A 
HETATM   18  C   UNL     1       4.633  25.403  52.945  1.00  0.00     0.065 C 
HETATM   19  C   UNL     1       5.752  24.389  53.140  1.00  0.00     0.237 C 
HETATM   20  H   UNL     1       3.876  27.640  51.659  1.00  0.00     0.161 HD
ENDROOT
BRANCH   1  21
HETATM   21  C   UNL     1       8.210  23.899  52.805  1.00  0.00     0.239 C 
BRANCH  21  22
HETATM   22  C   UNL     1       7.769  22.439  52.923  1.00  0.00     0.066 C 
BRANCH  22  23
HETATM   23  C   UNL     1       8.044  21.945  54.320  1.00  0.00    -0.057 A 
HETATM   24  C   UNL     1       8.034  20.571  54.600  1.00  0.00     0.007 A 
HETATM   25  C   UNL     1       8.214  20.117  55.907  1.00  0.00     0.001 A 
HETATM   26  C   UNL     1       8.408  21.028  56.943  1.00  0.00     0.000 A 
HETATM   27  C   UNL     1       8.428  22.395  56.673  1.00  0.00     0.001 A 
HETATM   28  C   UNL     1       8.247  22.854  55.368  1.00  0.00     0.007 A 
ENDBRANCH  22  23
ENDBRANCH  21  22
ENDBRANCH   1  21
TORSDOF 3
ENDMDL
MODEL 7
REMARK VINA RESULT:      -9.3      2.275      8.729
REMARK  3 active torsions:
REMARK  status: ('A' for Active; 'I' for Inactive)
REMARK    1  A    between atoms: C_4  and  C_5 
REMARK    2  A    between atoms: C_5  and  C_6 
REMARK    3  A    between atoms: C_6  and  N_7 
ROOT
HETATM    1  N   UNL     1       7.734  30.292  57.823  1.00  0.00    -0.071 N 
HETATM    2  H   UNL     1       7.556  31.159  57.295  1.00  0.00     0.279 HD
HETATM    3  C   UNL     1       6.530  29.391  57.641  1.00  0.00     0.237 C 
HETATM    4  C   UNL     1       6.353  29.050  56.179  1.00  0.00     0.065 C 
HETATM    5  C   UNL     1       7.581  28.324  55.590  1.00  0.00     0.076 C 
HETATM    6  N   UNL     1       7.412  28.296  54.126  1.00  0.00    -0.373 N 
HETATM    7  C   UNL     1       6.549  27.314  53.609  1.00  0.00     0.056 A 
HETATM    8  C   UNL     1       6.340  26.090  54.267  1.00  0.00     0.065 A 
HETATM    9  N   UNL     1       7.006  25.903  55.498  1.00  0.00    -0.321 N 
HETATM   10  C   UNL     1       7.685  26.922  56.155  1.00  0.00     0.045 A 
HETATM   11  C   UNL     1       7.109  24.754  56.245  1.00  0.00     0.097 A 
HETATM   12  C   UNL     1       7.941  24.995  57.313  1.00  0.00     0.020 A 
HETATM   13  C   UNL     1       8.322  26.354  57.246  1.00  0.00     0.029 A 
HETATM   14  C   UNL     1       5.984  27.488  52.341  1.00  0.00     0.031 A 
HETATM   15  C   UNL     1       5.168  26.501  51.779  1.00  0.00     0.002 A 
HETATM   16  C   UNL     1       4.936  25.311  52.465  1.00  0.00     0.002 A 
HETATM   17  C   UNL     1       5.531  25.094  53.707  1.00  0.00     0.032 A 
HETATM   18  C   UNL     1       8.841  29.174  55.861  1.00  0.00     0.065 C 
HETATM   19  C   UNL     1       9.001  29.666  57.292  1.00  0.00     0.237 C 
HETATM   20  H   UNL     1       7.271  29.197  53.677  1.00  0.00     0.161 HD
ENDROOT
BRANCH   1  21
HETATM   21  C   UNL     1       7.838  30.682  59.295  1.00  0.00     0.239 C 
BRANCH  21  22
HETATM   22  C   UNL     1       7.828  32.197  59.509  1.00  0.00     0.066 C 
BRANCH  22  23
HETATM   23  C   UNL     1       7.596  32.494  60.968  1.00  0.00    -0.057 A 
HETATM   24  C   UNL     1       8.488  32.015  61.939  1.00  0.00     0.007 A 
HETATM   25  C   UNL     1       8.234  32.224  63.294  1.00  0.00     0.001 A 
HETATM   26  C   UNL     1       7.091  32.914  63.693  1.00  0.00     0.000 A 
HETATM   27  C   UNL     1       6.203  33.400  62.736  1.00  0.00     0.001 A 
HETATM   28  C   UNL     1       6.452  33.192  61.379  1.00  0.00     0.007 A 
ENDBRANCH  22  23
ENDBRANCH  21  22
ENDBRANCH   1  21
TORSDOF 3
ENDMDL
MODEL 8
REMARK VINA RESULT:      -9.2      1.482      2.174
REMARK  3 active torsions:
REMARK  status: ('A' for Active; 'I' for Inactive)
REMARK    1  A    between atoms: C_4  and  C_5 
REMARK    2  A    between atoms: C_5  and  C_6 
REMARK    3  A    between atoms: C_6  and  N_7 
ROOT
HETATM    1  N   UNL     1       6.932  25.765  54.582  1.00  0.00    -0.071 N 
HETATM    2  H   UNL     1       7.727  25.477  55.170  1.00  0.00     0.279 HD
HETATM    3  C   UNL     1       5.818  26.209  55.506  1.00  0.00     0.237 C 
HETATM    4  C   UNL     1       6.269  27.388  56.337  1.00  0.00     0.065 C 
HETATM    5  C   UNL     1       6.676  28.599  55.469  1.00  0.00     0.076 C 
HETATM    6  N   UNL     1       7.350  29.565  56.355  1.00  0.00    -0.373 N 
HETATM    7  C   UNL     1       6.523  30.376  57.151  1.00  0.00     0.056 A 
HETATM    8  C   UNL     1       5.223  30.727  56.749  1.00  0.00     0.065 A 
HETATM    9  N   UNL     1       4.764  30.193  55.525  1.00  0.00    -0.321 N 
HETATM   10  C   UNL     1       5.454  29.215  54.820  1.00  0.00     0.045 A 
HETATM   11  C   UNL     1       3.620  30.510  54.832  1.00  0.00     0.097 A 
HETATM   12  C   UNL     1       3.627  29.832  53.636  1.00  0.00     0.020 A 
HETATM   13  C   UNL     1       4.790  29.032  53.617  1.00  0.00     0.029 A 
HETATM   14  C   UNL     1       7.041  30.970  58.306  1.00  0.00     0.031 A 
HETATM   15  C   UNL     1       6.257  31.828  59.083  1.00  0.00     0.002 A 
HETATM   16  C   UNL     1       4.954  32.130  58.695  1.00  0.00     0.002 A 
HETATM   17  C   UNL     1       4.435  31.592  57.518  1.00  0.00     0.032 A 
HETATM   18  C   UNL     1       7.736  28.144  54.443  1.00  0.00     0.065 C 
HETATM   19  C   UNL     1       7.396  26.877  53.672  1.00  0.00     0.237 C 
HETATM   20  H   UNL     1       8.146  29.208  56.879  1.00  0.00     0.161 HD
ENDROOT
BRANCH   1  21
HETATM   21  C   UNL     1       6.473  24.527  53.816  1.00  0.00     0.239 C 
BRANCH  21  22
HETATM   22  C   UNL     1       7.577  23.927  52.944  1.00  0.00     0.066 C 
BRANCH  22  23
HETATM   23  C   UNL     1       8.071  22.649  53.572  1.00  0.00    -0.057 A 
HETATM   24  C   UNL     1       7.939  21.429  52.893  1.00  0.00     0.007 A 
HETATM   25  C   UNL     1       8.326  20.236  53.504  1.00  0.00     0.001 A 
HETATM   26  C   UNL     1       8.849  20.250  54.796  1.00  0.00     0.000 A 
HETATM   27  C   UNL     1       8.991  21.458  55.475  1.00  0.00     0.001 A 
HETATM   28  C   UNL     1       8.604  22.653  54.868  1.00  0.00     0.007 A 
ENDBRANCH  22  23
ENDBRANCH  21  22
ENDBRANCH   1  21
TORSDOF 3
ENDMDL
MODEL 9
REMARK VINA RESULT:      -9.1      3.834      7.627
REMARK  3 active torsions:
REMARK  status: ('A' for Active; 'I' for Inactive)
REMARK    1  A    between atoms: C_4  and  C_5 
REMARK    2  A    between atoms: C_5  and  C_6 
REMARK    3  A    between atoms: C_6  and  N_7 
ROOT
HETATM    1  N   UNL     1       6.950  24.789  54.198  1.00  0.00    -0.071 N 
HETATM    2  H   UNL     1       7.204  23.919  53.708  1.00  0.00     0.279 HD
HETATM    3  C   UNL     1       7.447  25.948  53.362  1.00  0.00     0.237 C 
HETATM    4  C   UNL     1       6.779  25.935  52.005  1.00  0.00     0.065 C 
HETATM    5  C   UNL     1       5.243  26.047  52.105  1.00  0.00     0.076 C 
HETATM    6  N   UNL     1       4.695  25.744  50.770  1.00  0.00    -0.373 N 
HETATM    7  C   UNL     1       4.738  26.781  49.820  1.00  0.00     0.056 A 
HETATM    8  C   UNL     1       4.701  28.133  50.199  1.00  0.00     0.065 A 
HETATM    9  N   UNL     1       4.662  28.411  51.583  1.00  0.00    -0.321 N 
HETATM   10  C   UNL     1       4.844  27.437  52.556  1.00  0.00     0.045 A 
HETATM   11  C   UNL     1       4.452  29.619  52.204  1.00  0.00     0.097 A 
HETATM   12  C   UNL     1       4.382  29.411  53.561  1.00  0.00     0.020 A 
HETATM   13  C   UNL     1       4.608  28.034  53.784  1.00  0.00     0.029 A 
HETATM   14  C   UNL     1       4.675  26.473  48.457  1.00  0.00     0.031 A 
HETATM   15  C   UNL     1       4.657  27.487  47.495  1.00  0.00     0.002 A 
HETATM   16  C   UNL     1       4.667  28.824  47.886  1.00  0.00     0.002 A 
HETATM   17  C   UNL     1       4.675  29.154  49.240  1.00  0.00     0.032 A 
HETATM   18  C   UNL     1       4.721  24.938  53.044  1.00  0.00     0.065 C 
HETATM   19  C   UNL     1       5.451  24.813  54.374  1.00  0.00     0.237 C 
HETATM   20  H   UNL     1       4.970  24.852  50.367  1.00  0.00     0.161 HD
ENDROOT
BRANCH   1  21
HETATM   21  C   UNL     1       7.700  24.785  55.528  1.00  0.00     0.239 C 
BRANCH  21  22
HETATM   22  C   UNL     1       6.810  25.167  56.712  1.00  0.00     0.066 C 
BRANCH  22  23
HETATM   23  C   UNL     1       7.009  26.625  57.036  1.00  0.00    -0.057 A 
HETATM   24  C   UNL     1       5.905  27.486  57.137  1.00  0.00     0.007 A 
HETATM   25  C   UNL     1       6.093  28.850  57.362  1.00  0.00     0.001 A 
HETATM   26  C   UNL     1       7.381  29.366  57.491  1.00  0.00     0.000 A 
HETATM   27  C   UNL     1       8.483  28.518  57.400  1.00  0.00     0.001 A 
HETATM   28  C   UNL     1       8.300  27.154  57.174  1.00  0.00     0.007 A 
ENDBRANCH  22  23
ENDBRANCH  21  22
ENDBRANCH   1  21
TORSDOF 3
ENDMDL
MODEL 10
REMARK VINA RESULT:      -9.1      3.724      8.505
REMARK  3 active torsions:
REMARK  status: ('A' for Active; 'I' for Inactive)
REMARK    1  A    between atoms: C_4  and  C_5 
REMARK    2  A    between atoms: C_5  and  C_6 
REMARK    3  A    between atoms: C_6  and  N_7 
ROOT
HETATM    1  N   UNL     1       5.208  26.725  52.782  1.00  0.00    -0.071 N 
HETATM    2  H   UNL     1       5.048  26.447  51.803  1.00  0.00     0.279 HD
HETATM    3  C   UNL     1       4.869  25.537  53.656  1.00  0.00     0.237 C 
HETATM    4  C   UNL     1       5.772  24.371  53.321  1.00  0.00     0.065 C 
HETATM    5  C   UNL     1       7.265  24.703  53.531  1.00  0.00     0.076 C 
HETATM    6  N   UNL     1       8.045  23.613  52.917  1.00  0.00    -0.373 N 
HETATM    7  C   UNL     1       8.174  22.430  53.666  1.00  0.00     0.056 A 
HETATM    8  C   UNL     1       8.140  22.435  55.071  1.00  0.00     0.065 A 
HETATM    9  N   UNL     1       7.927  23.681  55.702  1.00  0.00    -0.321 N 
HETATM   10  C   UNL     1       7.573  24.831  55.009  1.00  0.00     0.045 A 
HETATM   11  C   UNL     1       8.020  23.984  57.039  1.00  0.00     0.097 A 
HETATM   12  C   UNL     1       7.843  25.339  57.197  1.00  0.00     0.020 A 
HETATM   13  C   UNL     1       7.583  25.877  55.917  1.00  0.00     0.029 A 
HETATM   14  C   UNL     1       8.483  21.230  53.017  1.00  0.00     0.031 A 
HETATM   15  C   UNL     1       8.673  20.052  53.743  1.00  0.00     0.002 A 
HETATM   16  C   UNL     1       8.592  20.065  55.134  1.00  0.00     0.002 A 
HETATM   17  C   UNL     1       8.338  21.260  55.806  1.00  0.00     0.032 A 
HETATM   18  C   UNL     1       7.609  25.979  52.733  1.00  0.00     0.065 C 
HETATM   19  C   UNL     1       6.650  27.146  52.924  1.00  0.00     0.237 C 
HETATM   20  H   UNL     1       7.848  23.421  51.938  1.00  0.00     0.161 HD
ENDROOT
BRANCH   1  21
HETATM   21  C   UNL     1       4.229  27.856  53.088  1.00  0.00     0.239 C 
BRANCH  21  22
HETATM   22  C   UNL     1       4.926  29.201  53.302  1.00  0.00     0.066 C 
BRANCH  22  23
HETATM   23  C   UNL     1       4.027  30.108  54.102  1.00  0.00    -0.057 A 
HETATM   24  C   UNL     1       3.382  31.190  53.484  1.00  0.00     0.007 A 
HETATM   25  C   UNL     1       2.610  32.074  54.238  1.00  0.00     0.001 A 
HETATM   26  C   UNL     1       2.474  31.887  55.612  1.00  0.00     0.000 A 
HETATM   27  C   UNL     1       3.105  30.811  56.233  1.00  0.00     0.001 A 
HETATM   28  C   UNL     1       3.879  29.925  55.484  1.00  0.00     0.007 A 
ENDBRANCH  22  23
ENDBRANCH  21  22
ENDBRANCH   1  21
TORSDOF 3
ENDMDL
