MODEL 1
REMARK VINA RESULT:      -9.2      0.000      0.000
REMARK  2 active torsions:
REMARK  status: ('A' for Active; 'I' for Inactive)
REMARK    1  A    between atoms: C_4  and  C_5 
REMARK    2  A    between atoms: C_10  and  C_11 
ROOT
HETATM    1  C   UNL     1       6.819  26.037  55.292  1.00  0.00     0.202 C 
HETATM    2  N   UNL     1       6.307  26.108  53.926  1.00  0.00    -0.331 N 
HETATM    3  C   UNL     1       5.901  27.388  53.364  1.00  0.00     0.155 C 
HETATM    4  C   UNL     1       6.823  25.182  53.010  1.00  0.00     0.256 C 
HETATM    5  O   UNL     1       6.835  25.350  51.793  1.00  0.00    -0.267 OA
HETATM    6  C   UNL     1       7.333  23.912  53.572  1.00  0.00     0.053 A 
HETATM    7  C   UNL     1       7.187  23.703  54.946  1.00  0.00     0.026 A 
HETATM    8  N   UNL     1       6.573  24.669  55.770  1.00  0.00    -0.266 NA
HETATM    9  C   UNL     1       7.877  22.923  52.747  1.00  0.00     0.019 A 
HETATM   10  C   UNL     1       8.252  21.698  53.296  1.00  0.00     0.001 A 
HETATM   11  C   UNL     1       8.063  21.460  54.659  1.00  0.00     0.002 A 
HETATM   12  C   UNL     1       7.518  22.454  55.476  1.00  0.00     0.024 A 
HETATM   13  H   UNL     1       5.568  24.513  55.731  1.00  0.00     0.130 HD
ENDROOT
BRANCH   1  14
HETATM   14  C   UNL     1       6.209  27.076  56.195  1.00  0.00     0.029 A 
HETATM   15  C   UNL     1       6.804  28.277  56.682  1.00  0.00     0.121 A 
HETATM   16  N   UNL     1       5.973  28.959  57.484  1.00  0.00    -0.172 NA
HETATM   17  N   UNL     1       4.866  28.206  57.525  1.00  0.00    -0.288 N 
HETATM   18  H   UNL     1       4.089  28.526  58.094  1.00  0.00     0.188 HD
HETATM   19  C   UNL     1       4.946  27.079  56.767  1.00  0.00     0.122 A 
BRANCH  15  20
HETATM   20  C   UNL     1       8.169  28.794  56.354  1.00  0.00     0.106 A 
HETATM   21  O   UNL     1       9.110  29.159  57.277  1.00  0.00    -0.313 OA
HETATM   22  C   UNL     1      10.227  29.541  56.600  1.00  0.00     0.050 A 
HETATM   23  C   UNL     1      11.378  29.968  57.421  1.00  0.00     0.076 C 
HETATM   24  C   UNL     1      10.015  29.440  55.244  1.00  0.00     0.035 A 
HETATM   25  C   UNL     1       8.692  28.959  55.085  1.00  0.00     0.042 A 
ENDBRANCH  15  20
ENDBRANCH   1  14
TORSDOF 2
ENDMDL
MODEL 2
REMARK VINA RESULT:      -8.8      1.775      6.203
REMARK  2 active torsions:
REMARK  status: ('A' for Active; 'I' for Inactive)
REMARK    1  A    between atoms: C_4  and  C_5 
REMARK    2  A    between atoms: C_10  and  C_11 
ROOT
HETATM    1  C   UNL     1       7.225  27.757  54.627  1.00  0.00     0.202 C 
HETATM    2  N   UNL     1       6.203  28.367  55.475  1.00  0.00    -0.331 N 
HETATM    3  C   UNL     1       4.823  27.907  55.401  1.00  0.00     0.155 C 
HETATM    4  C   UNL     1       6.619  28.834  56.728  1.00  0.00     0.256 C 
HETATM    5  O   UNL     1       5.871  28.977  57.692  1.00  0.00    -0.267 OA
HETATM    6  C   UNL     1       8.043  29.214  56.852  1.00  0.00     0.053 A 
HETATM    7  C   UNL     1       8.835  29.156  55.701  1.00  0.00     0.026 A 
HETATM    8  N   UNL     1       8.294  28.753  54.463  1.00  0.00    -0.266 NA
HETATM    9  C   UNL     1       8.564  29.683  58.062  1.00  0.00     0.019 A 
HETATM   10  C   UNL     1       9.883  30.130  58.116  1.00  0.00     0.001 A 
HETATM   11  C   UNL     1      10.666  30.126  56.960  1.00  0.00     0.002 A 
HETATM   12  C   UNL     1      10.138  29.656  55.755  1.00  0.00     0.024 A 
HETATM   13  H   UNL     1       7.877  29.572  54.027  1.00  0.00     0.130 HD
ENDROOT
BRANCH   1  14
HETATM   14  C   UNL     1       6.678  27.283  53.308  1.00  0.00     0.029 A 
HETATM   15  C   UNL     1       6.771  25.982  52.733  1.00  0.00     0.121 A 
HETATM   16  N   UNL     1       6.182  25.922  51.529  1.00  0.00    -0.172 NA
HETATM   17  N   UNL     1       5.728  27.165  51.324  1.00  0.00    -0.288 N 
HETATM   18  H   UNL     1       5.248  27.363  50.452  1.00  0.00     0.188 HD
HETATM   19  C   UNL     1       5.985  28.014  52.355  1.00  0.00     0.122 A 
BRANCH  15  20
HETATM   20  C   UNL     1       7.402  24.775  53.352  1.00  0.00     0.106 A 
HETATM   21  O   UNL     1       7.561  24.579  54.696  1.00  0.00    -0.313 OA
HETATM   22  C   UNL     1       8.138  23.359  54.871  1.00  0.00     0.050 A 
HETATM   23  C   UNL     1       8.390  22.946  56.266  1.00  0.00     0.076 C 
HETATM   24  C   UNL     1       8.368  22.766  53.650  1.00  0.00     0.035 A 
HETATM   25  C   UNL     1       7.895  23.676  52.674  1.00  0.00     0.042 A 
ENDBRANCH  15  20
ENDBRANCH   1  14
TORSDOF 2
ENDMDL
MODEL 3
REMARK VINA RESULT:      -8.1      2.540      4.913
REMARK  2 active torsions:
REMARK  status: ('A' for Active; 'I' for Inactive)
REMARK    1  A    between atoms: C_4  and  C_5 
REMARK    2  A    between atoms: C_10  and  C_11 
ROOT
HETATM    1  C   UNL     1       7.319  25.046  55.011  1.00  0.00     0.202 C 
HETATM    2  N   UNL     1       8.063  24.722  56.225  1.00  0.00    -0.331 N 
HETATM    3  C   UNL     1       8.027  25.626  57.366  1.00  0.00     0.155 C 
HETATM    4  C   UNL     1       8.205  23.363  56.534  1.00  0.00     0.256 C 
HETATM    5  O   UNL     1       8.412  22.932  57.666  1.00  0.00    -0.267 OA
HETATM    6  C   UNL     1       8.146  22.418  55.398  1.00  0.00     0.053 A 
HETATM    7  C   UNL     1       8.035  22.952  54.111  1.00  0.00     0.026 A 
HETATM    8  N   UNL     1       7.985  24.346  53.903  1.00  0.00    -0.266 NA
HETATM    9  C   UNL     1       8.267  21.039  55.597  1.00  0.00     0.019 A 
HETATM   10  C   UNL     1       8.311  20.186  54.496  1.00  0.00     0.001 A 
HETATM   11  C   UNL     1       8.253  20.714  53.205  1.00  0.00     0.002 A 
HETATM   12  C   UNL     1       8.132  22.093  53.014  1.00  0.00     0.024 A 
HETATM   13  H   UNL     1       8.943  24.687  53.865  1.00  0.00     0.130 HD
ENDROOT
BRANCH   1  14
HETATM   14  C   UNL     1       7.217  26.528  54.771  1.00  0.00     0.029 A 
HETATM   15  C   UNL     1       6.581  27.202  53.686  1.00  0.00     0.121 A 
HETATM   16  N   UNL     1       6.702  28.535  53.785  1.00  0.00    -0.172 NA
HETATM   17  N   UNL     1       7.413  28.718  54.905  1.00  0.00    -0.288 N 
HETATM   18  H   UNL     1       7.641  29.668  55.179  1.00  0.00     0.188 HD
HETATM   19  C   UNL     1       7.736  27.559  55.539  1.00  0.00     0.122 A 
BRANCH  15  20
HETATM   20  C   UNL     1       5.826  26.569  52.561  1.00  0.00     0.106 A 
HETATM   21  O   UNL     1       5.724  27.086  51.299  1.00  0.00    -0.313 OA
HETATM   22  C   UNL     1       4.992  26.214  50.553  1.00  0.00     0.050 A 
HETATM   23  C   UNL     1       4.770  26.584  49.141  1.00  0.00     0.076 C 
HETATM   24  C   UNL     1       4.606  25.141  51.324  1.00  0.00     0.035 A 
HETATM   25  C   UNL     1       5.142  25.369  52.615  1.00  0.00     0.042 A 
ENDBRANCH  15  20
ENDBRANCH   1  14
TORSDOF 2
ENDMDL
MODEL 4
REMARK VINA RESULT:      -8.0      1.661      2.354
REMARK  2 active torsions:
REMARK  status: ('A' for Active; 'I' for Inactive)
REMARK    1  A    between atoms: C_4  and  C_5 
REMARK    2  A    between atoms: C_10  and  C_11 
ROOT
HETATM    1  C   UNL     1       6.388  26.122  55.953  1.00  0.00     0.202 C 
HETATM    2  N   UNL     1       7.517  25.799  56.822  1.00  0.00    -0.331 N 
HETATM    3  C   UNL     1       7.545  26.286  58.194  1.00  0.00     0.155 C 
HETATM    4  C   UNL     1       8.148  24.567  56.604  1.00  0.00     0.256 C 
HETATM    5  O   UNL     1       8.798  23.967  57.456  1.00  0.00    -0.267 OA
HETATM    6  C   UNL     1       8.048  24.006  55.239  1.00  0.00     0.053 A 
HETATM    7  C   UNL     1       7.409  24.777  54.264  1.00  0.00     0.026 A 
HETATM    8  N   UNL     1       6.880  26.048  54.569  1.00  0.00    -0.266 NA
HETATM    9  C   UNL     1       8.635  22.779  54.917  1.00  0.00     0.019 A 
HETATM   10  C   UNL     1       8.610  22.329  53.598  1.00  0.00     0.001 A 
HETATM   11  C   UNL     1       8.020  23.116  52.607  1.00  0.00     0.002 A 
HETATM   12  C   UNL     1       7.436  24.341  52.937  1.00  0.00     0.024 A 
HETATM   13  H   UNL     1       7.634  26.725  54.482  1.00  0.00     0.130 HD
ENDROOT
BRANCH   1  14
HETATM   14  C   UNL     1       5.776  27.459  56.270  1.00  0.00     0.029 A 
HETATM   15  C   UNL     1       6.421  28.730  56.337  1.00  0.00     0.121 A 
HETATM   16  N   UNL     1       5.567  29.710  56.667  1.00  0.00    -0.172 NA
HETATM   17  N   UNL     1       4.394  29.083  56.825  1.00  0.00    -0.288 N 
HETATM   18  H   UNL     1       3.586  29.635  57.093  1.00  0.00     0.188 HD
HETATM   19  C   UNL     1       4.457  27.744  56.590  1.00  0.00     0.122 A 
BRANCH  15  20
HETATM   20  C   UNL     1       7.862  29.015  56.052  1.00  0.00     0.106 A 
HETATM   21  O   UNL     1       8.775  29.433  56.981  1.00  0.00    -0.313 OA
HETATM   22  C   UNL     1       9.977  29.550  56.355  1.00  0.00     0.050 A 
HETATM   23  C   UNL     1      11.113  29.985  57.192  1.00  0.00     0.076 C 
HETATM   24  C   UNL     1       9.850  29.225  55.023  1.00  0.00     0.035 A 
HETATM   25  C   UNL     1       8.490  28.881  54.828  1.00  0.00     0.042 A 
ENDBRANCH  15  20
ENDBRANCH   1  14
TORSDOF 2
ENDMDL
MODEL 5
REMARK VINA RESULT:      -7.8      2.477      4.155
REMARK  2 active torsions:
REMARK  status: ('A' for Active; 'I' for Inactive)
REMARK    1  A    between atoms: C_4  and  C_5 
REMARK    2  A    between atoms: C_10  and  C_11 
ROOT
HETATM    1  C   UNL     1       6.457  26.719  55.020  1.00  0.00     0.202 C 
HETATM    2  N   UNL     1       5.184  27.318  55.414  1.00  0.00    -0.331 N 
HETATM    3  C   UNL     1       4.965  27.723  56.796  1.00  0.00     0.155 C 
HETATM    4  C   UNL     1       4.520  28.083  54.447  1.00  0.00     0.256 C 
HETATM    5  O   UNL     1       3.704  28.963  54.706  1.00  0.00    -0.267 OA
HETATM    6  C   UNL     1       4.806  27.752  53.034  1.00  0.00     0.053 A 
HETATM    7  C   UNL     1       5.642  26.662  52.776  1.00  0.00     0.026 A 
HETATM    8  N   UNL     1       6.193  25.901  53.827  1.00  0.00    -0.266 NA
HETATM    9  C   UNL     1       4.203  28.460  51.990  1.00  0.00     0.019 A 
HETATM   10  C   UNL     1       4.413  28.055  50.672  1.00  0.00     0.001 A 
HETATM   11  C   UNL     1       5.205  26.936  50.407  1.00  0.00     0.002 A 
HETATM   12  C   UNL     1       5.803  26.234  51.456  1.00  0.00     0.024 A 
HETATM   13  H   UNL     1       5.507  25.197  54.092  1.00  0.00     0.130 HD
ENDROOT
BRANCH   1  14
HETATM   14  C   UNL     1       7.093  25.924  56.129  1.00  0.00     0.029 A 
HETATM   15  C   UNL     1       7.954  26.392  57.165  1.00  0.00     0.121 A 
HETATM   16  N   UNL     1       8.351  25.399  57.974  1.00  0.00    -0.172 NA
HETATM   17  N   UNL     1       7.769  24.307  57.462  1.00  0.00    -0.288 N 
HETATM   18  H   UNL     1       7.942  23.414  57.913  1.00  0.00     0.188 HD
HETATM   19  C   UNL     1       6.999  24.562  56.370  1.00  0.00     0.122 A 
BRANCH  15  20
HETATM   20  C   UNL     1       8.376  27.807  57.404  1.00  0.00     0.106 A 
HETATM   21  O   UNL     1       7.969  28.578  58.458  1.00  0.00    -0.313 OA
HETATM   22  C   UNL     1       8.589  29.785  58.352  1.00  0.00     0.050 A 
HETATM   23  C   UNL     1       8.289  30.772  59.409  1.00  0.00     0.076 C 
HETATM   24  C   UNL     1       9.386  29.810  57.230  1.00  0.00     0.035 A 
HETATM   25  C   UNL     1       9.250  28.538  56.620  1.00  0.00     0.042 A 
ENDBRANCH  15  20
ENDBRANCH   1  14
TORSDOF 2
ENDMDL
MODEL 6
REMARK VINA RESULT:      -7.8      2.077      2.918
REMARK  2 active torsions:
REMARK  status: ('A' for Active; 'I' for Inactive)
REMARK    1  A    between atoms: C_4  and  C_5 
REMARK    2  A    between atoms: C_10  and  C_11 
ROOT
HETATM    1  C   UNL     1       5.403  27.498  54.679  1.00  0.00     0.202 C 
HETATM    2  N   UNL     1       5.608  26.752  55.918  1.00  0.00    -0.331 N 
HETATM    3  C   UNL     1       4.846  27.094  57.111  1.00  0.00     0.155 C 
HETATM    4  C   UNL     1       5.958  25.401  55.790  1.00  0.00     0.256 C 
HETATM    5  O   UNL     1       5.764  24.554  56.658  1.00  0.00    -0.267 OA
HETATM    6  C   UNL     1       6.646  25.013  54.539  1.00  0.00     0.053 A 
HETATM    7  C   UNL     1       6.962  26.026  53.629  1.00  0.00     0.026 A 
HETATM    8  N   UNL     1       6.640  27.372  53.895  1.00  0.00    -0.266 NA
HETATM    9  C   UNL     1       7.030  23.689  54.306  1.00  0.00     0.019 A 
HETATM   10  C   UNL     1       7.768  23.377  53.165  1.00  0.00     0.001 A 
HETATM   11  C   UNL     1       8.134  24.390  52.276  1.00  0.00     0.002 A 
HETATM   12  C   UNL     1       7.746  25.710  52.517  1.00  0.00     0.024 A 
HETATM   13  H   UNL     1       7.392  27.765  54.456  1.00  0.00     0.130 HD
ENDROOT
BRANCH   1  14
HETATM   14  C   UNL     1       5.025  28.934  54.923  1.00  0.00     0.029 A 
HETATM   15  C   UNL     1       5.709  29.902  55.717  1.00  0.00     0.121 A 
HETATM   16  N   UNL     1       5.074  31.084  55.725  1.00  0.00    -0.172 NA
HETATM   17  N   UNL     1       3.993  30.880  54.962  1.00  0.00    -0.288 N 
HETATM   18  H   UNL     1       3.344  31.650  54.832  1.00  0.00     0.188 HD
HETATM   19  C   UNL     1       3.918  29.622  54.449  1.00  0.00     0.122 A 
BRANCH  15  20
HETATM   20  C   UNL     1       6.998  29.705  56.450  1.00  0.00     0.106 A 
HETATM   21  O   UNL     1       8.222  29.568  55.857  1.00  0.00    -0.313 OA
HETATM   22  C   UNL     1       9.150  29.444  56.845  1.00  0.00     0.050 A 
HETATM   23  C   UNL     1      10.553  29.293  56.412  1.00  0.00     0.076 C 
HETATM   24  C   UNL     1       8.536  29.487  58.077  1.00  0.00     0.035 A 
HETATM   25  C   UNL     1       7.153  29.655  57.823  1.00  0.00     0.042 A 
ENDBRANCH  15  20
ENDBRANCH   1  14
TORSDOF 2
ENDMDL
MODEL 7
REMARK VINA RESULT:      -7.5      9.784     13.489
REMARK  2 active torsions:
REMARK  status: ('A' for Active; 'I' for Inactive)
REMARK    1  A    between atoms: C_4  and  C_5 
REMARK    2  A    between atoms: C_10  and  C_11 
ROOT
HETATM    1  C   UNL     1       4.865  36.174  62.467  1.00  0.00     0.202 C 
HETATM    2  N   UNL     1       4.794  37.045  63.637  1.00  0.00    -0.331 N 
HETATM    3  C   UNL     1       4.631  36.472  64.966  1.00  0.00     0.155 C 
HETATM    4  C   UNL     1       5.522  38.241  63.579  1.00  0.00     0.256 C 
HETATM    5  O   UNL     1       5.909  38.860  64.566  1.00  0.00    -0.267 OA
HETATM    6  C   UNL     1       5.784  38.789  62.230  1.00  0.00     0.053 A 
HETATM    7  C   UNL     1       5.221  38.125  61.136  1.00  0.00     0.026 A 
HETATM    8  N   UNL     1       4.428  36.973  61.312  1.00  0.00    -0.266 NA
HETATM    9  C   UNL     1       6.509  39.972  62.059  1.00  0.00     0.019 A 
HETATM   10  C   UNL     1       6.648  40.516  60.783  1.00  0.00     0.001 A 
HETATM   11  C   UNL     1       6.046  39.888  59.691  1.00  0.00     0.002 A 
HETATM   12  C   UNL     1       5.322  38.707  59.871  1.00  0.00     0.024 A 
HETATM   13  H   UNL     1       3.476  37.279  61.502  1.00  0.00     0.130 HD
ENDROOT
BRANCH   1  14
HETATM   14  C   UNL     1       4.056  34.916  62.630  1.00  0.00     0.029 A 
HETATM   15  C   UNL     1       4.526  33.593  62.883  1.00  0.00     0.121 A 
HETATM   16  N   UNL     1       3.521  32.708  62.951  1.00  0.00    -0.172 NA
HETATM   17  N   UNL     1       2.422  33.442  62.733  1.00  0.00    -0.288 N 
HETATM   18  H   UNL     1       1.523  32.971  62.727  1.00  0.00     0.188 HD
HETATM   19  C   UNL     1       2.680  34.764  62.548  1.00  0.00     0.122 A 
BRANCH  15  20
HETATM   20  C   UNL     1       5.948  33.176  63.091  1.00  0.00     0.106 A 
HETATM   21  O   UNL     1       6.738  32.589  62.142  1.00  0.00    -0.313 OA
HETATM   22  C   UNL     1       7.967  32.391  62.691  1.00  0.00     0.050 A 
HETATM   23  C   UNL     1       8.983  31.770  61.819  1.00  0.00     0.076 C 
HETATM   24  C   UNL     1       7.978  32.833  63.995  1.00  0.00     0.035 A 
HETATM   25  C   UNL     1       6.680  33.338  64.252  1.00  0.00     0.042 A 
ENDBRANCH  15  20
ENDBRANCH   1  14
TORSDOF 2
ENDMDL
MODEL 8
REMARK VINA RESULT:      -7.5      9.694     12.310
REMARK  2 active torsions:
REMARK  status: ('A' for Active; 'I' for Inactive)
REMARK    1  A    between atoms: C_4  and  C_5 
REMARK    2  A    between atoms: C_10  and  C_11 
ROOT
HETATM    1  C   UNL     1       4.840  33.528  62.962  1.00  0.00     0.202 C 
HETATM    2  N   UNL     1       6.136  32.858  63.027  1.00  0.00    -0.331 N 
HETATM    3  C   UNL     1       6.818  32.466  61.801  1.00  0.00     0.155 C 
HETATM    4  C   UNL     1       6.970  33.200  64.100  1.00  0.00     0.256 C 
HETATM    5  O   UNL     1       8.191  33.074  64.090  1.00  0.00    -0.267 OA
HETATM    6  C   UNL     1       6.301  33.696  65.323  1.00  0.00     0.053 A 
HETATM    7  C   UNL     1       4.904  33.707  65.342  1.00  0.00     0.026 A 
HETATM    8  N   UNL     1       4.156  33.259  64.235  1.00  0.00    -0.266 NA
HETATM    9  C   UNL     1       7.040  34.073  66.448  1.00  0.00     0.019 A 
HETATM   10  C   UNL     1       6.375  34.436  67.618  1.00  0.00     0.001 A 
HETATM   11  C   UNL     1       4.981  34.401  67.664  1.00  0.00     0.002 A 
HETATM   12  C   UNL     1       4.249  34.023  66.535  1.00  0.00     0.024 A 
HETATM   13  H   UNL     1       4.059  32.249  64.316  1.00  0.00     0.130 HD
ENDROOT
BRANCH   1  14
HETATM   14  C   UNL     1       4.024  33.098  61.772  1.00  0.00     0.029 A 
HETATM   15  C   UNL     1       3.598  33.890  60.665  1.00  0.00     0.121 A 
HETATM   16  N   UNL     1       2.866  33.180  59.793  1.00  0.00    -0.172 NA
HETATM   17  N   UNL     1       2.808  31.957  60.334  1.00  0.00    -0.288 N 
HETATM   18  H   UNL     1       2.284  31.239  59.843  1.00  0.00     0.188 HD
HETATM   19  C   UNL     1       3.490  31.847  61.506  1.00  0.00     0.122 A 
BRANCH  15  20
HETATM   20  C   UNL     1       3.919  35.331  60.421  1.00  0.00     0.106 A 
HETATM   21  O   UNL     1       4.431  36.187  61.357  1.00  0.00    -0.313 OA
HETATM   22  C   UNL     1       4.621  37.392  60.755  1.00  0.00     0.050 A 
HETATM   23  C   UNL     1       5.182  38.466  61.599  1.00  0.00     0.076 C 
HETATM   24  C   UNL     1       4.223  37.331  59.438  1.00  0.00     0.035 A 
HETATM   25  C   UNL     1       3.773  36.005  59.223  1.00  0.00     0.042 A 
ENDBRANCH  15  20
ENDBRANCH   1  14
TORSDOF 2
ENDMDL
MODEL 9
REMARK VINA RESULT:      -7.5      8.935     11.431
REMARK  2 active torsions:
REMARK  status: ('A' for Active; 'I' for Inactive)
REMARK    1  A    between atoms: C_4  and  C_5 
REMARK    2  A    between atoms: C_10  and  C_11 
ROOT
HETATM    1  C   UNL     1       5.709  33.860  63.019  1.00  0.00     0.202 C 
HETATM    2  N   UNL     1       4.842  33.110  62.114  1.00  0.00    -0.331 N 
HETATM    3  C   UNL     1       3.421  33.419  62.040  1.00  0.00     0.155 C 
HETATM    4  C   UNL     1       5.422  32.645  60.926  1.00  0.00     0.256 C 
HETATM    5  O   UNL     1       4.789  32.384  59.907  1.00  0.00    -0.267 OA
HETATM    6  C   UNL     1       6.884  32.418  60.950  1.00  0.00     0.053 A 
HETATM    7  C   UNL     1       7.552  32.605  62.163  1.00  0.00     0.026 A 
HETATM    8  N   UNL     1       6.857  32.994  63.327  1.00  0.00    -0.266 NA
HETATM    9  C   UNL     1       7.563  31.964  59.816  1.00  0.00     0.019 A 
HETATM   10  C   UNL     1       8.922  31.662  59.903  1.00  0.00     0.001 A 
HETATM   11  C   UNL     1       9.587  31.795  61.123  1.00  0.00     0.002 A 
HETATM   12  C   UNL     1       8.900  32.250  62.251  1.00  0.00     0.024 A 
HETATM   13  H   UNL     1       6.488  32.151  63.763  1.00  0.00     0.130 HD
ENDROOT
BRANCH   1  14
HETATM   14  C   UNL     1       4.992  34.321  64.260  1.00  0.00     0.029 A 
HETATM   15  C   UNL     1       4.481  35.620  64.550  1.00  0.00     0.121 A 
HETATM   16  N   UNL     1       3.915  35.677  65.765  1.00  0.00    -0.172 NA
HETATM   17  N   UNL     1       4.070  34.441  66.256  1.00  0.00    -0.288 N 
HETATM   18  H   UNL     1       3.721  34.249  67.190  1.00  0.00     0.188 HD
HETATM   19  C   UNL     1       4.694  33.589  65.399  1.00  0.00     0.122 A 
BRANCH  15  20
HETATM   20  C   UNL     1       4.506  36.811  63.645  1.00  0.00     0.106 A 
HETATM   21  O   UNL     1       5.528  37.717  63.572  1.00  0.00    -0.313 OA
HETATM   22  C   UNL     1       5.204  38.631  62.617  1.00  0.00     0.050 A 
HETATM   23  C   UNL     1       6.190  39.702  62.372  1.00  0.00     0.076 C 
HETATM   24  C   UNL     1       3.973  38.334  62.078  1.00  0.00     0.035 A 
HETATM   25  C   UNL     1       3.523  37.164  62.739  1.00  0.00     0.042 A 
ENDBRANCH  15  20
ENDBRANCH   1  14
TORSDOF 2
ENDMDL
MODEL 10
REMARK VINA RESULT:      -7.3      5.207      7.611
REMARK  2 active torsions:
REMARK  status: ('A' for Active; 'I' for Inactive)
REMARK    1  A    between atoms: C_4  and  C_5 
REMARK    2  A    between atoms: C_10  and  C_11 
ROOT
HETATM    1  C   UNL     1       5.739  32.288  58.105  1.00  0.00     0.202 C 
HETATM    2  N   UNL     1       5.050  31.004  58.206  1.00  0.00    -0.331 N 
HETATM    3  C   UNL     1       3.598  30.945  58.107  1.00  0.00     0.155 C 
HETATM    4  C   UNL     1       5.734  29.880  57.726  1.00  0.00     0.256 C 
HETATM    5  O   UNL     1       5.186  28.847  57.353  1.00  0.00    -0.267 OA
HETATM    6  C   UNL     1       7.212  29.958  57.726  1.00  0.00     0.053 A 
HETATM    7  C   UNL     1       7.804  31.099  58.274  1.00  0.00     0.026 A 
HETATM    8  N   UNL     1       7.020  32.141  58.812  1.00  0.00    -0.266 NA
HETATM    9  C   UNL     1       7.992  28.896  57.260  1.00  0.00     0.019 A 
HETATM   10  C   UNL     1       9.380  28.960  57.371  1.00  0.00     0.001 A 
HETATM   11  C   UNL     1       9.978  30.073  57.964  1.00  0.00     0.002 A 
HETATM   12  C   UNL     1       9.192  31.130  58.428  1.00  0.00     0.024 A 
HETATM   13  H   UNL     1       6.805  31.899  59.777  1.00  0.00     0.130 HD
ENDROOT
BRANCH   1  14
HETATM   14  C   UNL     1       4.919  33.431  58.640  1.00  0.00     0.029 A 
HETATM   15  C   UNL     1       4.666  33.771  60.002  1.00  0.00     0.121 A 
HETATM   16  N   UNL     1       3.873  34.847  60.112  1.00  0.00    -0.172 NA
HETATM   17  N   UNL     1       3.607  35.188  58.844  1.00  0.00    -0.288 N 
HETATM   18  H   UNL     1       3.002  35.985  58.679  1.00  0.00     0.188 HD
HETATM   19  C   UNL     1       4.213  34.387  57.927  1.00  0.00     0.122 A 
BRANCH  15  20
HETATM   20  C   UNL     1       5.213  33.079  61.211  1.00  0.00     0.106 A 
HETATM   21  O   UNL     1       6.483  33.234  61.694  1.00  0.00    -0.313 OA
HETATM   22  C   UNL     1       6.594  32.476  62.818  1.00  0.00     0.050 A 
HETATM   23  C   UNL     1       7.900  32.510  63.507  1.00  0.00     0.076 C 
HETATM   24  C   UNL     1       5.410  31.818  63.063  1.00  0.00     0.035 A 
HETATM   25  C   UNL     1       4.521  32.206  62.030  1.00  0.00     0.042 A 
ENDBRANCH  15  20
ENDBRANCH   1  14
TORSDOF 2
ENDMDL
