MODEL 1
REMARK VINA RESULT:      -9.7      0.000      0.000
REMARK  5 active torsions:
REMARK  status: ('A' for Active; 'I' for Inactive)
REMARK    1  A    between atoms: C_2  and  C_3 
REMARK    2  A    between atoms: C_7  and  N_8 
REMARK    3  A    between atoms: C_13  and  N_14 
REMARK       I    between atoms: N_14  and  C_15 
REMARK    4  A    between atoms: C_15  and  C_16 
REMARK       I    between atoms: C_16  and  N_17 
REMARK    5  A    between atoms: N_17  and  C_18 
ROOT
HETATM    1  N   UNL     1       6.123  31.857  58.545  1.00  0.00    -0.045 N 
HETATM    2  N   UNL     1       5.474  32.884  57.937  1.00  0.00    -0.156 NA
HETATM    3  C   UNL     1       5.122  32.386  56.747  1.00  0.00     0.055 A 
HETATM    4  C   UNL     1       4.387  33.225  55.766  1.00  0.00     0.072 C 
HETATM    5  C   UNL     1       5.531  31.035  56.592  1.00  0.00     0.079 A 
HETATM    6  C   UNL     1       6.190  30.717  57.755  1.00  0.00     0.152 A 
ENDROOT
BRANCH   6   7
HETATM    7  N   UNL     1       6.777  29.535  58.180  1.00  0.00    -0.303 N 
HETATM    8  C   UNL     1       7.423  28.509  57.440  1.00  0.00     0.315 C 
HETATM    9  O   UNL     1       7.642  27.462  58.031  1.00  0.00    -0.262 OA
HETATM   10  H   UNL     1       6.726  29.350  59.187  1.00  0.00     0.171 HD
BRANCH   8  11
HETATM   11  C   UNL     1       7.823  28.654  55.968  1.00  0.00     0.310 C 
HETATM   12  N   UNL     1       7.010  27.944  55.098  1.00  0.00    -0.348 N 
HETATM   13  H   UNL     1       6.326  27.328  55.523  1.00  0.00     0.163 HD
HETATM   14  O   UNL     1       8.808  29.302  55.652  1.00  0.00    -0.262 OA
BRANCH  12  15
HETATM   15  C   UNL     1       7.380  27.713  53.712  1.00  0.00     0.085 C 
HETATM   16  C   UNL     1       7.722  26.242  53.422  1.00  0.00     0.034 C 
HETATM   17  C   UNL     1       6.515  25.285  53.296  1.00  0.00    -0.045 C 
HETATM   18  C   UNL     1       5.924  24.927  54.671  1.00  0.00     0.015 C 
HETATM   19  C   UNL     1       7.020  23.955  52.686  1.00  0.00     0.015 C 
HETATM   20  C   UNL     1       5.449  25.876  52.344  1.00  0.00     0.013 C 
HETATM   21  C   UNL     1       5.090  27.359  52.528  1.00  0.00    -0.016 C 
HETATM   22  C   UNL     1       6.325  28.249  52.740  1.00  0.00     0.029 C 
HETATM   23  C   UNL     1       3.982  27.596  53.555  1.00  0.00     0.010 C 
ENDBRANCH  12  15
ENDBRANCH   8  11
ENDBRANCH   6   7
BRANCH   1  24
HETATM   24  C   UNL     1       6.628  31.985  59.847  1.00  0.00     0.732 A 
HETATM   25  N   UNL     1       5.647  32.118  60.779  1.00  0.00    -0.152 N 
HETATM   26  C   UNL     1       5.944  32.197  62.103  1.00  0.00     0.268 A 
HETATM   27  H   UNL     1       4.671  32.106  60.501  1.00  0.00     0.188 HD
HETATM   28  C   UNL     1       7.399  32.207  62.435  1.00  0.00     0.035 A 
HETATM   29  O   UNL     1       5.070  32.247  62.959  1.00  0.00    -0.267 OA
HETATM   30  C   UNL     1       8.276  32.094  61.412  1.00  0.00     0.061 A 
HETATM   31  N   UNL     1       7.901  31.958  60.090  1.00  0.00    -0.067 NA
HETATM   32  C   UNL     1       9.773  32.081  61.605  1.00  0.00     0.072 C 
BRANCH  28  33
HETATM   33  C   UNL     1       7.743  32.383  63.891  1.00  0.00     0.042 C 
HETATM   34  C   UNL     1       7.454  33.796  64.377  1.00  0.00     0.010 C 
ENDBRANCH  28  33
ENDBRANCH   1  24
TORSDOF 5
ENDMDL
MODEL 2
REMARK VINA RESULT:      -9.3      1.958      3.121
REMARK  5 active torsions:
REMARK  status: ('A' for Active; 'I' for Inactive)
REMARK    1  A    between atoms: C_2  and  C_3 
REMARK    2  A    between atoms: C_7  and  N_8 
REMARK    3  A    between atoms: C_13  and  N_14 
REMARK       I    between atoms: N_14  and  C_15 
REMARK    4  A    between atoms: C_15  and  C_16 
REMARK       I    between atoms: C_16  and  N_17 
REMARK    5  A    between atoms: N_17  and  C_18 
ROOT
HETATM    1  N   UNL     1       8.173  30.362  58.449  1.00  0.00    -0.045 N 
HETATM    2  N   UNL     1       9.495  30.635  58.297  1.00  0.00    -0.156 NA
HETATM    3  C   UNL     1       9.933  29.671  57.480  1.00  0.00     0.055 A 
HETATM    4  C   UNL     1      11.361  29.617  57.075  1.00  0.00     0.072 C 
HETATM    5  C   UNL     1       8.892  28.785  57.094  1.00  0.00     0.079 A 
HETATM    6  C   UNL     1       7.769  29.236  57.743  1.00  0.00     0.152 A 
ENDROOT
BRANCH   6   7
HETATM    7  N   UNL     1       6.457  28.785  57.724  1.00  0.00    -0.303 N 
HETATM    8  C   UNL     1       5.641  28.373  56.638  1.00  0.00     0.315 C 
HETATM    9  O   UNL     1       4.448  28.247  56.866  1.00  0.00    -0.262 OA
HETATM   10  H   UNL     1       5.983  28.760  58.632  1.00  0.00     0.171 HD
BRANCH   8  11
HETATM   11  C   UNL     1       6.182  28.108  55.228  1.00  0.00     0.310 C 
HETATM   12  N   UNL     1       6.607  26.804  55.032  1.00  0.00    -0.348 N 
HETATM   13  H   UNL     1       6.623  26.207  55.852  1.00  0.00     0.163 HD
HETATM   14  O   UNL     1       6.260  29.012  54.411  1.00  0.00    -0.262 OA
BRANCH  12  15
HETATM   15  C   UNL     1       7.409  26.418  53.883  1.00  0.00     0.085 C 
HETATM   16  C   UNL     1       8.280  25.180  54.150  1.00  0.00     0.034 C 
HETATM   17  C   UNL     1       7.539  23.823  54.132  1.00  0.00    -0.045 C 
HETATM   18  C   UNL     1       6.733  23.595  55.423  1.00  0.00     0.015 C 
HETATM   19  C   UNL     1       8.601  22.698  54.084  1.00  0.00     0.015 C 
HETATM   20  C   UNL     1       6.655  23.702  52.869  1.00  0.00     0.013 C 
HETATM   21  C   UNL     1       5.795  24.921  52.496  1.00  0.00    -0.016 C 
HETATM   22  C   UNL     1       6.559  26.249  52.620  1.00  0.00     0.029 C 
HETATM   23  C   UNL     1       4.427  24.935  53.180  1.00  0.00     0.010 C 
ENDBRANCH  12  15
ENDBRANCH   8  11
ENDBRANCH   6   7
BRANCH   1  24
HETATM   24  C   UNL     1       7.346  31.183  59.230  1.00  0.00     0.732 A 
HETATM   25  N   UNL     1       7.549  31.015  60.564  1.00  0.00    -0.152 N 
HETATM   26  C   UNL     1       6.878  31.768  61.475  1.00  0.00     0.268 A 
HETATM   27  H   UNL     1       8.249  30.359  60.897  1.00  0.00     0.188 HD
HETATM   28  C   UNL     1       5.868  32.710  60.910  1.00  0.00     0.035 A 
HETATM   29  O   UNL     1       7.100  31.677  62.676  1.00  0.00    -0.267 OA
HETATM   30  C   UNL     1       5.743  32.763  59.566  1.00  0.00     0.061 A 
HETATM   31  N   UNL     1       6.503  32.008  58.693  1.00  0.00    -0.067 NA
HETATM   32  C   UNL     1       4.769  33.676  58.862  1.00  0.00     0.072 C 
BRANCH  28  33
HETATM   33  C   UNL     1       5.055  33.485  61.915  1.00  0.00     0.042 C 
HETATM   34  C   UNL     1       5.715  34.807  62.281  1.00  0.00     0.010 C 
ENDBRANCH  28  33
ENDBRANCH   1  24
TORSDOF 5
ENDMDL
MODEL 3
REMARK VINA RESULT:      -9.2      1.529      2.607
REMARK  5 active torsions:
REMARK  status: ('A' for Active; 'I' for Inactive)
REMARK    1  A    between atoms: C_2  and  C_3 
REMARK    2  A    between atoms: C_7  and  N_8 
REMARK    3  A    between atoms: C_13  and  N_14 
REMARK       I    between atoms: N_14  and  C_15 
REMARK    4  A    between atoms: C_15  and  C_16 
REMARK       I    between atoms: C_16  and  N_17 
REMARK    5  A    between atoms: N_17  and  C_18 
ROOT
HETATM    1  N   UNL     1       5.707  30.927  57.206  1.00  0.00    -0.045 N 
HETATM    2  N   UNL     1       4.679  31.584  56.610  1.00  0.00    -0.156 NA
HETATM    3  C   UNL     1       4.360  30.807  55.568  1.00  0.00     0.055 A 
HETATM    4  C   UNL     1       3.264  31.198  54.644  1.00  0.00     0.072 C 
HETATM    5  C   UNL     1       5.172  29.644  55.500  1.00  0.00     0.079 A 
HETATM    6  C   UNL     1       6.046  29.748  56.555  1.00  0.00     0.152 A 
ENDROOT
BRANCH   6   7
HETATM    7  N   UNL     1       7.045  28.896  57.003  1.00  0.00    -0.303 N 
HETATM    8  C   UNL     1       7.071  27.480  57.105  1.00  0.00     0.315 C 
HETATM    9  O   UNL     1       7.985  26.994  57.753  1.00  0.00    -0.262 OA
HETATM   10  H   UNL     1       7.902  29.351  57.335  1.00  0.00     0.171 HD
BRANCH   8  11
HETATM   11  C   UNL     1       6.015  26.569  56.469  1.00  0.00     0.310 C 
HETATM   12  N   UNL     1       6.294  26.227  55.155  1.00  0.00    -0.348 N 
HETATM   13  H   UNL     1       7.085  26.696  54.726  1.00  0.00     0.163 HD
HETATM   14  O   UNL     1       5.014  26.249  57.090  1.00  0.00    -0.262 OA
BRANCH  12  15
HETATM   15  C   UNL     1       5.298  25.621  54.287  1.00  0.00     0.085 C 
HETATM   16  C   UNL     1       4.558  26.650  53.418  1.00  0.00     0.034 C 
HETATM   17  C   UNL     1       5.343  27.187  52.199  1.00  0.00    -0.045 C 
HETATM   18  C   UNL     1       6.400  28.226  52.614  1.00  0.00     0.015 C 
HETATM   19  C   UNL     1       4.347  27.932  51.278  1.00  0.00     0.015 C 
HETATM   20  C   UNL     1       5.962  26.021  51.394  1.00  0.00     0.013 C 
HETATM   21  C   UNL     1       6.672  24.917  52.193  1.00  0.00    -0.016 C 
HETATM   22  C   UNL     1       5.887  24.487  53.443  1.00  0.00     0.029 C 
HETATM   23  C   UNL     1       8.146  25.215  52.469  1.00  0.00     0.010 C 
ENDBRANCH  12  15
ENDBRANCH   8  11
ENDBRANCH   6   7
BRANCH   1  24
HETATM   24  C   UNL     1       6.308  31.423  58.373  1.00  0.00     0.732 A 
HETATM   25  N   UNL     1       5.399  31.837  59.295  1.00  0.00    -0.152 N 
HETATM   26  C   UNL     1       5.794  32.295  60.512  1.00  0.00     0.268 A 
HETATM   27  H   UNL     1       4.405  31.758  59.106  1.00  0.00     0.188 HD
HETATM   28  C   UNL     1       7.270  32.381  60.717  1.00  0.00     0.035 A 
HETATM   29  O   UNL     1       4.986  32.606  61.378  1.00  0.00    -0.267 OA
HETATM   30  C   UNL     1       8.068  31.962  59.711  1.00  0.00     0.061 A 
HETATM   31  N   UNL     1       7.596  31.450  58.518  1.00  0.00    -0.067 NA
HETATM   32  C   UNL     1       9.575  31.985  59.787  1.00  0.00     0.072 C 
BRANCH  28  33
HETATM   33  C   UNL     1       7.721  32.971  62.029  1.00  0.00     0.042 C 
HETATM   34  C   UNL     1       8.036  31.894  63.058  1.00  0.00     0.010 C 
ENDBRANCH  28  33
ENDBRANCH   1  24
TORSDOF 5
ENDMDL
MODEL 4
REMARK VINA RESULT:      -9.2      1.675      2.707
REMARK  5 active torsions:
REMARK  status: ('A' for Active; 'I' for Inactive)
REMARK    1  A    between atoms: C_2  and  C_3 
REMARK    2  A    between atoms: C_7  and  N_8 
REMARK    3  A    between atoms: C_13  and  N_14 
REMARK       I    between atoms: N_14  and  C_15 
REMARK    4  A    between atoms: C_15  and  C_16 
REMARK       I    between atoms: C_16  and  N_17 
REMARK    5  A    between atoms: N_17  and  C_18 
ROOT
HETATM    1  N   UNL     1       5.978  30.845  57.241  1.00  0.00    -0.045 N 
HETATM    2  N   UNL     1       4.691  31.071  56.874  1.00  0.00    -0.156 NA
HETATM    3  C   UNL     1       4.556  30.388  55.731  1.00  0.00     0.055 A 
HETATM    4  C   UNL     1       3.265  30.394  54.997  1.00  0.00     0.072 C 
HETATM    5  C   UNL     1       5.751  29.713  55.369  1.00  0.00     0.079 A 
HETATM    6  C   UNL     1       6.662  30.034  56.346  1.00  0.00     0.152 A 
ENDROOT
BRANCH   6   7
HETATM    7  N   UNL     1       7.980  29.643  56.532  1.00  0.00    -0.303 N 
HETATM    8  C   UNL     1       8.520  28.415  56.999  1.00  0.00     0.315 C 
HETATM    9  O   UNL     1       9.705  28.414  57.293  1.00  0.00    -0.262 OA
HETATM   10  H   UNL     1       8.688  30.354  56.322  1.00  0.00     0.171 HD
BRANCH   8  11
HETATM   11  C   UNL     1       7.690  27.136  57.161  1.00  0.00     0.310 C 
HETATM   12  N   UNL     1       7.208  26.632  55.964  1.00  0.00    -0.348 N 
HETATM   13  H   UNL     1       7.351  27.207  55.142  1.00  0.00     0.163 HD
HETATM   14  O   UNL     1       7.461  26.679  58.270  1.00  0.00    -0.262 OA
BRANCH  12  15
HETATM   15  C   UNL     1       6.175  25.609  55.918  1.00  0.00     0.085 C 
HETATM   16  C   UNL     1       5.440  25.563  54.570  1.00  0.00     0.034 C 
HETATM   17  C   UNL     1       6.208  24.888  53.410  1.00  0.00    -0.045 C 
HETATM   18  C   UNL     1       7.301  25.808  52.838  1.00  0.00     0.015 C 
HETATM   19  C   UNL     1       5.208  24.638  52.255  1.00  0.00     0.015 C 
HETATM   20  C   UNL     1       6.777  23.521  53.856  1.00  0.00     0.013 C 
HETATM   21  C   UNL     1       7.479  23.467  55.223  1.00  0.00    -0.016 C 
HETATM   22  C   UNL     1       6.714  24.232  56.316  1.00  0.00     0.029 C 
HETATM   23  C   UNL     1       8.966  23.815  55.160  1.00  0.00     0.010 C 
ENDBRANCH  12  15
ENDBRANCH   8  11
ENDBRANCH   6   7
BRANCH   1  24
HETATM   24  C   UNL     1       6.501  31.382  58.428  1.00  0.00     0.732 A 
HETATM   25  N   UNL     1       5.532  31.737  59.313  1.00  0.00    -0.152 N 
HETATM   26  C   UNL     1       5.850  32.223  60.542  1.00  0.00     0.268 A 
HETATM   27  H   UNL     1       4.553  31.593  59.087  1.00  0.00     0.188 HD
HETATM   28  C   UNL     1       7.308  32.405  60.802  1.00  0.00     0.035 A 
HETATM   29  O   UNL     1       4.991  32.483  61.376  1.00  0.00    -0.267 OA
HETATM   30  C   UNL     1       8.170  32.037  59.829  1.00  0.00     0.061 A 
HETATM   31  N   UNL     1       7.777  31.494  58.621  1.00  0.00    -0.067 NA
HETATM   32  C   UNL     1       9.668  32.158  59.962  1.00  0.00     0.072 C 
BRANCH  28  33
HETATM   33  C   UNL     1       7.669  33.026  62.128  1.00  0.00     0.042 C 
HETATM   34  C   UNL     1       8.013  31.974  63.173  1.00  0.00     0.010 C 
ENDBRANCH  28  33
ENDBRANCH   1  24
TORSDOF 5
ENDMDL
MODEL 5
REMARK VINA RESULT:      -9.1      2.013      5.004
REMARK  5 active torsions:
REMARK  status: ('A' for Active; 'I' for Inactive)
REMARK    1  A    between atoms: C_2  and  C_3 
REMARK    2  A    between atoms: C_7  and  N_8 
REMARK    3  A    between atoms: C_13  and  N_14 
REMARK       I    between atoms: N_14  and  C_15 
REMARK    4  A    between atoms: C_15  and  C_16 
REMARK       I    between atoms: C_16  and  N_17 
REMARK    5  A    between atoms: N_17  and  C_18 
ROOT
HETATM    1  N   UNL     1       7.279  31.173  59.206  1.00  0.00    -0.045 N 
HETATM    2  N   UNL     1       7.072  31.429  60.523  1.00  0.00    -0.156 NA
HETATM    3  C   UNL     1       8.247  31.144  61.097  1.00  0.00     0.055 A 
HETATM    4  C   UNL     1       8.424  31.290  62.565  1.00  0.00     0.072 C 
HETATM    5  C   UNL     1       9.214  30.717  60.149  1.00  0.00     0.079 A 
HETATM    6  C   UNL     1       8.567  30.726  58.938  1.00  0.00     0.152 A 
ENDROOT
BRANCH   6   7
HETATM    7  N   UNL     1       9.015  30.433  57.658  1.00  0.00    -0.303 N 
HETATM    8  C   UNL     1       8.879  29.251  56.882  1.00  0.00     0.315 C 
HETATM    9  O   UNL     1       9.571  29.171  55.879  1.00  0.00    -0.262 OA
HETATM   10  H   UNL     1       9.550  31.174  57.194  1.00  0.00     0.171 HD
BRANCH   8  11
HETATM   11  C   UNL     1       7.940  28.099  57.258  1.00  0.00     0.310 C 
HETATM   12  N   UNL     1       7.415  27.431  56.163  1.00  0.00    -0.348 N 
HETATM   13  H   UNL     1       7.609  27.835  55.253  1.00  0.00     0.163 HD
HETATM   14  O   UNL     1       7.671  27.871  58.426  1.00  0.00    -0.262 OA
BRANCH  12  15
HETATM   15  C   UNL     1       6.296  26.511  56.284  1.00  0.00     0.085 C 
HETATM   16  C   UNL     1       5.678  26.140  54.927  1.00  0.00     0.034 C 
HETATM   17  C   UNL     1       6.473  25.117  54.085  1.00  0.00    -0.045 C 
HETATM   18  C   UNL     1       7.695  25.762  53.406  1.00  0.00     0.015 C 
HETATM   19  C   UNL     1       5.556  24.624  52.939  1.00  0.00     0.015 C 
HETATM   20  C   UNL     1       6.867  23.893  54.944  1.00  0.00     0.013 C 
HETATM   21  C   UNL     1       7.441  24.175  56.342  1.00  0.00    -0.016 C 
HETATM   22  C   UNL     1       6.664  25.265  57.096  1.00  0.00     0.029 C 
HETATM   23  C   UNL     1       8.955  24.387  56.349  1.00  0.00     0.010 C 
ENDBRANCH  12  15
ENDBRANCH   8  11
ENDBRANCH   6   7
BRANCH   1  24
HETATM   24  C   UNL     1       6.268  31.383  58.256  1.00  0.00     0.732 A 
HETATM   25  N   UNL     1       5.647  30.231  57.889  1.00  0.00    -0.152 N 
HETATM   26  C   UNL     1       4.602  30.244  57.020  1.00  0.00     0.268 A 
HETATM   27  H   UNL     1       5.923  29.345  58.302  1.00  0.00     0.188 HD
HETATM   28  C   UNL     1       4.255  31.581  56.455  1.00  0.00     0.035 A 
HETATM   29  O   UNL     1       3.988  29.224  56.732  1.00  0.00    -0.267 OA
HETATM   30  C   UNL     1       4.967  32.647  56.883  1.00  0.00     0.061 A 
HETATM   31  N   UNL     1       5.982  32.568  57.817  1.00  0.00    -0.067 NA
HETATM   32  C   UNL     1       4.715  34.056  56.402  1.00  0.00     0.072 C 
BRANCH  28  33
HETATM   33  C   UNL     1       3.156  31.597  55.424  1.00  0.00     0.042 C 
HETATM   34  C   UNL     1       3.695  31.388  54.016  1.00  0.00     0.010 C 
ENDBRANCH  28  33
ENDBRANCH   1  24
TORSDOF 5
ENDMDL
MODEL 6
REMARK VINA RESULT:      -9.1      4.282      7.926
REMARK  5 active torsions:
REMARK  status: ('A' for Active; 'I' for Inactive)
REMARK    1  A    between atoms: C_2  and  C_3 
REMARK    2  A    between atoms: C_7  and  N_8 
REMARK    3  A    between atoms: C_13  and  N_14 
REMARK       I    between atoms: N_14  and  C_15 
REMARK    4  A    between atoms: C_15  and  C_16 
REMARK       I    between atoms: C_16  and  N_17 
REMARK    5  A    between atoms: N_17  and  C_18 
ROOT
HETATM    1  N   UNL     1       7.184  26.875  55.978  1.00  0.00    -0.045 N 
HETATM    2  N   UNL     1       7.984  27.460  56.908  1.00  0.00    -0.156 NA
HETATM    3  C   UNL     1       7.269  28.505  57.339  1.00  0.00     0.055 A 
HETATM    4  C   UNL     1       7.817  29.419  58.373  1.00  0.00     0.072 C 
HETATM    5  C   UNL     1       6.004  28.588  56.698  1.00  0.00     0.079 A 
HETATM    6  C   UNL     1       5.975  27.538  55.812  1.00  0.00     0.152 A 
ENDROOT
BRANCH   6   7
HETATM    7  N   UNL     1       4.988  27.104  54.940  1.00  0.00    -0.303 N 
HETATM    8  C   UNL     1       4.646  27.554  53.637  1.00  0.00     0.315 C 
HETATM    9  O   UNL     1       3.584  27.159  53.182  1.00  0.00    -0.262 OA
HETATM   10  H   UNL     1       4.388  26.349  55.288  1.00  0.00     0.171 HD
BRANCH   8  11
HETATM   11  C   UNL     1       5.525  28.504  52.815  1.00  0.00     0.310 C 
HETATM   12  N   UNL     1       4.830  29.199  51.839  1.00  0.00    -0.348 N 
HETATM   13  H   UNL     1       3.862  28.930  51.697  1.00  0.00     0.163 HD
HETATM   14  O   UNL     1       6.729  28.560  53.007  1.00  0.00    -0.262 OA
BRANCH  12  15
HETATM   15  C   UNL     1       5.507  29.922  50.775  1.00  0.00     0.085 C 
HETATM   16  C   UNL     1       5.892  29.020  49.591  1.00  0.00     0.034 C 
HETATM   17  C   UNL     1       4.736  28.634  48.640  1.00  0.00    -0.045 C 
HETATM   18  C   UNL     1       3.840  27.539  49.245  1.00  0.00     0.015 C 
HETATM   19  C   UNL     1       5.354  28.023  47.359  1.00  0.00     0.015 C 
HETATM   20  C   UNL     1       3.926  29.885  48.231  1.00  0.00     0.013 C 
HETATM   21  C   UNL     1       3.549  30.872  49.350  1.00  0.00    -0.016 C 
HETATM   22  C   UNL     1       4.711  31.147  50.317  1.00  0.00     0.029 C 
HETATM   23  C   UNL     1       2.236  30.525  50.053  1.00  0.00     0.010 C 
ENDBRANCH  12  15
ENDBRANCH   8  11
ENDBRANCH   6   7
BRANCH   1  24
HETATM   24  C   UNL     1       7.581  25.708  55.308  1.00  0.00     0.732 A 
HETATM   25  N   UNL     1       8.001  24.733  56.157  1.00  0.00    -0.152 N 
HETATM   26  C   UNL     1       8.370  23.511  55.692  1.00  0.00     0.268 A 
HETATM   27  H   UNL     1       7.993  24.888  57.160  1.00  0.00     0.188 HD
HETATM   28  C   UNL     1       8.355  23.357  54.207  1.00  0.00     0.035 A 
HETATM   29  O   UNL     1       8.684  22.600  56.448  1.00  0.00    -0.267 OA
HETATM   30  C   UNL     1       7.941  24.413  53.472  1.00  0.00     0.061 A 
HETATM   31  N   UNL     1       7.522  25.612  54.017  1.00  0.00    -0.067 NA
HETATM   32  C   UNL     1       7.868  24.392  51.965  1.00  0.00     0.072 C 
BRANCH  28  33
HETATM   33  C   UNL     1       8.847  22.036  53.675  1.00  0.00     0.042 C 
HETATM   34  C   UNL     1       7.703  21.063  53.426  1.00  0.00     0.010 C 
ENDBRANCH  28  33
ENDBRANCH   1  24
TORSDOF 5
ENDMDL
MODEL 7
REMARK VINA RESULT:      -8.9      2.358      9.120
REMARK  5 active torsions:
REMARK  status: ('A' for Active; 'I' for Inactive)
REMARK    1  A    between atoms: C_2  and  C_3 
REMARK    2  A    between atoms: C_7  and  N_8 
REMARK    3  A    between atoms: C_13  and  N_14 
REMARK       I    between atoms: N_14  and  C_15 
REMARK    4  A    between atoms: C_15  and  C_16 
REMARK       I    between atoms: C_16  and  N_17 
REMARK    5  A    between atoms: N_17  and  C_18 
ROOT
HETATM    1  N   UNL     1       7.499  30.496  58.728  1.00  0.00    -0.045 N 
HETATM    2  N   UNL     1       8.341  30.012  59.677  1.00  0.00    -0.156 NA
HETATM    3  C   UNL     1       8.263  30.908  60.668  1.00  0.00     0.055 A 
HETATM    4  C   UNL     1       9.064  30.735  61.906  1.00  0.00     0.072 C 
HETATM    5  C   UNL     1       7.361  31.963  60.363  1.00  0.00     0.079 A 
HETATM    6  C   UNL     1       6.892  31.688  59.102  1.00  0.00     0.152 A 
ENDROOT
BRANCH   6   7
HETATM    7  N   UNL     1       5.969  32.350  58.305  1.00  0.00    -0.303 N 
HETATM    8  C   UNL     1       4.567  32.517  58.464  1.00  0.00     0.315 C 
HETATM    9  O   UNL     1       3.953  32.941  57.496  1.00  0.00    -0.262 OA
HETATM   10  H   UNL     1       6.343  32.774  57.450  1.00  0.00     0.171 HD
BRANCH   8  11
HETATM   11  C   UNL     1       3.818  32.177  59.757  1.00  0.00     0.310 C 
HETATM   12  N   UNL     1       4.127  33.016  60.815  1.00  0.00    -0.348 N 
HETATM   13  H   UNL     1       4.882  33.676  60.662  1.00  0.00     0.163 HD
HETATM   14  O   UNL     1       3.071  31.213  59.808  1.00  0.00    -0.262 OA
BRANCH  12  15
HETATM   15  C   UNL     1       3.757  32.699  62.185  1.00  0.00     0.085 C 
HETATM   16  C   UNL     1       4.970  32.595  63.123  1.00  0.00     0.034 C 
HETATM   17  C   UNL     1       5.593  33.938  63.566  1.00  0.00    -0.045 C 
HETATM   18  C   UNL     1       6.448  34.566  62.451  1.00  0.00     0.015 C 
HETATM   19  C   UNL     1       6.561  33.654  64.740  1.00  0.00     0.015 C 
HETATM   20  C   UNL     1       4.498  34.906  64.070  1.00  0.00     0.013 C 
HETATM   21  C   UNL     1       3.223  35.026  63.219  1.00  0.00    -0.016 C 
HETATM   22  C   UNL     1       2.702  33.665  62.732  1.00  0.00     0.029 C 
HETATM   23  C   UNL     1       3.326  36.074  62.111  1.00  0.00     0.010 C 
ENDBRANCH  12  15
ENDBRANCH   8  11
ENDBRANCH   6   7
BRANCH   1  24
HETATM   24  C   UNL     1       7.284  29.806  57.526  1.00  0.00     0.732 A 
HETATM   25  N   UNL     1       8.384  29.789  56.727  1.00  0.00    -0.152 N 
HETATM   26  C   UNL     1       8.381  29.118  55.546  1.00  0.00     0.268 A 
HETATM   27  H   UNL     1       9.244  30.236  57.030  1.00  0.00     0.188 HD
HETATM   28  C   UNL     1       7.083  28.486  55.169  1.00  0.00     0.035 A 
HETATM   29  O   UNL     1       9.385  29.035  54.848  1.00  0.00    -0.267 OA
HETATM   30  C   UNL     1       6.056  28.597  56.040  1.00  0.00     0.061 A 
HETATM   31  N   UNL     1       6.146  29.248  57.256  1.00  0.00    -0.067 NA
HETATM   32  C   UNL     1       4.692  28.000  55.790  1.00  0.00     0.072 C 
BRANCH  28  33
HETATM   33  C   UNL     1       7.042  27.814  53.821  1.00  0.00     0.042 C 
HETATM   34  C   UNL     1       7.398  26.337  53.911  1.00  0.00     0.010 C 
ENDBRANCH  28  33
ENDBRANCH   1  24
TORSDOF 5
ENDMDL
MODEL 8
REMARK VINA RESULT:      -8.8      5.215      8.506
REMARK  5 active torsions:
REMARK  status: ('A' for Active; 'I' for Inactive)
REMARK    1  A    between atoms: C_2  and  C_3 
REMARK    2  A    between atoms: C_7  and  N_8 
REMARK    3  A    between atoms: C_13  and  N_14 
REMARK       I    between atoms: N_14  and  C_15 
REMARK    4  A    between atoms: C_15  and  C_16 
REMARK       I    between atoms: C_16  and  N_17 
REMARK    5  A    between atoms: N_17  and  C_18 
ROOT
HETATM    1  N   UNL     1       5.946  26.174  54.966  1.00  0.00    -0.045 N 
HETATM    2  N   UNL     1       5.662  26.874  56.095  1.00  0.00    -0.156 NA
HETATM    3  C   UNL     1       4.910  27.893  55.664  1.00  0.00     0.055 A 
HETATM    4  C   UNL     1       4.399  28.910  56.618  1.00  0.00     0.072 C 
HETATM    5  C   UNL     1       4.697  27.843  54.260  1.00  0.00     0.079 A 
HETATM    6  C   UNL     1       5.387  26.737  53.826  1.00  0.00     0.152 A 
ENDROOT
BRANCH   6   7
HETATM    7  N   UNL     1       5.518  26.177  52.564  1.00  0.00    -0.303 N 
HETATM    8  C   UNL     1       5.160  26.688  51.288  1.00  0.00     0.315 C 
HETATM    9  O   UNL     1       5.165  25.895  50.359  1.00  0.00    -0.262 OA
HETATM   10  H   UNL     1       5.917  25.233  52.535  1.00  0.00     0.171 HD
BRANCH   8  11
HETATM   11  C   UNL     1       4.761  28.148  51.045  1.00  0.00     0.310 C 
HETATM   12  N   UNL     1       3.473  28.298  50.557  1.00  0.00    -0.348 N 
HETATM   13  H   UNL     1       2.983  27.445  50.308  1.00  0.00     0.163 HD
HETATM   14  O   UNL     1       5.561  29.051  51.229  1.00  0.00    -0.262 OA
BRANCH  12  15
HETATM   15  C   UNL     1       3.003  29.552  49.992  1.00  0.00     0.085 C 
HETATM   16  C   UNL     1       3.940  30.109  48.909  1.00  0.00     0.034 C 
HETATM   17  C   UNL     1       3.856  29.417  47.529  1.00  0.00    -0.045 C 
HETATM   18  C   UNL     1       4.580  28.059  47.527  1.00  0.00     0.015 C 
HETATM   19  C   UNL     1       4.602  30.303  46.503  1.00  0.00     0.015 C 
HETATM   20  C   UNL     1       2.384  29.289  47.073  1.00  0.00     0.013 C 
HETATM   21  C   UNL     1       1.368  28.793  48.115  1.00  0.00    -0.016 C 
HETATM   22  C   UNL     1       1.559  29.450  49.492  1.00  0.00     0.029 C 
HETATM   23  C   UNL     1       1.249  27.270  48.175  1.00  0.00     0.010 C 
ENDBRANCH  12  15
ENDBRANCH   8  11
ENDBRANCH   6   7
BRANCH   1  24
HETATM   24  C   UNL     1       6.707  24.997  55.013  1.00  0.00     0.732 A 
HETATM   25  N   UNL     1       7.288  24.796  56.226  1.00  0.00    -0.152 N 
HETATM   26  C   UNL     1       8.017  23.676  56.476  1.00  0.00     0.268 A 
HETATM   27  H   UNL     1       7.138  25.457  56.982  1.00  0.00     0.188 HD
HETATM   28  C   UNL     1       8.191  22.751  55.318  1.00  0.00     0.035 A 
HETATM   29  O   UNL     1       8.488  23.447  57.583  1.00  0.00    -0.267 OA
HETATM   30  C   UNL     1       7.583  23.079  54.157  1.00  0.00     0.061 A 
HETATM   31  N   UNL     1       6.805  24.208  53.989  1.00  0.00    -0.067 NA
HETATM   32  C   UNL     1       7.668  22.231  52.912  1.00  0.00     0.072 C 
BRANCH  28  33
HETATM   33  C   UNL     1       9.071  21.551  55.559  1.00  0.00     0.042 C 
HETATM   34  C   UNL     1       8.263  20.324  55.955  1.00  0.00     0.010 C 
ENDBRANCH  28  33
ENDBRANCH   1  24
TORSDOF 5
ENDMDL
MODEL 9
REMARK VINA RESULT:      -8.7      5.474      9.176
REMARK  5 active torsions:
REMARK  status: ('A' for Active; 'I' for Inactive)
REMARK    1  A    between atoms: C_2  and  C_3 
REMARK    2  A    between atoms: C_7  and  N_8 
REMARK    3  A    between atoms: C_13  and  N_14 
REMARK       I    between atoms: N_14  and  C_15 
REMARK    4  A    between atoms: C_15  and  C_16 
REMARK       I    between atoms: C_16  and  N_17 
REMARK    5  A    between atoms: N_17  and  C_18 
ROOT
HETATM    1  N   UNL     1       4.405  28.171  52.862  1.00  0.00    -0.045 N 
HETATM    2  N   UNL     1       4.876  29.257  53.527  1.00  0.00    -0.156 NA
HETATM    3  C   UNL     1       5.327  28.759  54.683  1.00  0.00     0.055 A 
HETATM    4  C   UNL     1       5.921  29.654  55.709  1.00  0.00     0.072 C 
HETATM    5  C   UNL     1       5.159  27.351  54.759  1.00  0.00     0.079 A 
HETATM    6  C   UNL     1       4.547  26.992  53.583  1.00  0.00     0.152 A 
ENDROOT
BRANCH   6   7
HETATM    7  N   UNL     1       4.165  25.753  53.090  1.00  0.00    -0.303 N 
HETATM    8  C   UNL     1       4.942  24.707  52.526  1.00  0.00     0.315 C 
HETATM    9  O   UNL     1       4.330  23.817  51.955  1.00  0.00    -0.262 OA
HETATM   10  H   UNL     1       3.159  25.556  53.114  1.00  0.00     0.171 HD
BRANCH   8  11
HETATM   11  C   UNL     1       6.473  24.666  52.587  1.00  0.00     0.310 C 
HETATM   12  N   UNL     1       6.969  23.662  53.403  1.00  0.00    -0.348 N 
HETATM   13  H   UNL     1       6.288  23.149  53.951  1.00  0.00     0.163 HD
HETATM   14  O   UNL     1       7.142  25.498  51.995  1.00  0.00    -0.262 OA
BRANCH  12  15
HETATM   15  C   UNL     1       8.360  23.629  53.826  1.00  0.00     0.085 C 
HETATM   16  C   UNL     1       8.636  24.525  55.044  1.00  0.00     0.034 C 
HETATM   17  C   UNL     1       8.172  23.965  56.408  1.00  0.00    -0.045 C 
HETATM   18  C   UNL     1       6.650  24.100  56.592  1.00  0.00     0.015 C 
HETATM   19  C   UNL     1       8.818  24.823  57.522  1.00  0.00     0.015 C 
HETATM   20  C   UNL     1       8.650  22.506  56.588  1.00  0.00     0.013 C 
HETATM   21  C   UNL     1       8.463  21.555  55.394  1.00  0.00    -0.016 C 
HETATM   22  C   UNL     1       8.855  22.197  54.054  1.00  0.00     0.029 C 
HETATM   23  C   UNL     1       7.096  20.870  55.367  1.00  0.00     0.010 C 
ENDBRANCH  12  15
ENDBRANCH   8  11
ENDBRANCH   6   7
BRANCH   1  24
HETATM   24  C   UNL     1       3.865  28.285  51.572  1.00  0.00     0.732 A 
HETATM   25  N   UNL     1       2.646  28.886  51.565  1.00  0.00    -0.152 N 
HETATM   26  C   UNL     1       1.994  29.135  50.398  1.00  0.00     0.268 A 
HETATM   27  H   UNL     1       2.228  29.208  52.432  1.00  0.00     0.188 HD
HETATM   28  C   UNL     1       2.671  28.634  49.166  1.00  0.00     0.035 A 
HETATM   29  O   UNL     1       0.928  29.737  50.370  1.00  0.00    -0.267 OA
HETATM   30  C   UNL     1       3.871  28.029  49.311  1.00  0.00     0.061 A 
HETATM   31  N   UNL     1       4.504  27.862  50.527  1.00  0.00    -0.067 NA
HETATM   32  C   UNL     1       4.667  27.485  48.150  1.00  0.00     0.072 C 
BRANCH  28  33
HETATM   33  C   UNL     1       1.917  28.825  47.875  1.00  0.00     0.042 C 
HETATM   34  C   UNL     1       0.995  27.651  47.577  1.00  0.00     0.010 C 
ENDBRANCH  28  33
ENDBRANCH   1  24
TORSDOF 5
ENDMDL
MODEL 10
REMARK VINA RESULT:      -8.6      6.496     11.117
REMARK  5 active torsions:
REMARK  status: ('A' for Active; 'I' for Inactive)
REMARK    1  A    between atoms: C_2  and  C_3 
REMARK    2  A    between atoms: C_7  and  N_8 
REMARK    3  A    between atoms: C_13  and  N_14 
REMARK       I    between atoms: N_14  and  C_15 
REMARK    4  A    between atoms: C_15  and  C_16 
REMARK       I    between atoms: C_16  and  N_17 
REMARK    5  A    between atoms: N_17  and  C_18 
ROOT
HETATM    1  N   UNL     1       3.546  27.790  47.643  1.00  0.00    -0.045 N 
HETATM    2  N   UNL     1       2.866  26.675  47.271  1.00  0.00    -0.156 NA
HETATM    3  C   UNL     1       3.351  25.718  48.070  1.00  0.00     0.055 A 
HETATM    4  C   UNL     1       2.856  24.322  47.960  1.00  0.00     0.072 C 
HETATM    5  C   UNL     1       4.332  26.218  48.966  1.00  0.00     0.079 A 
HETATM    6  C   UNL     1       4.457  27.552  48.665  1.00  0.00     0.152 A 
ENDROOT
BRANCH   6   7
HETATM    7  N   UNL     1       5.240  28.549  49.228  1.00  0.00    -0.303 N 
HETATM    8  C   UNL     1       5.356  28.976  50.577  1.00  0.00     0.315 C 
HETATM    9  O   UNL     1       5.940  30.032  50.769  1.00  0.00    -0.262 OA
HETATM   10  H   UNL     1       5.817  29.084  48.572  1.00  0.00     0.171 HD
BRANCH   8  11
HETATM   11  C   UNL     1       4.775  28.197  51.763  1.00  0.00     0.310 C 
HETATM   12  N   UNL     1       5.577  27.149  52.185  1.00  0.00    -0.348 N 
HETATM   13  H   UNL     1       6.385  26.940  51.609  1.00  0.00     0.163 HD
HETATM   14  O   UNL     1       3.678  28.482  52.217  1.00  0.00    -0.262 OA
BRANCH  12  15
HETATM   15  C   UNL     1       5.089  26.120  53.088  1.00  0.00     0.085 C 
HETATM   16  C   UNL     1       5.659  24.728  52.773  1.00  0.00     0.034 C 
HETATM   17  C   UNL     1       7.117  24.482  53.224  1.00  0.00    -0.045 C 
HETATM   18  C   UNL     1       8.128  25.163  52.284  1.00  0.00     0.015 C 
HETATM   19  C   UNL     1       7.398  22.963  53.129  1.00  0.00     0.015 C 
HETATM   20  C   UNL     1       7.312  24.915  54.695  1.00  0.00     0.013 C 
HETATM   21  C   UNL     1       6.720  26.272  55.111  1.00  0.00    -0.016 C 
HETATM   22  C   UNL     1       5.304  26.498  54.557  1.00  0.00     0.029 C 
HETATM   23  C   UNL     1       7.665  27.450  54.872  1.00  0.00     0.010 C 
ENDBRANCH  12  15
ENDBRANCH   8  11
ENDBRANCH   6   7
BRANCH   1  24
HETATM   24  C   UNL     1       3.292  29.032  47.042  1.00  0.00     0.732 A 
HETATM   25  N   UNL     1       1.978  29.209  46.740  1.00  0.00    -0.152 N 
HETATM   26  C   UNL     1       1.534  30.376  46.204  1.00  0.00     0.268 A 
HETATM   27  H   UNL     1       1.299  28.488  46.962  1.00  0.00     0.188 HD
HETATM   28  C   UNL     1       2.589  31.388  45.906  1.00  0.00     0.035 A 
HETATM   29  O   UNL     1       0.345  30.577  45.990  1.00  0.00    -0.267 OA
HETATM   30  C   UNL     1       3.864  31.079  46.231  1.00  0.00     0.061 A 
HETATM   31  N   UNL     1       4.238  29.892  46.830  1.00  0.00    -0.067 NA
HETATM   32  C   UNL     1       5.026  32.012  45.994  1.00  0.00     0.072 C 
BRANCH  28  33
HETATM   33  C   UNL     1       2.120  32.651  45.229  1.00  0.00     0.042 C 
HETATM   34  C   UNL     1       1.783  33.743  46.235  1.00  0.00     0.010 C 
ENDBRANCH  28  33
ENDBRANCH   1  24
TORSDOF 5
ENDMDL
