MODEL 1
REMARK VINA RESULT:      -9.2      0.000      0.000
REMARK  9 active torsions:
REMARK  status: ('A' for Active; 'I' for Inactive)
REMARK    1  A    between atoms: C_4  and  S_5 
REMARK    2  A    between atoms: S_5  and  C_6 
REMARK    3  A    between atoms: C_6  and  C_7 
REMARK       I    between atoms: C_7  and  N_8 
REMARK    4  A    between atoms: C_13  and  C_14 
REMARK    5  A    between atoms: C_14  and  C_15 
REMARK    6  A    between atoms: C_15  and  C_16 
REMARK       I    between atoms: C_16  and  N_17 
REMARK    7  A    between atoms: N_17  and  C_18 
REMARK    8  A    between atoms: C_19  and  O_20 
REMARK    9  A    between atoms: C_24  and  C_25 
ROOT
HETATM    1  C   UNL     1       6.858  27.411  56.166  1.00  0.00     0.108 C 
ENDROOT
BRANCH   1   2
HETATM    2  C   UNL     1       7.346  28.844  55.908  1.00  0.00     0.052 C 
BRANCH   2   3
HETATM    3  C   UNL     1       7.905  29.631  57.072  1.00  0.00    -0.009 A 
HETATM    4  C   UNL     1       7.075  30.356  57.933  1.00  0.00     0.042 A 
HETATM    5  C   UNL     1       5.582  30.409  57.771  1.00  0.00     0.071 C 
HETATM    6  N   UNL     1       7.547  31.095  58.961  1.00  0.00    -0.228 NA
HETATM    7  C   UNL     1       8.869  31.103  59.154  1.00  0.00     0.189 A 
HETATM    8  N   UNL     1       9.752  30.466  58.379  1.00  0.00    -0.228 NA
HETATM    9  C   UNL     1       9.268  29.744  57.343  1.00  0.00     0.042 A 
HETATM   10  C   UNL     1      10.324  29.066  56.520  1.00  0.00     0.071 C 
BRANCH   7  11
HETATM   11  S   UNL     1       9.519  32.078  60.486  1.00  0.00    -0.081 SA
BRANCH  11  12
HETATM   12  C   UNL     1       9.099  30.978  61.874  1.00  0.00     0.185 C 
BRANCH  12  13
HETATM   13  C   UNL     1       7.909  31.526  62.634  1.00  0.00     0.225 C 
HETATM   14  N   UNL     1       6.681  31.084  62.225  1.00  0.00    -0.370 N 
HETATM   15  H   UNL     1       6.566  30.733  61.282  1.00  0.00     0.159 HD
HETATM   16  H   UNL     1       5.880  31.511  62.670  1.00  0.00     0.159 HD
HETATM   17  O   UNL     1       8.009  32.263  63.611  1.00  0.00    -0.273 OA
ENDBRANCH  12  13
ENDBRANCH  11  12
ENDBRANCH   7  11
ENDBRANCH   2   3
ENDBRANCH   1   2
BRANCH   1  18
HETATM   18  C   UNL     1       5.470  27.116  55.630  1.00  0.00     0.222 C 
HETATM   19  N   UNL     1       5.273  26.017  54.847  1.00  0.00    -0.325 N 
HETATM   20  H   UNL     1       4.301  25.719  54.819  1.00  0.00     0.169 HD
HETATM   21  O   UNL     1       4.496  27.806  55.936  1.00  0.00    -0.273 OA
BRANCH  19  22
HETATM   22  C   UNL     1       6.143  25.210  54.084  1.00  0.00     0.069 A 
HETATM   23  C   UNL     1       6.606  25.742  52.866  1.00  0.00     0.095 A 
HETATM   24  C   UNL     1       7.513  25.011  52.099  1.00  0.00     0.039 A 
HETATM   25  C   UNL     1       7.978  23.773  52.550  1.00  0.00     0.011 A 
HETATM   26  C   UNL     1       7.564  23.231  53.780  1.00  0.00    -0.048 A 
HETATM   27  C   UNL     1       6.635  23.977  54.531  1.00  0.00     0.040 A 
BRANCH  23  28
HETATM   28  O   UNL     1       6.109  26.978  52.527  1.00  0.00    -0.354 OA
HETATM   29  C   UNL     1       5.475  27.092  51.259  1.00  0.00     0.210 C 
ENDBRANCH  23  28
BRANCH  26  30
HETATM   30  C   UNL     1       8.158  21.900  54.277  1.00  0.00    -0.024 C 
HETATM   31  C   UNL     1       9.627  22.120  54.701  1.00  0.00     0.019 C 
HETATM   32  C   UNL     1       7.419  21.298  55.494  1.00  0.00     0.019 C 
HETATM   33  C   UNL     1       8.108  20.849  53.149  1.00  0.00     0.019 C 
ENDBRANCH  26  30
ENDBRANCH  19  22
ENDBRANCH   1  18
TORSDOF 9
ENDMDL
MODEL 2
REMARK VINA RESULT:      -8.9      0.357      1.610
REMARK  9 active torsions:
REMARK  status: ('A' for Active; 'I' for Inactive)
REMARK    1  A    between atoms: C_4  and  S_5 
REMARK    2  A    between atoms: S_5  and  C_6 
REMARK    3  A    between atoms: C_6  and  C_7 
REMARK       I    between atoms: C_7  and  N_8 
REMARK    4  A    between atoms: C_13  and  C_14 
REMARK    5  A    between atoms: C_14  and  C_15 
REMARK    6  A    between atoms: C_15  and  C_16 
REMARK       I    between atoms: C_16  and  N_17 
REMARK    7  A    between atoms: N_17  and  C_18 
REMARK    8  A    between atoms: C_19  and  O_20 
REMARK    9  A    between atoms: C_24  and  C_25 
ROOT
HETATM    1  C   UNL     1       6.967  27.533  56.147  1.00  0.00     0.108 C 
ENDROOT
BRANCH   1   2
HETATM    2  C   UNL     1       7.393  28.991  55.919  1.00  0.00     0.052 C 
BRANCH   2   3
HETATM    3  C   UNL     1       7.927  29.774  57.098  1.00  0.00    -0.009 A 
HETATM    4  C   UNL     1       9.291  29.799  57.406  1.00  0.00     0.042 A 
HETATM    5  C   UNL     1      10.321  29.059  56.599  1.00  0.00     0.071 C 
HETATM    6  N   UNL     1       9.794  30.461  58.470  1.00  0.00    -0.228 NA
HETATM    7  C   UNL     1       8.930  31.131  59.240  1.00  0.00     0.189 A 
HETATM    8  N   UNL     1       7.607  31.155  59.051  1.00  0.00    -0.228 NA
HETATM    9  C   UNL     1       7.115  30.473  57.991  1.00  0.00     0.042 A 
HETATM   10  C   UNL     1       5.622  30.546  57.854  1.00  0.00     0.071 C 
BRANCH   7  11
HETATM   11  S   UNL     1       9.559  31.996  60.655  1.00  0.00    -0.081 SA
BRANCH  11  12
HETATM   12  C   UNL     1       8.582  31.169  61.950  1.00  0.00     0.185 C 
BRANCH  12  13
HETATM   13  C   UNL     1       7.690  32.171  62.652  1.00  0.00     0.225 C 
HETATM   14  N   UNL     1       6.643  32.658  61.918  1.00  0.00    -0.370 N 
HETATM   15  H   UNL     1       6.690  32.639  60.907  1.00  0.00     0.159 HD
HETATM   16  H   UNL     1       6.095  33.390  62.350  1.00  0.00     0.159 HD
HETATM   17  O   UNL     1       7.823  32.491  63.829  1.00  0.00    -0.273 OA
ENDBRANCH  12  13
ENDBRANCH  11  12
ENDBRANCH   7  11
ENDBRANCH   2   3
ENDBRANCH   1   2
BRANCH   1  18
HETATM   18  C   UNL     1       5.558  27.213  55.686  1.00  0.00     0.222 C 
HETATM   19  N   UNL     1       5.337  26.094  54.938  1.00  0.00    -0.325 N 
HETATM   20  H   UNL     1       4.367  25.786  54.964  1.00  0.00     0.169 HD
HETATM   21  O   UNL     1       4.593  27.901  56.022  1.00  0.00    -0.273 OA
BRANCH  19  22
HETATM   22  C   UNL     1       6.177  25.278  54.153  1.00  0.00     0.069 A 
HETATM   23  C   UNL     1       6.623  25.809  52.928  1.00  0.00     0.095 A 
HETATM   24  C   UNL     1       7.502  25.069  52.139  1.00  0.00     0.039 A 
HETATM   25  C   UNL     1       7.958  23.821  52.574  1.00  0.00     0.011 A 
HETATM   26  C   UNL     1       7.562  23.280  53.809  1.00  0.00    -0.048 A 
HETATM   27  C   UNL     1       6.660  24.035  54.583  1.00  0.00     0.040 A 
BRANCH  23  28
HETATM   28  O   UNL     1       6.137  27.054  52.606  1.00  0.00    -0.354 OA
HETATM   29  C   UNL     1       5.439  27.174  51.372  1.00  0.00     0.210 C 
ENDBRANCH  23  28
BRANCH  26  30
HETATM   30  C   UNL     1       8.145  21.937  54.287  1.00  0.00    -0.024 C 
HETATM   31  C   UNL     1       9.616  22.139  54.713  1.00  0.00     0.019 C 
HETATM   32  C   UNL     1       7.402  21.323  55.497  1.00  0.00     0.019 C 
HETATM   33  C   UNL     1       8.085  20.902  53.145  1.00  0.00     0.019 C 
ENDBRANCH  26  30
ENDBRANCH  19  22
ENDBRANCH   1  18
TORSDOF 9
ENDMDL
MODEL 3
REMARK VINA RESULT:      -8.0      3.425      9.722
REMARK  9 active torsions:
REMARK  status: ('A' for Active; 'I' for Inactive)
REMARK    1  A    between atoms: C_4  and  S_5 
REMARK    2  A    between atoms: S_5  and  C_6 
REMARK    3  A    between atoms: C_6  and  C_7 
REMARK       I    between atoms: C_7  and  N_8 
REMARK    4  A    between atoms: C_13  and  C_14 
REMARK    5  A    between atoms: C_14  and  C_15 
REMARK    6  A    between atoms: C_15  and  C_16 
REMARK       I    between atoms: C_16  and  N_17 
REMARK    7  A    between atoms: N_17  and  C_18 
REMARK    8  A    between atoms: C_19  and  O_20 
REMARK    9  A    between atoms: C_24  and  C_25 
ROOT
HETATM    1  C   UNL     1       6.657  28.674  57.402  1.00  0.00     0.108 C 
ENDROOT
BRANCH   1   2
HETATM    2  C   UNL     1       5.654  27.574  57.026  1.00  0.00     0.052 C 
BRANCH   2   3
HETATM    3  C   UNL     1       6.119  26.463  56.111  1.00  0.00    -0.009 A 
HETATM    4  C   UNL     1       7.010  25.477  56.548  1.00  0.00     0.042 A 
HETATM    5  C   UNL     1       7.568  25.445  57.943  1.00  0.00     0.071 C 
HETATM    6  N   UNL     1       7.469  24.492  55.746  1.00  0.00    -0.228 NA
HETATM    7  C   UNL     1       7.024  24.470  54.486  1.00  0.00     0.189 A 
HETATM    8  N   UNL     1       6.191  25.374  53.960  1.00  0.00    -0.228 NA
HETATM    9  C   UNL     1       5.753  26.365  54.769  1.00  0.00     0.042 A 
HETATM   10  C   UNL     1       4.828  27.340  54.101  1.00  0.00     0.071 C 
BRANCH   7  11
HETATM   11  S   UNL     1       7.622  23.198  53.404  1.00  0.00    -0.081 SA
BRANCH  11  12
HETATM   12  C   UNL     1       7.889  21.882  54.633  1.00  0.00     0.185 C 
BRANCH  12  13
HETATM   13  C   UNL     1       8.189  20.570  53.937  1.00  0.00     0.225 C 
HETATM   14  N   UNL     1       7.816  20.490  52.623  1.00  0.00    -0.370 N 
HETATM   15  H   UNL     1       7.084  21.096  52.274  1.00  0.00     0.159 HD
HETATM   16  H   UNL     1       7.935  19.591  52.178  1.00  0.00     0.159 HD
HETATM   17  O   UNL     1       8.796  19.644  54.467  1.00  0.00    -0.273 OA
ENDBRANCH  12  13
ENDBRANCH  11  12
ENDBRANCH   7  11
ENDBRANCH   2   3
ENDBRANCH   1   2
BRANCH   1  18
HETATM   18  C   UNL     1       6.243  30.071  56.980  1.00  0.00     0.222 C 
HETATM   19  N   UNL     1       6.802  31.151  57.597  1.00  0.00    -0.325 N 
HETATM   20  H   UNL     1       6.731  32.003  57.045  1.00  0.00     0.169 HD
HETATM   21  O   UNL     1       5.461  30.262  56.047  1.00  0.00    -0.273 OA
BRANCH  19  22
HETATM   22  C   UNL     1       7.465  31.319  58.830  1.00  0.00     0.069 A 
HETATM   23  C   UNL     1       8.848  31.061  58.855  1.00  0.00     0.095 A 
HETATM   24  C   UNL     1       9.563  31.266  60.034  1.00  0.00     0.039 A 
HETATM   25  C   UNL     1       8.917  31.750  61.174  1.00  0.00     0.011 A 
HETATM   26  C   UNL     1       7.544  32.054  61.172  1.00  0.00    -0.048 A 
HETATM   27  C   UNL     1       6.836  31.824  59.976  1.00  0.00     0.040 A 
BRANCH  23  28
HETATM   28  O   UNL     1       9.392  30.614  57.674  1.00  0.00    -0.354 OA
HETATM   29  C   UNL     1      10.808  30.675  57.553  1.00  0.00     0.210 C 
ENDBRANCH  23  28
BRANCH  26  30
HETATM   30  C   UNL     1       6.884  32.658  62.425  1.00  0.00    -0.024 C 
HETATM   31  C   UNL     1       7.907  32.683  63.583  1.00  0.00     0.019 C 
HETATM   32  C   UNL     1       6.379  34.107  62.234  1.00  0.00     0.019 C 
HETATM   33  C   UNL     1       5.668  31.805  62.841  1.00  0.00     0.019 C 
ENDBRANCH  26  30
ENDBRANCH  19  22
ENDBRANCH   1  18
TORSDOF 9
ENDMDL
MODEL 4
REMARK VINA RESULT:      -7.8      3.505      8.917
REMARK  9 active torsions:
REMARK  status: ('A' for Active; 'I' for Inactive)
REMARK    1  A    between atoms: C_4  and  S_5 
REMARK    2  A    between atoms: S_5  and  C_6 
REMARK    3  A    between atoms: C_6  and  C_7 
REMARK       I    between atoms: C_7  and  N_8 
REMARK    4  A    between atoms: C_13  and  C_14 
REMARK    5  A    between atoms: C_14  and  C_15 
REMARK    6  A    between atoms: C_15  and  C_16 
REMARK       I    between atoms: C_16  and  N_17 
REMARK    7  A    between atoms: N_17  and  C_18 
REMARK    8  A    between atoms: C_19  and  O_20 
REMARK    9  A    between atoms: C_24  and  C_25 
ROOT
HETATM    1  C   UNL     1       5.747  27.988  54.822  1.00  0.00     0.108 C 
ENDROOT
BRANCH   1   2
HETATM    2  C   UNL     1       5.378  26.847  55.782  1.00  0.00     0.052 C 
BRANCH   2   3
HETATM    3  C   UNL     1       6.240  25.604  55.783  1.00  0.00    -0.009 A 
HETATM    4  C   UNL     1       7.141  25.337  56.819  1.00  0.00     0.042 A 
HETATM    5  C   UNL     1       7.321  26.252  57.997  1.00  0.00     0.071 C 
HETATM    6  N   UNL     1       7.948  24.254  56.831  1.00  0.00    -0.228 NA
HETATM    7  C   UNL     1       7.849  23.404  55.805  1.00  0.00     0.189 A 
HETATM    8  N   UNL     1       7.041  23.574  54.754  1.00  0.00    -0.228 NA
HETATM    9  C   UNL     1       6.251  24.672  54.745  1.00  0.00     0.042 A 
HETATM   10  C   UNL     1       5.379  24.792  53.530  1.00  0.00     0.071 C 
BRANCH   7  11
HETATM   11  S   UNL     1       8.908  21.981  55.785  1.00  0.00    -0.081 SA
BRANCH  11  12
HETATM   12  C   UNL     1       7.787  20.806  54.961  1.00  0.00     0.185 C 
BRANCH  12  13
HETATM   13  C   UNL     1       8.194  20.624  53.513  1.00  0.00     0.225 C 
HETATM   14  N   UNL     1       7.865  21.646  52.666  1.00  0.00    -0.370 N 
HETATM   15  H   UNL     1       7.105  22.270  52.907  1.00  0.00     0.159 HD
HETATM   16  H   UNL     1       8.057  21.495  51.685  1.00  0.00     0.159 HD
HETATM   17  O   UNL     1       8.846  19.667  53.107  1.00  0.00    -0.273 OA
ENDBRANCH  12  13
ENDBRANCH  11  12
ENDBRANCH   7  11
ENDBRANCH   2   3
ENDBRANCH   1   2
BRANCH   1  18
HETATM   18  C   UNL     1       7.236  28.142  54.575  1.00  0.00     0.222 C 
HETATM   19  N   UNL     1       8.020  28.709  55.537  1.00  0.00    -0.325 N 
HETATM   20  H   UNL     1       9.003  28.469  55.437  1.00  0.00     0.169 HD
HETATM   21  O   UNL     1       7.772  27.709  53.554  1.00  0.00    -0.273 OA
BRANCH  19  22
HETATM   22  C   UNL     1       7.740  29.542  56.640  1.00  0.00     0.069 A 
HETATM   23  C   UNL     1       8.770  29.728  57.579  1.00  0.00     0.095 A 
HETATM   24  C   UNL     1       8.568  30.587  58.659  1.00  0.00     0.039 A 
HETATM   25  C   UNL     1       7.360  31.279  58.791  1.00  0.00     0.011 A 
HETATM   26  C   UNL     1       6.325  31.144  57.849  1.00  0.00    -0.048 A 
HETATM   27  C   UNL     1       6.543  30.258  56.776  1.00  0.00     0.040 A 
BRANCH  23  28
HETATM   28  O   UNL     1       9.927  29.024  57.344  1.00  0.00    -0.354 OA
HETATM   29  C   UNL     1      11.111  29.782  57.126  1.00  0.00     0.210 C 
ENDBRANCH  23  28
BRANCH  26  30
HETATM   30  C   UNL     1       5.040  31.980  57.988  1.00  0.00    -0.024 C 
HETATM   31  C   UNL     1       3.835  31.038  58.205  1.00  0.00     0.019 C 
HETATM   32  C   UNL     1       5.060  32.972  59.174  1.00  0.00     0.019 C 
HETATM   33  C   UNL     1       4.811  32.809  56.707  1.00  0.00     0.019 C 
ENDBRANCH  26  30
ENDBRANCH  19  22
ENDBRANCH   1  18
TORSDOF 9
ENDMDL
MODEL 5
REMARK VINA RESULT:      -7.7      3.713      6.289
REMARK  9 active torsions:
REMARK  status: ('A' for Active; 'I' for Inactive)
REMARK    1  A    between atoms: C_4  and  S_5 
REMARK    2  A    between atoms: S_5  and  C_6 
REMARK    3  A    between atoms: C_6  and  C_7 
REMARK       I    between atoms: C_7  and  N_8 
REMARK    4  A    between atoms: C_13  and  C_14 
REMARK    5  A    between atoms: C_14  and  C_15 
REMARK    6  A    between atoms: C_15  and  C_16 
REMARK       I    between atoms: C_16  and  N_17 
REMARK    7  A    between atoms: N_17  and  C_18 
REMARK    8  A    between atoms: C_19  and  O_20 
REMARK    9  A    between atoms: C_24  and  C_25 
ROOT
HETATM    1  C   UNL     1       9.323  30.891  58.332  1.00  0.00     0.108 C 
ENDROOT
BRANCH   1   2
HETATM    2  C   UNL     1       8.432  30.275  59.421  1.00  0.00     0.052 C 
BRANCH   2   3
HETATM    3  C   UNL     1       7.919  31.176  60.522  1.00  0.00    -0.009 A 
HETATM    4  C   UNL     1       8.469  31.150  61.808  1.00  0.00     0.042 A 
HETATM    5  C   UNL     1       9.598  30.236  62.192  1.00  0.00     0.071 C 
HETATM    6  N   UNL     1       8.010  31.918  62.820  1.00  0.00    -0.228 NA
HETATM    7  C   UNL     1       6.996  32.746  62.551  1.00  0.00     0.189 A 
HETATM    8  N   UNL     1       6.383  32.834  61.366  1.00  0.00    -0.228 NA
HETATM    9  C   UNL     1       6.840  32.047  60.366  1.00  0.00     0.042 A 
HETATM   10  C   UNL     1       6.096  32.202  59.073  1.00  0.00     0.071 C 
BRANCH   7  11
HETATM   11  S   UNL     1       6.362  33.755  63.864  1.00  0.00    -0.081 SA
BRANCH  11  12
HETATM   12  C   UNL     1       5.010  34.577  62.963  1.00  0.00     0.185 C 
BRANCH  12  13
HETATM   13  C   UNL     1       3.669  34.115  63.497  1.00  0.00     0.225 C 
HETATM   14  N   UNL     1       3.067  34.945  64.402  1.00  0.00    -0.370 N 
HETATM   15  H   UNL     1       3.631  35.596  64.935  1.00  0.00     0.159 HD
HETATM   16  H   UNL     1       2.216  34.603  64.826  1.00  0.00     0.159 HD
HETATM   17  O   UNL     1       3.095  33.103  63.106  1.00  0.00    -0.273 OA
ENDBRANCH  12  13
ENDBRANCH  11  12
ENDBRANCH   7  11
ENDBRANCH   2   3
ENDBRANCH   1   2
BRANCH   1  18
HETATM   18  C   UNL     1       9.953  29.881  57.392  1.00  0.00     0.222 C 
HETATM   19  N   UNL     1       9.157  29.169  56.544  1.00  0.00    -0.325 N 
HETATM   20  H   UNL     1       9.666  28.788  55.750  1.00  0.00     0.169 HD
HETATM   21  O   UNL     1      11.173  29.731  57.325  1.00  0.00    -0.273 OA
BRANCH  19  22
HETATM   22  C   UNL     1       7.779  28.868  56.540  1.00  0.00     0.069 A 
HETATM   23  C   UNL     1       7.390  27.642  57.110  1.00  0.00     0.095 A 
HETATM   24  C   UNL     1       6.035  27.320  57.185  1.00  0.00     0.039 A 
HETATM   25  C   UNL     1       5.071  28.219  56.721  1.00  0.00     0.011 A 
HETATM   26  C   UNL     1       5.425  29.468  56.181  1.00  0.00    -0.048 A 
HETATM   27  C   UNL     1       6.799  29.767  56.098  1.00  0.00     0.040 A 
BRANCH  23  28
HETATM   28  O   UNL     1       8.413  26.842  57.561  1.00  0.00    -0.354 OA
HETATM   29  C   UNL     1       8.212  25.436  57.489  1.00  0.00     0.210 C 
ENDBRANCH  23  28
BRANCH  26  30
HETATM   30  C   UNL     1       4.331  30.463  55.752  1.00  0.00    -0.024 C 
HETATM   31  C   UNL     1       3.761  30.038  54.380  1.00  0.00     0.019 C 
HETATM   32  C   UNL     1       3.139  30.548  56.733  1.00  0.00     0.019 C 
HETATM   33  C   UNL     1       4.927  31.881  55.637  1.00  0.00     0.019 C 
ENDBRANCH  26  30
ENDBRANCH  19  22
ENDBRANCH   1  18
TORSDOF 9
ENDMDL
MODEL 6
REMARK VINA RESULT:      -7.6      3.595      8.784
REMARK  9 active torsions:
REMARK  status: ('A' for Active; 'I' for Inactive)
REMARK    1  A    between atoms: C_4  and  S_5 
REMARK    2  A    between atoms: S_5  and  C_6 
REMARK    3  A    between atoms: C_6  and  C_7 
REMARK       I    between atoms: C_7  and  N_8 
REMARK    4  A    between atoms: C_13  and  C_14 
REMARK    5  A    between atoms: C_14  and  C_15 
REMARK    6  A    between atoms: C_15  and  C_16 
REMARK       I    between atoms: C_16  and  N_17 
REMARK    7  A    between atoms: N_17  and  C_18 
REMARK    8  A    between atoms: C_19  and  O_20 
REMARK    9  A    between atoms: C_24  and  C_25 
ROOT
HETATM    1  C   UNL     1       5.748  28.458  54.771  1.00  0.00     0.108 C 
ENDROOT
BRANCH   1   2
HETATM    2  C   UNL     1       5.207  27.124  55.307  1.00  0.00     0.052 C 
BRANCH   2   3
HETATM    3  C   UNL     1       5.921  25.850  54.910  1.00  0.00    -0.009 A 
HETATM    4  C   UNL     1       5.750  25.278  53.645  1.00  0.00     0.042 A 
HETATM    5  C   UNL     1       4.857  25.875  52.595  1.00  0.00     0.071 C 
HETATM    6  N   UNL     1       6.347  24.124  53.274  1.00  0.00    -0.228 NA
HETATM    7  C   UNL     1       7.146  23.531  54.166  1.00  0.00     0.189 A 
HETATM    8  N   UNL     1       7.360  23.979  55.407  1.00  0.00    -0.228 NA
HETATM    9  C   UNL     1       6.743  25.126  55.773  1.00  0.00     0.042 A 
HETATM   10  C   UNL     1       7.030  25.556  57.182  1.00  0.00     0.071 C 
BRANCH   7  11
HETATM   11  S   UNL     1       7.931  22.007  53.713  1.00  0.00    -0.081 SA
BRANCH  11  12
HETATM   12  C   UNL     1       9.168  21.917  55.045  1.00  0.00     0.185 C 
BRANCH  12  13
HETATM   13  C   UNL     1       8.832  20.786  55.995  1.00  0.00     0.225 C 
HETATM   14  N   UNL     1       8.983  19.521  55.498  1.00  0.00    -0.370 N 
HETATM   15  H   UNL     1       8.953  19.371  54.497  1.00  0.00     0.159 HD
HETATM   16  H   UNL     1       8.679  18.765  56.096  1.00  0.00     0.159 HD
HETATM   17  O   UNL     1       8.515  20.957  57.169  1.00  0.00    -0.273 OA
ENDBRANCH  12  13
ENDBRANCH  11  12
ENDBRANCH   7  11
ENDBRANCH   2   3
ENDBRANCH   1   2
BRANCH   1  18
HETATM   18  C   UNL     1       7.255  28.502  54.604  1.00  0.00     0.222 C 
HETATM   19  N   UNL     1       8.034  28.881  55.658  1.00  0.00    -0.325 N 
HETATM   20  H   UNL     1       8.998  28.566  55.570  1.00  0.00     0.169 HD
HETATM   21  O   UNL     1       7.803  28.141  53.562  1.00  0.00    -0.273 OA
BRANCH  19  22
HETATM   22  C   UNL     1       7.772  29.606  56.838  1.00  0.00     0.069 A 
HETATM   23  C   UNL     1       8.829  29.738  57.757  1.00  0.00     0.095 A 
HETATM   24  C   UNL     1       8.642  30.492  58.915  1.00  0.00     0.039 A 
HETATM   25  C   UNL     1       7.422  31.134  59.147  1.00  0.00     0.011 A 
HETATM   26  C   UNL     1       6.359  31.053  58.231  1.00  0.00    -0.048 A 
HETATM   27  C   UNL     1       6.562  30.272  57.077  1.00  0.00     0.040 A 
BRANCH  23  28
HETATM   28  O   UNL     1       9.994  29.090  57.422  1.00  0.00    -0.354 OA
HETATM   29  C   UNL     1      11.145  29.901  57.211  1.00  0.00     0.210 C 
ENDBRANCH  23  28
BRANCH  26  30
HETATM   30  C   UNL     1       5.058  31.836  58.486  1.00  0.00    -0.024 C 
HETATM   31  C   UNL     1       4.926  32.966  57.440  1.00  0.00     0.019 C 
HETATM   32  C   UNL     1       3.776  30.976  58.390  1.00  0.00     0.019 C 
HETATM   33  C   UNL     1       5.085  32.454  59.899  1.00  0.00     0.019 C 
ENDBRANCH  26  30
ENDBRANCH  19  22
ENDBRANCH   1  18
TORSDOF 9
ENDMDL
MODEL 7
REMARK VINA RESULT:      -7.5      3.479      9.353
REMARK  9 active torsions:
REMARK  status: ('A' for Active; 'I' for Inactive)
REMARK    1  A    between atoms: C_4  and  S_5 
REMARK    2  A    between atoms: S_5  and  C_6 
REMARK    3  A    between atoms: C_6  and  C_7 
REMARK       I    between atoms: C_7  and  N_8 
REMARK    4  A    between atoms: C_13  and  C_14 
REMARK    5  A    between atoms: C_14  and  C_15 
REMARK    6  A    between atoms: C_15  and  C_16 
REMARK       I    between atoms: C_16  and  N_17 
REMARK    7  A    between atoms: N_17  and  C_18 
REMARK    8  A    between atoms: C_19  and  O_20 
REMARK    9  A    between atoms: C_24  and  C_25 
ROOT
HETATM    1  C   UNL     1       4.621  30.663  57.722  1.00  0.00     0.108 C 
ENDROOT
BRANCH   1   2
HETATM    2  C   UNL     1       5.841  30.322  56.853  1.00  0.00     0.052 C 
BRANCH   2   3
HETATM    3  C   UNL     1       6.460  28.949  56.995  1.00  0.00    -0.009 A 
HETATM    4  C   UNL     1       7.529  28.712  57.865  1.00  0.00     0.042 A 
HETATM    5  C   UNL     1       8.139  29.789  58.718  1.00  0.00     0.071 C 
HETATM    6  N   UNL     1       8.124  27.506  57.988  1.00  0.00    -0.228 NA
HETATM    7  C   UNL     1       7.640  26.505  57.248  1.00  0.00     0.189 A 
HETATM    8  N   UNL     1       6.640  26.626  56.369  1.00  0.00    -0.228 NA
HETATM    9  C   UNL     1       6.064  27.844  56.242  1.00  0.00     0.042 A 
HETATM   10  C   UNL     1       4.955  27.897  55.233  1.00  0.00     0.071 C 
BRANCH   7  11
HETATM   11  S   UNL     1       8.411  24.913  57.376  1.00  0.00    -0.081 SA
BRANCH  11  12
HETATM   12  C   UNL     1       7.708  24.136  55.887  1.00  0.00     0.185 C 
BRANCH  12  13
HETATM   13  C   UNL     1       7.934  22.638  55.922  1.00  0.00     0.225 C 
HETATM   14  N   UNL     1       7.672  21.966  54.760  1.00  0.00    -0.370 N 
HETATM   15  H   UNL     1       7.038  22.369  54.082  1.00  0.00     0.159 HD
HETATM   16  H   UNL     1       7.738  20.958  54.801  1.00  0.00     0.159 HD
HETATM   17  O   UNL     1       8.397  22.045  56.892  1.00  0.00    -0.273 OA
ENDBRANCH  12  13
ENDBRANCH  11  12
ENDBRANCH   7  11
ENDBRANCH   2   3
ENDBRANCH   1   2
BRANCH   1  18
HETATM   18  C   UNL     1       4.131  32.092  57.580  1.00  0.00     0.222 C 
HETATM   19  N   UNL     1       4.410  32.996  58.562  1.00  0.00    -0.325 N 
HETATM   20  H   UNL     1       4.347  33.960  58.242  1.00  0.00     0.169 HD
HETATM   21  O   UNL     1       3.541  32.478  56.570  1.00  0.00    -0.273 OA
BRANCH  19  22
HETATM   22  C   UNL     1       4.777  32.864  59.917  1.00  0.00     0.069 A 
HETATM   23  C   UNL     1       3.738  32.878  60.866  1.00  0.00     0.095 A 
HETATM   24  C   UNL     1       4.039  32.693  62.215  1.00  0.00     0.039 A 
HETATM   25  C   UNL     1       5.359  32.470  62.618  1.00  0.00     0.011 A 
HETATM   26  C   UNL     1       6.414  32.412  61.691  1.00  0.00    -0.048 A 
HETATM   27  C   UNL     1       6.092  32.618  60.335  1.00  0.00     0.040 A 
BRANCH  23  28
HETATM   28  O   UNL     1       2.474  33.078  60.364  1.00  0.00    -0.354 OA
HETATM   29  C   UNL     1       1.807  34.272  60.754  1.00  0.00     0.210 C 
ENDBRANCH  23  28
BRANCH  26  30
HETATM   30  C   UNL     1       7.843  32.088  62.166  1.00  0.00    -0.024 C 
HETATM   31  C   UNL     1       8.113  32.803  63.508  1.00  0.00     0.019 C 
HETATM   32  C   UNL     1       8.103  30.580  62.392  1.00  0.00     0.019 C 
HETATM   33  C   UNL     1       8.866  32.572  61.118  1.00  0.00     0.019 C 
ENDBRANCH  26  30
ENDBRANCH  19  22
ENDBRANCH   1  18
TORSDOF 9
ENDMDL
MODEL 8
REMARK VINA RESULT:      -7.4      4.272      7.829
REMARK  9 active torsions:
REMARK  status: ('A' for Active; 'I' for Inactive)
REMARK    1  A    between atoms: C_4  and  S_5 
REMARK    2  A    between atoms: S_5  and  C_6 
REMARK    3  A    between atoms: C_6  and  C_7 
REMARK       I    between atoms: C_7  and  N_8 
REMARK    4  A    between atoms: C_13  and  C_14 
REMARK    5  A    between atoms: C_14  and  C_15 
REMARK    6  A    between atoms: C_15  and  C_16 
REMARK       I    between atoms: C_16  and  N_17 
REMARK    7  A    between atoms: N_17  and  C_18 
REMARK    8  A    between atoms: C_19  and  O_20 
REMARK    9  A    between atoms: C_24  and  C_25 
ROOT
HETATM    1  C   UNL     1       6.211  28.774  55.107  1.00  0.00     0.108 C 
ENDROOT
BRANCH   1   2
HETATM    2  C   UNL     1       7.242  27.919  54.355  1.00  0.00     0.052 C 
BRANCH   2   3
HETATM    3  C   UNL     1       7.519  26.521  54.862  1.00  0.00    -0.009 A 
HETATM    4  C   UNL     1       7.294  25.394  54.065  1.00  0.00     0.042 A 
HETATM    5  C   UNL     1       6.768  25.482  52.660  1.00  0.00     0.071 C 
HETATM    6  N   UNL     1       7.500  24.132  54.500  1.00  0.00    -0.228 NA
HETATM    7  C   UNL     1       7.956  23.979  55.747  1.00  0.00     0.189 A 
HETATM    8  N   UNL     1       8.181  24.984  56.600  1.00  0.00    -0.228 NA
HETATM    9  C   UNL     1       7.955  26.242  56.157  1.00  0.00     0.042 A 
HETATM   10  C   UNL     1       8.226  27.310  57.176  1.00  0.00     0.071 C 
BRANCH   7  11
HETATM   11  S   UNL     1       8.220  22.333  56.352  1.00  0.00    -0.081 SA
BRANCH  11  12
HETATM   12  C   UNL     1       7.658  21.401  54.893  1.00  0.00     0.185 C 
BRANCH  12  13
HETATM   13  C   UNL     1       8.626  20.276  54.587  1.00  0.00     0.225 C 
HETATM   14  N   UNL     1       9.278  19.739  55.663  1.00  0.00    -0.370 N 
HETATM   15  H   UNL     1       9.385  20.287  56.507  1.00  0.00     0.159 HD
HETATM   16  H   UNL     1       9.987  19.048  55.457  1.00  0.00     0.159 HD
HETATM   17  O   UNL     1       8.781  19.801  53.466  1.00  0.00    -0.273 OA
ENDBRANCH  12  13
ENDBRANCH  11  12
ENDBRANCH   7  11
ENDBRANCH   2   3
ENDBRANCH   1   2
BRANCH   1  18
HETATM   18  C   UNL     1       4.900  28.067  55.394  1.00  0.00     0.222 C 
HETATM   19  N   UNL     1       3.998  27.894  54.386  1.00  0.00    -0.325 N 
HETATM   20  H   UNL     1       3.334  27.145  54.573  1.00  0.00     0.169 HD
HETATM   21  O   UNL     1       4.652  27.585  56.500  1.00  0.00    -0.273 OA
BRANCH  19  22
HETATM   22  C   UNL     1       3.810  28.530  53.142  1.00  0.00     0.069 A 
HETATM   23  C   UNL     1       3.396  29.875  53.166  1.00  0.00     0.095 A 
HETATM   24  C   UNL     1       3.250  30.569  51.966  1.00  0.00     0.039 A 
HETATM   25  C   UNL     1       3.539  29.943  50.750  1.00  0.00     0.011 A 
HETATM   26  C   UNL     1       3.990  28.613  50.694  1.00  0.00    -0.048 A 
HETATM   27  C   UNL     1       4.114  27.923  51.916  1.00  0.00     0.040 A 
BRANCH  23  28
HETATM   28  O   UNL     1       3.165  30.405  54.413  1.00  0.00    -0.354 OA
HETATM   29  C   UNL     1       3.803  31.640  54.717  1.00  0.00     0.210 C 
ENDBRANCH  23  28
BRANCH  26  30
HETATM   30  C   UNL     1       4.371  27.982  49.342  1.00  0.00    -0.024 C 
HETATM   31  C   UNL     1       4.620  26.470  49.532  1.00  0.00     0.019 C 
HETATM   32  C   UNL     1       3.285  28.130  48.251  1.00  0.00     0.019 C 
HETATM   33  C   UNL     1       5.654  28.643  48.797  1.00  0.00     0.019 C 
ENDBRANCH  26  30
ENDBRANCH  19  22
ENDBRANCH   1  18
TORSDOF 9
ENDMDL
MODEL 9
REMARK VINA RESULT:      -7.4      4.020      8.408
REMARK  9 active torsions:
REMARK  status: ('A' for Active; 'I' for Inactive)
REMARK    1  A    between atoms: C_4  and  S_5 
REMARK    2  A    between atoms: S_5  and  C_6 
REMARK    3  A    between atoms: C_6  and  C_7 
REMARK       I    between atoms: C_7  and  N_8 
REMARK    4  A    between atoms: C_13  and  C_14 
REMARK    5  A    between atoms: C_14  and  C_15 
REMARK    6  A    between atoms: C_15  and  C_16 
REMARK       I    between atoms: C_16  and  N_17 
REMARK    7  A    between atoms: N_17  and  C_18 
REMARK    8  A    between atoms: C_19  and  O_20 
REMARK    9  A    between atoms: C_24  and  C_25 
ROOT
HETATM    1  C   UNL     1       4.534  31.205  55.686  1.00  0.00     0.108 C 
ENDROOT
BRANCH   1   2
HETATM    2  C   UNL     1       3.547  30.619  54.665  1.00  0.00     0.052 C 
BRANCH   2   3
HETATM    3  C   UNL     1       4.079  30.203  53.312  1.00  0.00    -0.009 A 
HETATM    4  C   UNL     1       4.110  31.090  52.231  1.00  0.00     0.042 A 
HETATM    5  C   UNL     1       3.624  32.509  52.328  1.00  0.00     0.071 C 
HETATM    6  N   UNL     1       4.548  30.738  51.003  1.00  0.00    -0.228 NA
HETATM    7  C   UNL     1       4.983  29.485  50.842  1.00  0.00     0.189 A 
HETATM    8  N   UNL     1       4.976  28.551  51.799  1.00  0.00    -0.228 NA
HETATM    9  C   UNL     1       4.518  28.912  53.020  1.00  0.00     0.042 A 
HETATM   10  C   UNL     1       4.537  27.806  54.034  1.00  0.00     0.071 C 
BRANCH   7  11
HETATM   11  S   UNL     1       5.549  28.989  49.236  1.00  0.00    -0.081 SA
BRANCH  11  12
HETATM   12  C   UNL     1       3.961  28.445  48.531  1.00  0.00     0.185 C 
BRANCH  12  13
HETATM   13  C   UNL     1       3.988  26.953  48.271  1.00  0.00     0.225 C 
HETATM   14  N   UNL     1       3.962  26.152  49.379  1.00  0.00    -0.370 N 
HETATM   15  H   UNL     1       4.276  26.519  50.269  1.00  0.00     0.159 HD
HETATM   16  H   UNL     1       4.066  25.159  49.217  1.00  0.00     0.159 HD
HETATM   17  O   UNL     1       3.956  26.460  47.147  1.00  0.00    -0.273 OA
ENDBRANCH  12  13
ENDBRANCH  11  12
ENDBRANCH   7  11
ENDBRANCH   2   3
ENDBRANCH   1   2
BRANCH   1  18
HETATM   18  C   UNL     1       4.189  30.907  57.133  1.00  0.00     0.222 C 
HETATM   19  N   UNL     1       5.113  30.295  57.929  1.00  0.00    -0.325 N 
HETATM   20  H   UNL     1       4.938  30.439  58.920  1.00  0.00     0.169 HD
HETATM   21  O   UNL     1       3.120  31.261  57.631  1.00  0.00    -0.273 OA
BRANCH  19  22
HETATM   22  C   UNL     1       6.259  29.521  57.654  1.00  0.00     0.069 A 
HETATM   23  C   UNL     1       7.509  30.124  57.885  1.00  0.00     0.095 A 
HETATM   24  C   UNL     1       8.675  29.385  57.685  1.00  0.00     0.039 A 
HETATM   25  C   UNL     1       8.600  28.048  57.284  1.00  0.00     0.011 A 
HETATM   26  C   UNL     1       7.366  27.406  57.082  1.00  0.00    -0.048 A 
HETATM   27  C   UNL     1       6.201  28.174  57.272  1.00  0.00     0.040 A 
BRANCH  23  28
HETATM   28  O   UNL     1       7.472  31.433  58.303  1.00  0.00    -0.354 OA
HETATM   29  C   UNL     1       8.141  31.741  59.520  1.00  0.00     0.210 C 
ENDBRANCH  23  28
BRANCH  26  30
HETATM   30  C   UNL     1       7.324  25.910  56.715  1.00  0.00    -0.024 C 
HETATM   31  C   UNL     1       7.502  25.751  55.189  1.00  0.00     0.019 C 
HETATM   32  C   UNL     1       8.428  25.066  57.392  1.00  0.00     0.019 C 
HETATM   33  C   UNL     1       5.969  25.305  57.134  1.00  0.00     0.019 C 
ENDBRANCH  26  30
ENDBRANCH  19  22
ENDBRANCH   1  18
TORSDOF 9
ENDMDL
MODEL 10
REMARK VINA RESULT:      -7.3      2.509      4.631
REMARK  9 active torsions:
REMARK  status: ('A' for Active; 'I' for Inactive)
REMARK    1  A    between atoms: C_4  and  S_5 
REMARK    2  A    between atoms: S_5  and  C_6 
REMARK    3  A    between atoms: C_6  and  C_7 
REMARK       I    between atoms: C_7  and  N_8 
REMARK    4  A    between atoms: C_13  and  C_14 
REMARK    5  A    between atoms: C_14  and  C_15 
REMARK    6  A    between atoms: C_15  and  C_16 
REMARK       I    between atoms: C_16  and  N_17 
REMARK    7  A    between atoms: N_17  and  C_18 
REMARK    8  A    between atoms: C_19  and  O_20 
REMARK    9  A    between atoms: C_24  and  C_25 
ROOT
HETATM    1  C   UNL     1       6.162  27.981  56.993  1.00  0.00     0.108 C 
ENDROOT
BRANCH   1   2
HETATM    2  C   UNL     1       6.448  29.455  56.673  1.00  0.00     0.052 C 
BRANCH   2   3
HETATM    3  C   UNL     1       6.320  30.468  57.789  1.00  0.00    -0.009 A 
HETATM    4  C   UNL     1       7.418  30.840  58.572  1.00  0.00     0.042 A 
HETATM    5  C   UNL     1       8.793  30.268  58.369  1.00  0.00     0.071 C 
HETATM    6  N   UNL     1       7.328  31.716  59.596  1.00  0.00    -0.228 NA
HETATM    7  C   UNL     1       6.130  32.253  59.842  1.00  0.00     0.189 A 
HETATM    8  N   UNL     1       5.013  31.952  59.172  1.00  0.00    -0.228 NA
HETATM    9  C   UNL     1       5.112  31.059  58.160  1.00  0.00     0.042 A 
HETATM   10  C   UNL     1       3.814  30.772  57.464  1.00  0.00     0.071 C 
BRANCH   7  11
HETATM   11  S   UNL     1       5.978  33.394  61.191  1.00  0.00    -0.081 SA
BRANCH  11  12
HETATM   12  C   UNL     1       4.179  33.672  61.126  1.00  0.00     0.185 C 
BRANCH  12  13
HETATM   13  C   UNL     1       3.490  32.892  62.226  1.00  0.00     0.225 C 
HETATM   14  N   UNL     1       3.486  31.532  62.084  1.00  0.00    -0.370 N 
HETATM   15  H   UNL     1       3.594  31.126  61.163  1.00  0.00     0.159 HD
HETATM   16  H   UNL     1       2.955  31.011  62.769  1.00  0.00     0.159 HD
HETATM   17  O   UNL     1       3.021  33.412  63.235  1.00  0.00    -0.273 OA
ENDBRANCH  12  13
ENDBRANCH  11  12
ENDBRANCH   7  11
ENDBRANCH   2   3
ENDBRANCH   1   2
BRANCH   1  18
HETATM   18  C   UNL     1       7.358  27.061  56.832  1.00  0.00     0.222 C 
HETATM   19  N   UNL     1       7.581  26.459  55.629  1.00  0.00    -0.325 N 
HETATM   20  H   UNL     1       8.544  26.152  55.513  1.00  0.00     0.169 HD
HETATM   21  O   UNL     1       8.173  26.892  57.739  1.00  0.00    -0.273 OA
BRANCH  19  22
HETATM   22  C   UNL     1       6.756  26.190  54.518  1.00  0.00     0.069 A 
HETATM   23  C   UNL     1       6.352  24.856  54.328  1.00  0.00     0.095 A 
HETATM   24  C   UNL     1       5.489  24.542  53.279  1.00  0.00     0.039 A 
HETATM   25  C   UNL     1       5.007  25.551  52.438  1.00  0.00     0.011 A 
HETATM   26  C   UNL     1       5.361  26.898  52.625  1.00  0.00    -0.048 A 
HETATM   27  C   UNL     1       6.248  27.191  53.679  1.00  0.00     0.040 A 
BRANCH  23  28
HETATM   28  O   UNL     1       6.860  23.946  55.224  1.00  0.00    -0.354 OA
HETATM   29  C   UNL     1       7.710  22.931  54.702  1.00  0.00     0.210 C 
ENDBRANCH  23  28
BRANCH  26  30
HETATM   30  C   UNL     1       4.749  27.989  51.726  1.00  0.00    -0.024 C 
HETATM   31  C   UNL     1       4.461  27.400  50.328  1.00  0.00     0.019 C 
HETATM   32  C   UNL     1       3.419  28.570  52.259  1.00  0.00     0.019 C 
HETATM   33  C   UNL     1       5.735  29.168  51.587  1.00  0.00     0.019 C 
ENDBRANCH  26  30
ENDBRANCH  19  22
ENDBRANCH   1  18
TORSDOF 9
ENDMDL
