MODEL 1
REMARK VINA RESULT:     -10.2      0.000      0.000
REMARK  10 active torsions:
REMARK  status: ('A' for Active; 'I' for Inactive)
REMARK    1  A    between atoms: C_2  and  C_3 
REMARK    2  A    between atoms: C_3  and  C_4 
REMARK    3  A    between atoms: C_4  and  O_5 
REMARK    4  A    between atoms: O_5  and  C_6 
REMARK    5  A    between atoms: C_8  and  C_9 
REMARK       I    between atoms: C_9  and  N_10 
REMARK    6  A    between atoms: N_10  and  C_11 
REMARK    7  A    between atoms: C_11  and  N_12 
REMARK    8  A    between atoms: N_12  and  C_13 
REMARK    9  A    between atoms: C_15  and  O_16 
REMARK   10  A    between atoms: C_17  and  C_18 
ROOT
HETATM    1  N   UNL     1       7.060  30.460  58.232  1.00  0.00    -0.333 N 
HETATM    2  H   UNL     1       6.305  31.091  57.971  1.00  0.00     0.168 HD
ENDROOT
BRANCH   1   3
HETATM    3  C   UNL     1       7.850  30.997  59.213  1.00  0.00     0.179 C 
HETATM    4  S   UNL     1       9.410  31.421  58.775  1.00  0.00    -0.040 SA
BRANCH   3   5
HETATM    5  N   UNL     1       7.324  31.063  60.479  1.00  0.00    -0.299 N 
HETATM    6  C   UNL     1       6.349  31.953  60.912  1.00  0.00     0.257 C 
HETATM    7  O   UNL     1       5.324  32.202  60.288  1.00  0.00    -0.267 OA
HETATM    8  H   UNL     1       7.944  30.683  61.180  1.00  0.00     0.171 HD
BRANCH   6   9
HETATM    9  C   UNL     1       6.486  32.441  62.308  1.00  0.00     0.035 A 
HETATM   10  C   UNL     1       5.369  32.646  63.124  1.00  0.00     0.053 A 
HETATM   11  C   UNL     1       5.530  33.091  64.441  1.00  0.00     0.069 A 
HETATM   12  C   UNL     1       6.814  33.323  64.936  1.00  0.00     0.037 A 
HETATM   13  C   UNL     1       7.932  33.097  64.130  1.00  0.00     0.004 A 
HETATM   14  C   UNL     1       7.770  32.652  62.819  1.00  0.00     0.017 A 
BRANCH  11  15
HETATM   15  O   UNL     1       4.361  33.221  65.135  1.00  0.00    -0.351 OA
BRANCH  15  16
HETATM   16  C   UNL     1       4.088  34.446  65.810  1.00  0.00     0.175 C 
BRANCH  16  17
HETATM   17  C   UNL     1       3.742  35.602  64.867  1.00  0.00     0.026 C 
BRANCH  17  18
HETATM   18  C   UNL     1       4.835  36.666  64.734  1.00  0.00    -0.002 C 
HETATM   19  C   UNL     1       5.619  36.580  63.433  1.00  0.00     0.005 C 
ENDBRANCH  17  18
ENDBRANCH  16  17
ENDBRANCH  15  16
ENDBRANCH  11  15
ENDBRANCH   6   9
ENDBRANCH   3   5
ENDBRANCH   1   3
BRANCH   1  20
HETATM   20  C   UNL     1       6.935  29.146  57.729  1.00  0.00     0.036 A 
HETATM   21  C   UNL     1       5.832  28.657  57.027  1.00  0.00     0.067 A 
HETATM   22  C   UNL     1       5.851  27.364  56.473  1.00  0.00     0.082 A 
HETATM   23  C   UNL     1       6.979  26.536  56.586  1.00  0.00     0.050 A 
HETATM   24  C   UNL     1       8.072  27.036  57.312  1.00  0.00     0.021 A 
HETATM   25  C   UNL     1       8.051  28.317  57.876  1.00  0.00     0.030 A 
BRANCH  22  26
HETATM   26  O   UNL     1       4.745  26.937  55.787  1.00  0.00    -0.360 OA
HETATM   27  H   UNL     1       3.936  27.218  56.243  1.00  0.00     0.217 HD
ENDBRANCH  22  26
BRANCH  23  28
HETATM   28  C   UNL     1       7.130  25.225  55.944  1.00  0.00     0.183 A 
HETATM   29  O   UNL     1       7.161  25.177  54.572  1.00  0.00    -0.289 OA
HETATM   30  C   UNL     1       7.405  23.867  54.288  1.00  0.00     0.106 A 
HETATM   31  C   UNL     1       7.494  23.183  55.487  1.00  0.00     0.093 A 
HETATM   32  C   UNL     1       7.559  23.290  53.034  1.00  0.00     0.040 A 
HETATM   33  N   UNL     1       7.300  24.050  56.532  1.00  0.00    -0.221 NA
HETATM   34  C   UNL     1       7.765  21.808  55.465  1.00  0.00     0.034 A 
HETATM   35  C   UNL     1       7.937  21.188  54.218  1.00  0.00     0.002 A 
HETATM   36  C   UNL     1       7.834  21.917  53.026  1.00  0.00     0.003 A 
ENDBRANCH  23  28
ENDBRANCH   1  20
TORSDOF 10
ENDMDL
MODEL 2
REMARK VINA RESULT:     -10.1      1.779      2.100
REMARK  10 active torsions:
REMARK  status: ('A' for Active; 'I' for Inactive)
REMARK    1  A    between atoms: C_2  and  C_3 
REMARK    2  A    between atoms: C_3  and  C_4 
REMARK    3  A    between atoms: C_4  and  O_5 
REMARK    4  A    between atoms: O_5  and  C_6 
REMARK    5  A    between atoms: C_8  and  C_9 
REMARK       I    between atoms: C_9  and  N_10 
REMARK    6  A    between atoms: N_10  and  C_11 
REMARK    7  A    between atoms: C_11  and  N_12 
REMARK    8  A    between atoms: N_12  and  C_13 
REMARK    9  A    between atoms: C_15  and  O_16 
REMARK   10  A    between atoms: C_17  and  C_18 
ROOT
HETATM    1  N   UNL     1       6.869  30.138  57.293  1.00  0.00    -0.333 N 
HETATM    2  H   UNL     1       7.476  30.826  56.854  1.00  0.00     0.168 HD
ENDROOT
BRANCH   1   3
HETATM    3  C   UNL     1       5.774  30.725  57.868  1.00  0.00     0.179 C 
HETATM    4  S   UNL     1       4.285  30.363  57.192  1.00  0.00    -0.040 SA
BRANCH   3   5
HETATM    5  N   UNL     1       6.000  31.617  58.886  1.00  0.00    -0.299 N 
HETATM    6  C   UNL     1       7.217  31.844  59.516  1.00  0.00     0.257 C 
HETATM    7  O   UNL     1       8.279  31.992  58.920  1.00  0.00    -0.267 OA
HETATM    8  H   UNL     1       5.164  31.832  59.410  1.00  0.00     0.171 HD
BRANCH   6   9
HETATM    9  C   UNL     1       7.154  32.135  60.971  1.00  0.00     0.035 A 
HETATM   10  C   UNL     1       5.932  32.296  61.631  1.00  0.00     0.053 A 
HETATM   11  C   UNL     1       5.902  32.553  63.006  1.00  0.00     0.069 A 
HETATM   12  C   UNL     1       7.101  32.641  63.715  1.00  0.00     0.037 A 
HETATM   13  C   UNL     1       8.322  32.458  63.061  1.00  0.00     0.004 A 
HETATM   14  C   UNL     1       8.350  32.199  61.693  1.00  0.00     0.017 A 
BRANCH  11  15
HETATM   15  O   UNL     1       4.645  32.660  63.529  1.00  0.00    -0.351 OA
BRANCH  15  16
HETATM   16  C   UNL     1       3.857  33.805  63.213  1.00  0.00     0.175 C 
BRANCH  16  17
HETATM   17  C   UNL     1       3.200  34.454  64.434  1.00  0.00     0.026 C 
BRANCH  17  18
HETATM   18  C   UNL     1       4.047  34.419  65.709  1.00  0.00    -0.002 C 
HETATM   19  C   UNL     1       4.004  35.713  66.508  1.00  0.00     0.005 C 
ENDBRANCH  17  18
ENDBRANCH  16  17
ENDBRANCH  15  16
ENDBRANCH  11  15
ENDBRANCH   6   9
ENDBRANCH   3   5
ENDBRANCH   1   3
BRANCH   1  20
HETATM   20  C   UNL     1       7.165  28.794  56.972  1.00  0.00     0.036 A 
HETATM   21  C   UNL     1       7.459  27.793  57.899  1.00  0.00     0.067 A 
HETATM   22  C   UNL     1       7.633  26.460  57.484  1.00  0.00     0.082 A 
HETATM   23  C   UNL     1       7.497  26.090  56.136  1.00  0.00     0.050 A 
HETATM   24  C   UNL     1       7.221  27.112  55.214  1.00  0.00     0.021 A 
HETATM   25  C   UNL     1       7.060  28.441  55.624  1.00  0.00     0.030 A 
BRANCH  22  26
HETATM   26  O   UNL     1       7.912  25.516  58.437  1.00  0.00    -0.360 OA
HETATM   27  H   UNL     1       7.159  24.915  58.548  1.00  0.00     0.217 HD
ENDBRANCH  22  26
BRANCH  23  28
HETATM   28  C   UNL     1       7.546  24.713  55.632  1.00  0.00     0.183 A 
HETATM   29  O   UNL     1       7.647  24.524  54.276  1.00  0.00    -0.289 OA
HETATM   30  C   UNL     1       7.769  23.175  54.133  1.00  0.00     0.106 A 
HETATM   31  C   UNL     1       7.721  22.609  55.394  1.00  0.00     0.093 A 
HETATM   32  C   UNL     1       7.930  22.463  52.951  1.00  0.00     0.040 A 
HETATM   33  N   UNL     1       7.561  23.591  56.338  1.00  0.00    -0.221 NA
HETATM   34  C   UNL     1       7.849  21.219  55.520  1.00  0.00     0.034 A 
HETATM   35  C   UNL     1       8.023  20.463  54.350  1.00  0.00     0.002 A 
HETATM   36  C   UNL     1       8.062  21.076  53.091  1.00  0.00     0.003 A 
ENDBRANCH  23  28
ENDBRANCH   1  20
TORSDOF 10
ENDMDL
MODEL 3
REMARK VINA RESULT:      -9.5      2.275     11.388
REMARK  10 active torsions:
REMARK  status: ('A' for Active; 'I' for Inactive)
REMARK    1  A    between atoms: C_2  and  C_3 
REMARK    2  A    between atoms: C_3  and  C_4 
REMARK    3  A    between atoms: C_4  and  O_5 
REMARK    4  A    between atoms: O_5  and  C_6 
REMARK    5  A    between atoms: C_8  and  C_9 
REMARK       I    between atoms: C_9  and  N_10 
REMARK    6  A    between atoms: N_10  and  C_11 
REMARK    7  A    between atoms: C_11  and  N_12 
REMARK    8  A    between atoms: N_12  and  C_13 
REMARK    9  A    between atoms: C_15  and  O_16 
REMARK   10  A    between atoms: C_17  and  C_18 
ROOT
HETATM    1  N   UNL     1       6.286  29.742  55.295  1.00  0.00    -0.333 N 
HETATM    2  H   UNL     1       7.060  29.982  54.679  1.00  0.00     0.168 HD
ENDROOT
BRANCH   1   3
HETATM    3  C   UNL     1       5.421  28.863  54.700  1.00  0.00     0.179 C 
HETATM    4  S   UNL     1       3.994  29.501  54.099  1.00  0.00    -0.040 SA
BRANCH   3   5
HETATM    5  N   UNL     1       5.761  27.533  54.723  1.00  0.00    -0.299 N 
HETATM    6  C   UNL     1       5.791  26.718  55.848  1.00  0.00     0.257 C 
HETATM    7  O   UNL     1       4.899  26.681  56.689  1.00  0.00    -0.267 OA
HETATM    8  H   UNL     1       6.350  27.267  53.947  1.00  0.00     0.171 HD
BRANCH   6   9
HETATM    9  C   UNL     1       6.866  25.696  55.884  1.00  0.00     0.035 A 
HETATM   10  C   UNL     1       7.206  24.952  54.749  1.00  0.00     0.053 A 
HETATM   11  C   UNL     1       8.236  24.006  54.808  1.00  0.00     0.069 A 
HETATM   12  C   UNL     1       8.926  23.815  56.006  1.00  0.00     0.037 A 
HETATM   13  C   UNL     1       8.603  24.573  57.134  1.00  0.00     0.004 A 
HETATM   14  C   UNL     1       7.579  25.516  57.073  1.00  0.00     0.017 A 
BRANCH  11  15
HETATM   15  O   UNL     1       8.483  23.373  53.624  1.00  0.00    -0.351 OA
BRANCH  15  16
HETATM   16  C   UNL     1       7.721  22.218  53.283  1.00  0.00     0.175 C 
BRANCH  16  17
HETATM   17  C   UNL     1       8.340  20.907  53.776  1.00  0.00     0.026 C 
BRANCH  17  18
HETATM   18  C   UNL     1       7.800  20.412  55.120  1.00  0.00    -0.002 C 
HETATM   19  C   UNL     1       8.867  20.275  56.197  1.00  0.00     0.005 C 
ENDBRANCH  17  18
ENDBRANCH  16  17
ENDBRANCH  15  16
ENDBRANCH  11  15
ENDBRANCH   6   9
ENDBRANCH   3   5
ENDBRANCH   1   3
BRANCH   1  20
HETATM   20  C   UNL     1       6.450  30.149  56.638  1.00  0.00     0.036 A 
HETATM   21  C   UNL     1       7.402  29.639  57.521  1.00  0.00     0.067 A 
HETATM   22  C   UNL     1       7.555  30.189  58.807  1.00  0.00     0.082 A 
HETATM   23  C   UNL     1       6.776  31.276  59.235  1.00  0.00     0.050 A 
HETATM   24  C   UNL     1       5.809  31.764  58.341  1.00  0.00     0.021 A 
HETATM   25  C   UNL     1       5.647  31.210  57.066  1.00  0.00     0.030 A 
BRANCH  22  26
HETATM   26  O   UNL     1       8.511  29.655  59.630  1.00  0.00    -0.360 OA
HETATM   27  H   UNL     1       9.046  29.005  59.149  1.00  0.00     0.217 HD
ENDBRANCH  22  26
BRANCH  23  28
HETATM   28  C   UNL     1       6.946  31.985  60.509  1.00  0.00     0.183 A 
HETATM   29  O   UNL     1       6.147  33.074  60.754  1.00  0.00    -0.289 OA
HETATM   30  C   UNL     1       6.466  33.444  62.026  1.00  0.00     0.106 A 
HETATM   31  C   UNL     1       7.446  32.582  62.485  1.00  0.00     0.093 A 
HETATM   32  C   UNL     1       5.916  34.483  62.765  1.00  0.00     0.040 A 
HETATM   33  N   UNL     1       7.758  31.671  61.508  1.00  0.00    -0.221 NA
HETATM   34  C   UNL     1       7.934  32.741  63.789  1.00  0.00     0.034 A 
HETATM   35  C   UNL     1       7.397  33.774  64.573  1.00  0.00     0.002 A 
HETATM   36  C   UNL     1       6.408  34.628  64.068  1.00  0.00     0.003 A 
ENDBRANCH  23  28
ENDBRANCH   1  20
TORSDOF 10
ENDMDL
MODEL 4
REMARK VINA RESULT:      -9.4      1.905      2.814
REMARK  10 active torsions:
REMARK  status: ('A' for Active; 'I' for Inactive)
REMARK    1  A    between atoms: C_2  and  C_3 
REMARK    2  A    between atoms: C_3  and  C_4 
REMARK    3  A    between atoms: C_4  and  O_5 
REMARK    4  A    between atoms: O_5  and  C_6 
REMARK    5  A    between atoms: C_8  and  C_9 
REMARK       I    between atoms: C_9  and  N_10 
REMARK    6  A    between atoms: N_10  and  C_11 
REMARK    7  A    between atoms: C_11  and  N_12 
REMARK    8  A    between atoms: N_12  and  C_13 
REMARK    9  A    between atoms: C_15  and  O_16 
REMARK   10  A    between atoms: C_17  and  C_18 
ROOT
HETATM    1  N   UNL     1       8.031  30.204  57.887  1.00  0.00    -0.333 N 
HETATM    2  H   UNL     1       7.205  30.626  58.306  1.00  0.00     0.168 HD
ENDROOT
BRANCH   1   3
HETATM    3  C   UNL     1       9.180  30.826  58.297  1.00  0.00     0.179 C 
HETATM    4  S   UNL     1      10.557  30.540  57.389  1.00  0.00    -0.040 SA
BRANCH   3   5
HETATM    5  N   UNL     1       9.119  31.556  59.458  1.00  0.00    -0.299 N 
HETATM    6  C   UNL     1       8.719  31.081  60.701  1.00  0.00     0.257 C 
HETATM    7  O   UNL     1       9.106  30.022  61.185  1.00  0.00    -0.267 OA
HETATM    8  H   UNL     1       9.019  32.547  59.291  1.00  0.00     0.171 HD
BRANCH   6   9
HETATM    9  C   UNL     1       7.959  32.033  61.549  1.00  0.00     0.035 A 
HETATM   10  C   UNL     1       6.874  32.757  61.043  1.00  0.00     0.053 A 
HETATM   11  C   UNL     1       6.165  33.634  61.871  1.00  0.00     0.069 A 
HETATM   12  C   UNL     1       6.545  33.779  63.206  1.00  0.00     0.037 A 
HETATM   13  C   UNL     1       7.614  33.040  63.718  1.00  0.00     0.004 A 
HETATM   14  C   UNL     1       8.318  32.164  62.894  1.00  0.00     0.017 A 
BRANCH  11  15
HETATM   15  O   UNL     1       5.113  34.254  61.259  1.00  0.00    -0.351 OA
BRANCH  15  16
HETATM   16  C   UNL     1       3.825  33.646  61.312  1.00  0.00     0.175 C 
BRANCH  16  17
HETATM   17  C   UNL     1       3.311  33.176  59.948  1.00  0.00     0.026 C 
BRANCH  17  18
HETATM   18  C   UNL     1       3.465  31.675  59.691  1.00  0.00    -0.002 C 
HETATM   19  C   UNL     1       4.050  31.344  58.325  1.00  0.00     0.005 C 
ENDBRANCH  17  18
ENDBRANCH  16  17
ENDBRANCH  15  16
ENDBRANCH  11  15
ENDBRANCH   6   9
ENDBRANCH   3   5
ENDBRANCH   1   3
BRANCH   1  20
HETATM   20  C   UNL     1       7.801  28.972  57.234  1.00  0.00     0.036 A 
HETATM   21  C   UNL     1       7.692  28.803  55.853  1.00  0.00     0.067 A 
HETATM   22  C   UNL     1       7.571  27.516  55.296  1.00  0.00     0.082 A 
HETATM   23  C   UNL     1       7.578  26.366  56.101  1.00  0.00     0.050 A 
HETATM   24  C   UNL     1       7.669  26.556  57.490  1.00  0.00     0.021 A 
HETATM   25  C   UNL     1       7.777  27.835  58.048  1.00  0.00     0.030 A 
BRANCH  22  26
HETATM   26  O   UNL     1       7.475  27.408  53.934  1.00  0.00    -0.360 OA
HETATM   27  H   UNL     1       6.653  26.953  53.689  1.00  0.00     0.217 HD
ENDBRANCH  22  26
BRANCH  23  28
HETATM   28  C   UNL     1       7.574  24.987  55.601  1.00  0.00     0.183 A 
HETATM   29  O   UNL     1       7.796  24.784  54.262  1.00  0.00    -0.289 OA
HETATM   30  C   UNL     1       7.830  23.429  54.128  1.00  0.00     0.106 A 
HETATM   31  C   UNL     1       7.613  22.875  55.377  1.00  0.00     0.093 A 
HETATM   32  C   UNL     1       8.056  22.701  52.967  1.00  0.00     0.040 A 
HETATM   33  N   UNL     1       7.433  23.871  56.302  1.00  0.00    -0.221 NA
HETATM   34  C   UNL     1       7.621  21.480  55.511  1.00  0.00     0.034 A 
HETATM   35  C   UNL     1       7.856  20.707  54.363  1.00  0.00     0.002 A 
HETATM   36  C   UNL     1       8.067  21.309  53.116  1.00  0.00     0.003 A 
ENDBRANCH  23  28
ENDBRANCH   1  20
TORSDOF 10
ENDMDL
MODEL 5
REMARK VINA RESULT:      -9.4      3.080      5.145
REMARK  10 active torsions:
REMARK  status: ('A' for Active; 'I' for Inactive)
REMARK    1  A    between atoms: C_2  and  C_3 
REMARK    2  A    between atoms: C_3  and  C_4 
REMARK    3  A    between atoms: C_4  and  O_5 
REMARK    4  A    between atoms: O_5  and  C_6 
REMARK    5  A    between atoms: C_8  and  C_9 
REMARK       I    between atoms: C_9  and  N_10 
REMARK    6  A    between atoms: N_10  and  C_11 
REMARK    7  A    between atoms: C_11  and  N_12 
REMARK    8  A    between atoms: N_12  and  C_13 
REMARK    9  A    between atoms: C_15  and  O_16 
REMARK   10  A    between atoms: C_17  and  C_18 
ROOT
HETATM    1  N   UNL     1       4.346  29.064  56.835  1.00  0.00    -0.333 N 
HETATM    2  H   UNL     1       3.382  28.866  57.095  1.00  0.00     0.168 HD
ENDROOT
BRANCH   1   3
HETATM    3  C   UNL     1       4.698  30.351  57.143  1.00  0.00     0.179 C 
HETATM    4  S   UNL     1       4.428  31.508  55.963  1.00  0.00    -0.040 SA
BRANCH   3   5
HETATM    5  N   UNL     1       5.313  30.562  58.352  1.00  0.00    -0.299 N 
HETATM    6  C   UNL     1       5.612  31.799  58.910  1.00  0.00     0.257 C 
HETATM    7  O   UNL     1       4.825  32.739  58.952  1.00  0.00    -0.267 OA
HETATM    8  H   UNL     1       5.876  29.777  58.646  1.00  0.00     0.171 HD
BRANCH   6   9
HETATM    9  C   UNL     1       6.879  31.878  59.679  1.00  0.00     0.035 A 
HETATM   10  C   UNL     1       8.124  31.872  59.040  1.00  0.00     0.053 A 
HETATM   11  C   UNL     1       9.301  31.965  59.790  1.00  0.00     0.069 A 
HETATM   12  C   UNL     1       9.225  32.069  61.179  1.00  0.00     0.037 A 
HETATM   13  C   UNL     1       7.983  32.099  61.817  1.00  0.00     0.004 A 
HETATM   14  C   UNL     1       6.811  32.009  61.069  1.00  0.00     0.017 A 
BRANCH  11  15
HETATM   15  O   UNL     1      10.443  31.977  59.040  1.00  0.00    -0.351 OA
BRANCH  15  16
HETATM   16  C   UNL     1      10.389  31.531  57.687  1.00  0.00     0.175 C 
BRANCH  16  17
HETATM   17  C   UNL     1      10.954  30.122  57.482  1.00  0.00     0.026 C 
BRANCH  17  18
HETATM   18  C   UNL     1      10.173  29.260  56.487  1.00  0.00    -0.002 C 
HETATM   19  C   UNL     1       9.018  28.493  57.114  1.00  0.00     0.005 C 
ENDBRANCH  17  18
ENDBRANCH  16  17
ENDBRANCH  15  16
ENDBRANCH  11  15
ENDBRANCH   6   9
ENDBRANCH   3   5
ENDBRANCH   1   3
BRANCH   1  20
HETATM   20  C   UNL     1       5.113  27.928  56.491  1.00  0.00     0.036 A 
HETATM   21  C   UNL     1       5.727  27.068  57.403  1.00  0.00     0.067 A 
HETATM   22  C   UNL     1       6.377  25.901  56.961  1.00  0.00     0.082 A 
HETATM   23  C   UNL     1       6.413  25.553  55.602  1.00  0.00     0.050 A 
HETATM   24  C   UNL     1       5.807  26.439  54.696  1.00  0.00     0.021 A 
HETATM   25  C   UNL     1       5.170  27.607  55.132  1.00  0.00     0.030 A 
BRANCH  22  26
HETATM   26  O   UNL     1       6.956  25.088  57.900  1.00  0.00    -0.360 OA
HETATM   27  H   UNL     1       6.483  24.243  57.953  1.00  0.00     0.217 HD
ENDBRANCH  22  26
BRANCH  23  28
HETATM   28  C   UNL     1       6.965  24.303  55.066  1.00  0.00     0.183 A 
HETATM   29  O   UNL     1       7.319  23.319  55.955  1.00  0.00    -0.289 OA
HETATM   30  C   UNL     1       7.694  22.274  55.166  1.00  0.00     0.106 A 
HETATM   31  C   UNL     1       7.568  22.671  53.847  1.00  0.00     0.093 A 
HETATM   32  C   UNL     1       8.117  21.016  55.577  1.00  0.00     0.040 A 
HETATM   33  N   UNL     1       7.123  23.967  53.794  1.00  0.00    -0.221 NA
HETATM   34  C   UNL     1       7.877  21.758  52.830  1.00  0.00     0.034 A 
HETATM   35  C   UNL     1       8.298  20.472  53.203  1.00  0.00     0.002 A 
HETATM   36  C   UNL     1       8.416  20.111  54.552  1.00  0.00     0.003 A 
ENDBRANCH  23  28
ENDBRANCH   1  20
TORSDOF 10
ENDMDL
MODEL 6
REMARK VINA RESULT:      -9.3      2.149      3.314
REMARK  10 active torsions:
REMARK  status: ('A' for Active; 'I' for Inactive)
REMARK    1  A    between atoms: C_2  and  C_3 
REMARK    2  A    between atoms: C_3  and  C_4 
REMARK    3  A    between atoms: C_4  and  O_5 
REMARK    4  A    between atoms: O_5  and  C_6 
REMARK    5  A    between atoms: C_8  and  C_9 
REMARK       I    between atoms: C_9  and  N_10 
REMARK    6  A    between atoms: N_10  and  C_11 
REMARK    7  A    between atoms: C_11  and  N_12 
REMARK    8  A    between atoms: N_12  and  C_13 
REMARK    9  A    between atoms: C_15  and  O_16 
REMARK   10  A    between atoms: C_17  and  C_18 
ROOT
HETATM    1  N   UNL     1       4.392  28.986  56.776  1.00  0.00    -0.333 N 
HETATM    2  H   UNL     1       3.522  28.862  57.290  1.00  0.00     0.168 HD
ENDROOT
BRANCH   1   3
HETATM    3  C   UNL     1       4.964  30.202  57.040  1.00  0.00     0.179 C 
HETATM    4  S   UNL     1       4.771  31.393  55.878  1.00  0.00    -0.040 SA
BRANCH   3   5
HETATM    5  N   UNL     1       5.711  30.309  58.186  1.00  0.00    -0.299 N 
HETATM    6  C   UNL     1       5.857  31.454  58.960  1.00  0.00     0.257 C 
HETATM    7  O   UNL     1       4.924  32.177  59.295  1.00  0.00    -0.267 OA
HETATM    8  H   UNL     1       6.450  29.622  58.237  1.00  0.00     0.171 HD
BRANCH   6   9
HETATM    9  C   UNL     1       7.191  31.657  59.577  1.00  0.00     0.035 A 
HETATM   10  C   UNL     1       7.329  31.980  60.932  1.00  0.00     0.053 A 
HETATM   11  C   UNL     1       8.601  32.150  61.490  1.00  0.00     0.069 A 
HETATM   12  C   UNL     1       9.731  31.989  60.688  1.00  0.00     0.037 A 
HETATM   13  C   UNL     1       9.596  31.644  59.340  1.00  0.00     0.004 A 
HETATM   14  C   UNL     1       8.329  31.473  58.786  1.00  0.00     0.017 A 
BRANCH  11  15
HETATM   15  O   UNL     1       8.593  32.433  62.826  1.00  0.00    -0.351 OA
BRANCH  15  16
HETATM   16  C   UNL     1       7.344  32.525  63.508  1.00  0.00     0.175 C 
BRANCH  16  17
HETATM   17  C   UNL     1       7.367  33.481  64.704  1.00  0.00     0.026 C 
BRANCH  17  18
HETATM   18  C   UNL     1       5.995  33.762  65.322  1.00  0.00    -0.002 C 
HETATM   19  C   UNL     1       5.411  35.111  64.927  1.00  0.00     0.005 C 
ENDBRANCH  17  18
ENDBRANCH  16  17
ENDBRANCH  15  16
ENDBRANCH  11  15
ENDBRANCH   6   9
ENDBRANCH   3   5
ENDBRANCH   1   3
BRANCH   1  20
HETATM   20  C   UNL     1       4.892  27.815  56.165  1.00  0.00     0.036 A 
HETATM   21  C   UNL     1       5.390  27.738  54.863  1.00  0.00     0.067 A 
HETATM   22  C   UNL     1       5.967  26.547  54.386  1.00  0.00     0.082 A 
HETATM   23  C   UNL     1       6.082  25.410  55.203  1.00  0.00     0.050 A 
HETATM   24  C   UNL     1       5.558  25.499  56.503  1.00  0.00     0.021 A 
HETATM   25  C   UNL     1       4.973  26.679  56.976  1.00  0.00     0.030 A 
BRANCH  22  26
HETATM   26  O   UNL     1       6.446  26.528  53.103  1.00  0.00    -0.360 OA
HETATM   27  H   UNL     1       6.198  27.343  52.638  1.00  0.00     0.217 HD
ENDBRANCH  22  26
BRANCH  23  28
HETATM   28  C   UNL     1       6.770  24.170  54.828  1.00  0.00     0.183 A 
HETATM   29  O   UNL     1       7.126  23.300  55.829  1.00  0.00    -0.289 OA
HETATM   30  C   UNL     1       7.643  22.225  55.172  1.00  0.00     0.106 A 
HETATM   31  C   UNL     1       7.594  22.494  53.816  1.00  0.00     0.093 A 
HETATM   32  C   UNL     1       8.127  21.048  55.729  1.00  0.00     0.040 A 
HETATM   33  N   UNL     1       7.055  23.738  53.609  1.00  0.00    -0.221 NA
HETATM   34  C   UNL     1       8.053  21.524  52.915  1.00  0.00     0.034 A 
HETATM   35  C   UNL     1       8.541  20.316  53.436  1.00  0.00     0.002 A 
HETATM   36  C   UNL     1       8.577  20.085  54.818  1.00  0.00     0.003 A 
ENDBRANCH  23  28
ENDBRANCH   1  20
TORSDOF 10
ENDMDL
MODEL 7
REMARK VINA RESULT:      -9.2      1.877     11.831
REMARK  10 active torsions:
REMARK  status: ('A' for Active; 'I' for Inactive)
REMARK    1  A    between atoms: C_2  and  C_3 
REMARK    2  A    between atoms: C_3  and  C_4 
REMARK    3  A    between atoms: C_4  and  O_5 
REMARK    4  A    between atoms: O_5  and  C_6 
REMARK    5  A    between atoms: C_8  and  C_9 
REMARK       I    between atoms: C_9  and  N_10 
REMARK    6  A    between atoms: N_10  and  C_11 
REMARK    7  A    between atoms: C_11  and  N_12 
REMARK    8  A    between atoms: N_12  and  C_13 
REMARK    9  A    between atoms: C_15  and  O_16 
REMARK   10  A    between atoms: C_17  and  C_18 
ROOT
HETATM    1  N   UNL     1       8.556  30.117  59.778  1.00  0.00    -0.333 N 
HETATM    2  H   UNL     1       8.384  29.154  60.060  1.00  0.00     0.168 HD
ENDROOT
BRANCH   1   3
HETATM    3  C   UNL     1       9.070  30.189  58.511  1.00  0.00     0.179 C 
HETATM    4  S   UNL     1      10.251  31.346  58.243  1.00  0.00    -0.040 SA
BRANCH   3   5
HETATM    5  N   UNL     1       8.517  29.369  57.561  1.00  0.00    -0.299 N 
HETATM    6  C   UNL     1       7.217  28.878  57.564  1.00  0.00     0.257 C 
HETATM    7  O   UNL     1       6.227  29.564  57.795  1.00  0.00    -0.267 OA
HETATM    8  H   UNL     1       9.209  28.835  57.055  1.00  0.00     0.171 HD
BRANCH   6   9
HETATM    9  C   UNL     1       7.039  27.500  57.040  1.00  0.00     0.035 A 
HETATM   10  C   UNL     1       6.329  27.252  55.861  1.00  0.00     0.053 A 
HETATM   11  C   UNL     1       6.193  25.944  55.382  1.00  0.00     0.069 A 
HETATM   12  C   UNL     1       6.774  24.890  56.088  1.00  0.00     0.037 A 
HETATM   13  C   UNL     1       7.502  25.138  57.254  1.00  0.00     0.004 A 
HETATM   14  C   UNL     1       7.640  26.441  57.728  1.00  0.00     0.017 A 
BRANCH  11  15
HETATM   15  O   UNL     1       5.503  25.847  54.208  1.00  0.00    -0.351 OA
BRANCH  15  16
HETATM   16  C   UNL     1       6.033  26.467  53.039  1.00  0.00     0.175 C 
BRANCH  16  17
HETATM   17  C   UNL     1       6.495  25.471  51.971  1.00  0.00     0.026 C 
BRANCH  17  18
HETATM   18  C   UNL     1       7.891  24.888  52.205  1.00  0.00    -0.002 C 
HETATM   19  C   UNL     1       7.878  23.486  52.797  1.00  0.00     0.005 C 
ENDBRANCH  17  18
ENDBRANCH  16  17
ENDBRANCH  15  16
ENDBRANCH  11  15
ENDBRANCH   6   9
ENDBRANCH   3   5
ENDBRANCH   1   3
BRANCH   1  20
HETATM   20  C   UNL     1       7.989  31.093  60.628  1.00  0.00     0.036 A 
HETATM   21  C   UNL     1       6.948  31.955  60.279  1.00  0.00     0.067 A 
HETATM   22  C   UNL     1       6.381  32.817  61.235  1.00  0.00     0.082 A 
HETATM   23  C   UNL     1       6.824  32.826  62.568  1.00  0.00     0.050 A 
HETATM   24  C   UNL     1       7.885  31.967  62.897  1.00  0.00     0.021 A 
HETATM   25  C   UNL     1       8.459  31.117  61.945  1.00  0.00     0.030 A 
BRANCH  22  26
HETATM   26  O   UNL     1       5.357  33.637  60.840  1.00  0.00    -0.360 OA
HETATM   27  H   UNL     1       5.591  34.098  60.020  1.00  0.00     0.217 HD
ENDBRANCH  22  26
BRANCH  23  28
HETATM   28  C   UNL     1       6.216  33.605  63.653  1.00  0.00     0.183 A 
HETATM   29  O   UNL     1       6.463  33.215  64.945  1.00  0.00    -0.289 OA
HETATM   30  C   UNL     1       5.858  34.170  65.705  1.00  0.00     0.106 A 
HETATM   31  C   UNL     1       5.262  35.079  64.849  1.00  0.00     0.093 A 
HETATM   32  C   UNL     1       5.836  34.257  67.092  1.00  0.00     0.040 A 
HETATM   33  N   UNL     1       5.479  34.701  63.549  1.00  0.00    -0.221 NA
HETATM   34  C   UNL     1       4.586  36.180  65.391  1.00  0.00     0.034 A 
HETATM   35  C   UNL     1       4.549  36.310  66.788  1.00  0.00     0.002 A 
HETATM   36  C   UNL     1       5.162  35.364  67.620  1.00  0.00     0.003 A 
ENDBRANCH  23  28
ENDBRANCH   1  20
TORSDOF 10
ENDMDL
MODEL 8
REMARK VINA RESULT:      -9.1      1.665      2.798
REMARK  10 active torsions:
REMARK  status: ('A' for Active; 'I' for Inactive)
REMARK    1  A    between atoms: C_2  and  C_3 
REMARK    2  A    between atoms: C_3  and  C_4 
REMARK    3  A    between atoms: C_4  and  O_5 
REMARK    4  A    between atoms: O_5  and  C_6 
REMARK    5  A    between atoms: C_8  and  C_9 
REMARK       I    between atoms: C_9  and  N_10 
REMARK    6  A    between atoms: N_10  and  C_11 
REMARK    7  A    between atoms: C_11  and  N_12 
REMARK    8  A    between atoms: N_12  and  C_13 
REMARK    9  A    between atoms: C_15  and  O_16 
REMARK   10  A    between atoms: C_17  and  C_18 
ROOT
HETATM    1  N   UNL     1       7.315  30.042  57.119  1.00  0.00    -0.333 N 
HETATM    2  H   UNL     1       6.870  30.711  56.494  1.00  0.00     0.168 HD
ENDROOT
BRANCH   1   3
HETATM    3  C   UNL     1       7.718  30.632  58.286  1.00  0.00     0.179 C 
HETATM    4  S   UNL     1       9.367  30.694  58.569  1.00  0.00    -0.040 SA
BRANCH   3   5
HETATM    5  N   UNL     1       6.737  31.043  59.154  1.00  0.00    -0.299 N 
HETATM    6  C   UNL     1       5.531  31.636  58.801  1.00  0.00     0.257 C 
HETATM    7  O   UNL     1       4.804  31.224  57.903  1.00  0.00    -0.267 OA
HETATM    8  H   UNL     1       7.091  31.237  60.080  1.00  0.00     0.171 HD
BRANCH   6   9
HETATM    9  C   UNL     1       5.026  32.684  59.722  1.00  0.00     0.035 A 
HETATM   10  C   UNL     1       5.758  33.086  60.845  1.00  0.00     0.053 A 
HETATM   11  C   UNL     1       5.264  34.089  61.686  1.00  0.00     0.069 A 
HETATM   12  C   UNL     1       4.039  34.689  61.395  1.00  0.00     0.037 A 
HETATM   13  C   UNL     1       3.317  34.305  60.262  1.00  0.00     0.004 A 
HETATM   14  C   UNL     1       3.811  33.308  59.424  1.00  0.00     0.017 A 
BRANCH  11  15
HETATM   15  O   UNL     1       6.091  34.405  62.726  1.00  0.00    -0.351 OA
BRANCH  15  16
HETATM   16  C   UNL     1       6.247  33.475  63.795  1.00  0.00     0.175 C 
BRANCH  16  17
HETATM   17  C   UNL     1       7.692  33.011  64.001  1.00  0.00     0.026 C 
BRANCH  17  18
HETATM   18  C   UNL     1       8.071  31.744  63.230  1.00  0.00    -0.002 C 
HETATM   19  C   UNL     1       8.975  32.002  62.034  1.00  0.00     0.005 C 
ENDBRANCH  17  18
ENDBRANCH  16  17
ENDBRANCH  15  16
ENDBRANCH  11  15
ENDBRANCH   6   9
ENDBRANCH   3   5
ENDBRANCH   1   3
BRANCH   1  20
HETATM   20  C   UNL     1       7.161  28.689  56.744  1.00  0.00     0.036 A 
HETATM   21  C   UNL     1       6.257  28.217  55.791  1.00  0.00     0.067 A 
HETATM   22  C   UNL     1       6.258  26.862  55.411  1.00  0.00     0.082 A 
HETATM   23  C   UNL     1       7.175  25.950  55.956  1.00  0.00     0.050 A 
HETATM   24  C   UNL     1       8.065  26.436  56.928  1.00  0.00     0.021 A 
HETATM   25  C   UNL     1       8.057  27.781  57.317  1.00  0.00     0.030 A 
BRANCH  22  26
HETATM   26  O   UNL     1       5.354  26.455  54.466  1.00  0.00    -0.360 OA
HETATM   27  H   UNL     1       4.890  25.657  54.764  1.00  0.00     0.217 HD
ENDBRANCH  22  26
BRANCH  23  28
HETATM   28  C   UNL     1       7.324  24.552  55.536  1.00  0.00     0.183 A 
HETATM   29  O   UNL     1       7.379  24.283  54.191  1.00  0.00    -0.289 OA
HETATM   30  C   UNL     1       7.614  22.943  54.125  1.00  0.00     0.106 A 
HETATM   31  C   UNL     1       7.675  22.460  55.420  1.00  0.00     0.093 A 
HETATM   32  C   UNL     1       7.785  22.171  52.983  1.00  0.00     0.040 A 
HETATM   33  N   UNL     1       7.470  23.485  56.308  1.00  0.00    -0.221 NA
HETATM   34  C   UNL     1       7.931  21.097  55.625  1.00  0.00     0.034 A 
HETATM   35  C   UNL     1       8.119  20.284  54.497  1.00  0.00     0.002 A 
HETATM   36  C   UNL     1       8.045  20.813  53.202  1.00  0.00     0.003 A 
ENDBRANCH  23  28
ENDBRANCH   1  20
TORSDOF 10
ENDMDL
MODEL 9
REMARK VINA RESULT:      -9.1      2.252     11.459
REMARK  10 active torsions:
REMARK  status: ('A' for Active; 'I' for Inactive)
REMARK    1  A    between atoms: C_2  and  C_3 
REMARK    2  A    between atoms: C_3  and  C_4 
REMARK    3  A    between atoms: C_4  and  O_5 
REMARK    4  A    between atoms: O_5  and  C_6 
REMARK    5  A    between atoms: C_8  and  C_9 
REMARK       I    between atoms: C_9  and  N_10 
REMARK    6  A    between atoms: N_10  and  C_11 
REMARK    7  A    between atoms: C_11  and  N_12 
REMARK    8  A    between atoms: N_12  and  C_13 
REMARK    9  A    between atoms: C_15  and  O_16 
REMARK   10  A    between atoms: C_17  and  C_18 
ROOT
HETATM    1  N   UNL     1       8.365  30.432  57.440  1.00  0.00    -0.333 N 
HETATM    2  H   UNL     1       8.242  31.169  56.749  1.00  0.00     0.168 HD
ENDROOT
BRANCH   1   3
HETATM    3  C   UNL     1       9.093  29.386  56.939  1.00  0.00     0.179 C 
HETATM    4  S   UNL     1      10.749  29.605  56.832  1.00  0.00    -0.040 SA
BRANCH   3   5
HETATM    5  N   UNL     1       8.396  28.291  56.495  1.00  0.00    -0.299 N 
HETATM    6  C   UNL     1       8.066  27.172  57.250  1.00  0.00     0.257 C 
HETATM    7  O   UNL     1       7.598  27.225  58.382  1.00  0.00    -0.267 OA
HETATM    8  H   UNL     1       8.457  28.168  55.494  1.00  0.00     0.171 HD
BRANCH   6   9
HETATM    9  C   UNL     1       8.090  25.872  56.534  1.00  0.00     0.035 A 
HETATM   10  C   UNL     1       7.444  25.702  55.304  1.00  0.00     0.053 A 
HETATM   11  C   UNL     1       7.498  24.470  54.644  1.00  0.00     0.069 A 
HETATM   12  C   UNL     1       8.205  23.413  55.217  1.00  0.00     0.037 A 
HETATM   13  C   UNL     1       8.869  23.587  56.434  1.00  0.00     0.004 A 
HETATM   14  C   UNL     1       8.817  24.815  57.089  1.00  0.00     0.017 A 
BRANCH  11  15
HETATM   15  O   UNL     1       6.850  24.451  53.441  1.00  0.00    -0.351 OA
BRANCH  15  16
HETATM   16  C   UNL     1       5.440  24.655  53.409  1.00  0.00     0.175 C 
BRANCH  16  17
HETATM   17  C   UNL     1       4.934  25.237  52.086  1.00  0.00     0.026 C 
BRANCH  17  18
HETATM   18  C   UNL     1       5.773  26.392  51.534  1.00  0.00    -0.002 C 
HETATM   19  C   UNL     1       5.179  27.043  50.293  1.00  0.00     0.005 C 
ENDBRANCH  17  18
ENDBRANCH  16  17
ENDBRANCH  15  16
ENDBRANCH  11  15
ENDBRANCH   6   9
ENDBRANCH   3   5
ENDBRANCH   1   3
BRANCH   1  20
HETATM   20  C   UNL     1       8.000  30.789  58.757  1.00  0.00     0.036 A 
HETATM   21  C   UNL     1       8.636  30.340  59.916  1.00  0.00     0.067 A 
HETATM   22  C   UNL     1       8.264  30.841  61.177  1.00  0.00     0.082 A 
HETATM   23  C   UNL     1       7.264  31.817  61.312  1.00  0.00     0.050 A 
HETATM   24  C   UNL     1       6.621  32.243  60.138  1.00  0.00     0.021 A 
HETATM   25  C   UNL     1       6.980  31.737  58.883  1.00  0.00     0.030 A 
BRANCH  22  26
HETATM   26  O   UNL     1       8.927  30.372  62.280  1.00  0.00    -0.360 OA
HETATM   27  H   UNL     1       8.316  30.284  63.029  1.00  0.00     0.217 HD
ENDBRANCH  22  26
BRANCH  23  28
HETATM   28  C   UNL     1       6.894  32.477  62.569  1.00  0.00     0.183 A 
HETATM   29  O   UNL     1       5.568  32.754  62.788  1.00  0.00    -0.289 OA
HETATM   30  C   UNL     1       5.535  33.263  64.051  1.00  0.00     0.106 A 
HETATM   31  C   UNL     1       6.832  33.288  64.531  1.00  0.00     0.093 A 
HETATM   32  C   UNL     1       4.418  33.678  64.765  1.00  0.00     0.040 A 
HETATM   33  N   UNL     1       7.690  32.805  63.576  1.00  0.00    -0.221 NA
HETATM   34  C   UNL     1       7.066  33.754  65.832  1.00  0.00     0.034 A 
HETATM   35  C   UNL     1       5.962  34.173  66.591  1.00  0.00     0.002 A 
HETATM   36  C   UNL     1       4.664  34.136  66.065  1.00  0.00     0.003 A 
ENDBRANCH  23  28
ENDBRANCH   1  20
TORSDOF 10
ENDMDL
MODEL 10
REMARK VINA RESULT:      -9.0      1.576      2.234
REMARK  10 active torsions:
REMARK  status: ('A' for Active; 'I' for Inactive)
REMARK    1  A    between atoms: C_2  and  C_3 
REMARK    2  A    between atoms: C_3  and  C_4 
REMARK    3  A    between atoms: C_4  and  O_5 
REMARK    4  A    between atoms: O_5  and  C_6 
REMARK    5  A    between atoms: C_8  and  C_9 
REMARK       I    between atoms: C_9  and  N_10 
REMARK    6  A    between atoms: N_10  and  C_11 
REMARK    7  A    between atoms: C_11  and  N_12 
REMARK    8  A    between atoms: N_12  and  C_13 
REMARK    9  A    between atoms: C_15  and  O_16 
REMARK   10  A    between atoms: C_17  and  C_18 
ROOT
HETATM    1  N   UNL     1       7.315  29.173  58.101  1.00  0.00    -0.333 N 
HETATM    2  H   UNL     1       6.601  29.364  58.800  1.00  0.00     0.168 HD
ENDROOT
BRANCH   1   3
HETATM    3  C   UNL     1       8.318  30.104  58.136  1.00  0.00     0.179 C 
HETATM    4  S   UNL     1       9.683  29.774  57.225  1.00  0.00    -0.040 SA
BRANCH   3   5
HETATM    5  N   UNL     1       8.151  31.177  58.976  1.00  0.00    -0.299 N 
HETATM    6  C   UNL     1       8.042  31.120  60.360  1.00  0.00     0.257 C 
HETATM    7  O   UNL     1       8.781  30.455  61.078  1.00  0.00    -0.267 OA
HETATM    8  H   UNL     1       7.735  31.973  58.514  1.00  0.00     0.171 HD
BRANCH   6   9
HETATM    9  C   UNL     1       7.114  32.098  60.981  1.00  0.00     0.035 A 
HETATM   10  C   UNL     1       7.416  32.724  62.195  1.00  0.00     0.053 A 
HETATM   11  C   UNL     1       6.530  33.655  62.748  1.00  0.00     0.069 A 
HETATM   12  C   UNL     1       5.344  33.958  62.077  1.00  0.00     0.037 A 
HETATM   13  C   UNL     1       5.051  33.351  60.854  1.00  0.00     0.004 A 
HETATM   14  C   UNL     1       5.936  32.427  60.302  1.00  0.00     0.017 A 
BRANCH  11  15
HETATM   15  O   UNL     1       6.960  34.211  63.919  1.00  0.00    -0.351 OA
BRANCH  15  16
HETATM   16  C   UNL     1       6.873  33.451  65.121  1.00  0.00     0.175 C 
BRANCH  16  17
HETATM   17  C   UNL     1       6.113  34.163  66.244  1.00  0.00     0.026 C 
BRANCH  17  18
HETATM   18  C   UNL     1       4.611  33.871  66.283  1.00  0.00    -0.002 C 
HETATM   19  C   UNL     1       3.786  34.776  65.380  1.00  0.00     0.005 C 
ENDBRANCH  17  18
ENDBRANCH  16  17
ENDBRANCH  15  16
ENDBRANCH  11  15
ENDBRANCH   6   9
ENDBRANCH   3   5
ENDBRANCH   1   3
BRANCH   1  20
HETATM   20  C   UNL     1       7.222  27.902  57.491  1.00  0.00     0.036 A 
HETATM   21  C   UNL     1       6.590  27.640  56.274  1.00  0.00     0.067 A 
HETATM   22  C   UNL     1       6.648  26.357  55.699  1.00  0.00     0.082 A 
HETATM   23  C   UNL     1       7.355  25.311  56.311  1.00  0.00     0.050 A 
HETATM   24  C   UNL     1       7.969  25.587  57.544  1.00  0.00     0.021 A 
HETATM   25  C   UNL     1       7.902  26.858  58.125  1.00  0.00     0.030 A 
BRANCH  22  26
HETATM   26  O   UNL     1       6.016  26.157  54.500  1.00  0.00    -0.360 OA
HETATM   27  H   UNL     1       5.538  26.958  54.232  1.00  0.00     0.217 HD
ENDBRANCH  22  26
BRANCH  23  28
HETATM   28  C   UNL     1       7.565  23.981  55.729  1.00  0.00     0.183 A 
HETATM   29  O   UNL     1       7.458  23.847  54.367  1.00  0.00    -0.289 OA
HETATM   30  C   UNL     1       7.797  22.549  54.129  1.00  0.00     0.106 A 
HETATM   31  C   UNL     1       8.075  21.954  55.347  1.00  0.00     0.093 A 
HETATM   32  C   UNL     1       7.875  21.909  52.899  1.00  0.00     0.040 A 
HETATM   33  N   UNL     1       7.906  22.865  56.357  1.00  0.00    -0.221 NA
HETATM   34  C   UNL     1       8.472  20.611  55.371  1.00  0.00     0.034 A 
HETATM   35  C   UNL     1       8.574  19.930  54.148  1.00  0.00     0.002 A 
HETATM   36  C   UNL     1       8.279  20.569  52.936  1.00  0.00     0.003 A 
ENDBRANCH  23  28
ENDBRANCH   1  20
TORSDOF 10
ENDMDL
