MODEL 1
REMARK VINA RESULT:      -9.8      0.000      0.000
REMARK  8 active torsions:
REMARK  status: ('A' for Active; 'I' for Inactive)
REMARK    1  A    between atoms: O_2  and  C_3 
REMARK    2  A    between atoms: C_3  and  C_4 
REMARK    3  A    between atoms: C_4  and  C_5 
REMARK    4  A    between atoms: C_5  and  N_6 
REMARK    5  A    between atoms: N_6  and  C_8 
REMARK    6  A    between atoms: N_6  and  C_21 
REMARK    7  A    between atoms: C_8  and  C_9 
REMARK    8  A    between atoms: C_21  and  C_22 
ROOT
HETATM    1  N   UNL     1       6.807  29.488  57.538  1.00  0.00    -0.058 N 
HETATM    2  H   UNL     1       7.233  29.054  58.371  1.00  0.00     0.280 HD
ENDROOT
BRANCH   1   3
HETATM    3  C   UNL     1       7.762  29.359  56.371  1.00  0.00     0.238 C 
BRANCH   3   4
HETATM    4  C   UNL     1       9.162  28.962  56.829  1.00  0.00     0.054 C 
BRANCH   4   5
HETATM    5  C   UNL     1      10.219  29.675  55.989  1.00  0.00     0.168 C 
BRANCH   5   6
HETATM    6  O   UNL     1      11.225  30.146  56.881  1.00  0.00    -0.396 OA
HETATM    7  C   UNL     1      10.700  31.082  57.821  1.00  0.00     0.201 C 
ENDBRANCH   5   6
ENDBRANCH   4   5
ENDBRANCH   3   4
ENDBRANCH   1   3
BRANCH   1   8
HETATM    8  C   UNL     1       6.482  30.932  57.941  1.00  0.00     0.313 C 
BRANCH   8   9
HETATM    9  C   UNL     1       6.911  31.300  59.360  1.00  0.00     0.133 A 
HETATM   10  N   UNL     1       6.346  32.297  59.968  1.00  0.00    -0.233 NA
HETATM   11  C   UNL     1       6.764  32.587  61.284  1.00  0.00     0.076 A 
HETATM   12  C   UNL     1       7.773  31.861  61.930  1.00  0.00     0.061 A 
HETATM   13  C   UNL     1       6.151  33.634  61.975  1.00  0.00     0.056 A 
HETATM   14  C   UNL     1       8.393  30.756  61.182  1.00  0.00     0.259 A 
HETATM   15  C   UNL     1       8.176  32.165  63.233  1.00  0.00     0.021 A 
HETATM   16  O   UNL     1       9.285  30.060  61.646  1.00  0.00    -0.267 OA
HETATM   17  N   UNL     1       7.907  30.546  59.916  1.00  0.00    -0.309 N 
HETATM   18  H   UNL     1       8.346  29.765  59.442  1.00  0.00     0.170 HD
HETATM   19  C   UNL     1       7.560  33.217  63.908  1.00  0.00     0.025 A 
HETATM   20  C   UNL     1       6.551  33.947  63.277  1.00  0.00     0.036 A 
HETATM   21 CL   UNL     1       5.794  35.248  64.106  1.00  0.00    -0.084 Cl
ENDBRANCH   8   9
ENDBRANCH   1   8
BRANCH   1  22
HETATM   22  C   UNL     1       5.554  28.633  57.286  1.00  0.00     0.313 C 
BRANCH  22  23
HETATM   23  C   UNL     1       5.852  27.409  56.435  1.00  0.00     0.133 A 
HETATM   24  N   UNL     1       6.473  26.404  56.967  1.00  0.00    -0.233 NA
HETATM   25  C   UNL     1       6.729  25.286  56.145  1.00  0.00     0.076 A 
HETATM   26  C   UNL     1       6.289  25.214  54.816  1.00  0.00     0.061 A 
HETATM   27  C   UNL     1       7.439  24.207  56.672  1.00  0.00     0.056 A 
HETATM   28  C   UNL     1       5.534  26.361  54.290  1.00  0.00     0.259 A 
HETATM   29  C   UNL     1       6.543  24.093  54.021  1.00  0.00     0.021 A 
HETATM   30  O   UNL     1       5.033  26.371  53.174  1.00  0.00    -0.267 OA
HETATM   31  N   UNL     1       5.398  27.423  55.147  1.00  0.00    -0.309 N 
HETATM   32  H   UNL     1       4.825  28.178  54.787  1.00  0.00     0.170 HD
HETATM   33  C   UNL     1       7.255  23.023  54.561  1.00  0.00     0.025 A 
HETATM   34  C   UNL     1       7.698  23.085  55.883  1.00  0.00     0.036 A 
HETATM   35 CL   UNL     1       8.572  21.762  56.551  1.00  0.00    -0.084 Cl
ENDBRANCH  22  23
ENDBRANCH   1  22
TORSDOF 8
ENDMDL
MODEL 2
REMARK VINA RESULT:      -9.7      5.072      8.897
REMARK  8 active torsions:
REMARK  status: ('A' for Active; 'I' for Inactive)
REMARK    1  A    between atoms: O_2  and  C_3 
REMARK    2  A    between atoms: C_3  and  C_4 
REMARK    3  A    between atoms: C_4  and  C_5 
REMARK    4  A    between atoms: C_5  and  N_6 
REMARK    5  A    between atoms: N_6  and  C_8 
REMARK    6  A    between atoms: N_6  and  C_21 
REMARK    7  A    between atoms: C_8  and  C_9 
REMARK    8  A    between atoms: C_21  and  C_22 
ROOT
HETATM    1  N   UNL     1       5.957  28.226  54.754  1.00  0.00    -0.058 N 
HETATM    2  H   UNL     1       6.636  28.004  54.009  1.00  0.00     0.280 HD
ENDROOT
BRANCH   1   3
HETATM    3  C   UNL     1       6.605  29.169  55.746  1.00  0.00     0.238 C 
BRANCH   3   4
HETATM    4  C   UNL     1       8.123  29.017  55.762  1.00  0.00     0.054 C 
BRANCH   4   5
HETATM    5  C   UNL     1       8.596  28.539  57.132  1.00  0.00     0.168 C 
BRANCH   5   6
HETATM    6  O   UNL     1       9.540  29.490  57.612  1.00  0.00    -0.396 OA
HETATM    7  C   UNL     1      10.658  29.613  56.735  1.00  0.00     0.201 C 
ENDBRANCH   5   6
ENDBRANCH   4   5
ENDBRANCH   3   4
ENDBRANCH   1   3
BRANCH   1   8
HETATM    8  C   UNL     1       5.529  26.876  55.343  1.00  0.00     0.313 C 
BRANCH   8   9
HETATM    9  C   UNL     1       6.219  25.668  54.713  1.00  0.00     0.133 A 
HETATM   10  N   UNL     1       6.517  24.639  55.445  1.00  0.00    -0.233 NA
HETATM   11  C   UNL     1       7.138  23.540  54.813  1.00  0.00     0.076 A 
HETATM   12  C   UNL     1       7.464  23.542  53.451  1.00  0.00     0.061 A 
HETATM   13  C   UNL     1       7.440  22.406  55.569  1.00  0.00     0.056 A 
HETATM   14  C   UNL     1       7.123  24.745  52.677  1.00  0.00     0.259 A 
HETATM   15  C   UNL     1       8.082  22.445  52.844  1.00  0.00     0.021 A 
HETATM   16  O   UNL     1       7.364  24.857  51.484  1.00  0.00    -0.267 OA
HETATM   17  N   UNL     1       6.509  25.752  53.378  1.00  0.00    -0.309 N 
HETATM   18  H   UNL     1       6.273  26.555  52.807  1.00  0.00     0.170 HD
HETATM   19  C   UNL     1       8.384  21.322  53.612  1.00  0.00     0.025 A 
HETATM   20  C   UNL     1       8.062  21.308  54.970  1.00  0.00     0.036 A 
HETATM   21 CL   UNL     1       8.438  19.925  55.920  1.00  0.00    -0.084 Cl
ENDBRANCH   8   9
ENDBRANCH   1   8
BRANCH   1  22
HETATM   22  C   UNL     1       4.824  28.948  54.008  1.00  0.00     0.313 C 
BRANCH  22  23
HETATM   23  C   UNL     1       4.968  28.843  52.498  1.00  0.00     0.133 A 
HETATM   24  N   UNL     1       4.431  27.840  51.879  1.00  0.00    -0.233 NA
HETATM   25  C   UNL     1       4.585  27.780  50.478  1.00  0.00     0.076 A 
HETATM   26  C   UNL     1       5.240  28.783  49.750  1.00  0.00     0.061 A 
HETATM   27  C   UNL     1       4.061  26.687  49.786  1.00  0.00     0.056 A 
HETATM   28  C   UNL     1       5.772  29.928  50.504  1.00  0.00     0.259 A 
HETATM   29  C   UNL     1       5.373  28.711  48.360  1.00  0.00     0.021 A 
HETATM   30  O   UNL     1       6.288  30.896  49.963  1.00  0.00    -0.267 OA
HETATM   31  N   UNL     1       5.630  29.857  51.865  1.00  0.00    -0.309 N 
HETATM   32  H   UNL     1       5.950  30.682  52.361  1.00  0.00     0.170 HD
HETATM   33  C   UNL     1       4.846  27.613  47.682  1.00  0.00     0.025 A 
HETATM   34  C   UNL     1       4.193  26.607  48.398  1.00  0.00     0.036 A 
HETATM   35 CL   UNL     1       3.537  25.255  47.561  1.00  0.00    -0.084 Cl
ENDBRANCH  22  23
ENDBRANCH   1  22
TORSDOF 8
ENDMDL
MODEL 3
REMARK VINA RESULT:      -9.6      2.207      9.482
REMARK  8 active torsions:
REMARK  status: ('A' for Active; 'I' for Inactive)
REMARK    1  A    between atoms: O_2  and  C_3 
REMARK    2  A    between atoms: C_3  and  C_4 
REMARK    3  A    between atoms: C_4  and  C_5 
REMARK    4  A    between atoms: C_5  and  N_6 
REMARK    5  A    between atoms: N_6  and  C_8 
REMARK    6  A    between atoms: N_6  and  C_21 
REMARK    7  A    between atoms: C_8  and  C_9 
REMARK    8  A    between atoms: C_21  and  C_22 
ROOT
HETATM    1  N   UNL     1       5.966  28.109  55.747  1.00  0.00    -0.058 N 
HETATM    2  H   UNL     1       5.822  28.594  56.645  1.00  0.00     0.280 HD
ENDROOT
BRANCH   1   3
HETATM    3  C   UNL     1       5.356  28.938  54.636  1.00  0.00     0.238 C 
BRANCH   3   4
HETATM    4  C   UNL     1       3.895  28.572  54.396  1.00  0.00     0.054 C 
BRANCH   4   5
HETATM    5  C   UNL     1       3.583  28.575  52.902  1.00  0.00     0.168 C 
BRANCH   5   6
HETATM    6  O   UNL     1       4.257  27.462  52.324  1.00  0.00    -0.396 OA
HETATM    7  C   UNL     1       4.754  27.764  51.021  1.00  0.00     0.201 C 
ENDBRANCH   5   6
ENDBRANCH   4   5
ENDBRANCH   3   4
ENDBRANCH   1   3
BRANCH   1   8
HETATM    8  C   UNL     1       5.344  26.718  55.921  1.00  0.00     0.313 C 
BRANCH   8   9
HETATM    9  C   UNL     1       6.069  25.607  55.164  1.00  0.00     0.133 A 
HETATM   10  N   UNL     1       6.673  24.665  55.821  1.00  0.00    -0.233 NA
HETATM   11  C   UNL     1       7.314  23.651  55.077  1.00  0.00     0.076 A 
HETATM   12  C   UNL     1       7.341  23.649  53.677  1.00  0.00     0.061 A 
HETATM   13  C   UNL     1       7.944  22.607  55.757  1.00  0.00     0.056 A 
HETATM   14  C   UNL     1       6.659  24.755  52.987  1.00  0.00     0.259 A 
HETATM   15  C   UNL     1       7.983  22.637  52.957  1.00  0.00     0.021 A 
HETATM   16  O   UNL     1       6.623  24.856  51.769  1.00  0.00    -0.267 OA
HETATM   17  N   UNL     1       6.054  25.682  53.798  1.00  0.00    -0.309 N 
HETATM   18  H   UNL     1       5.580  26.416  53.286  1.00  0.00     0.170 HD
HETATM   19  C   UNL     1       8.614  21.606  53.649  1.00  0.00     0.025 A 
HETATM   20  C   UNL     1       8.592  21.595  55.045  1.00  0.00     0.036 A 
HETATM   21 CL   UNL     1       9.373  20.324  55.900  1.00  0.00    -0.084 Cl
ENDBRANCH   8   9
ENDBRANCH   1   8
BRANCH   1  22
HETATM   22  C   UNL     1       7.496  28.075  55.595  1.00  0.00     0.313 C 
BRANCH  22  23
HETATM   23  C   UNL     1       8.192  29.039  56.543  1.00  0.00     0.133 A 
HETATM   24  N   UNL     1       7.508  29.601  57.489  1.00  0.00    -0.233 NA
HETATM   25  C   UNL     1       8.190  30.487  58.348  1.00  0.00     0.076 A 
HETATM   26  C   UNL     1       9.567  30.727  58.243  1.00  0.00     0.061 A 
HETATM   27  C   UNL     1       7.474  31.147  59.347  1.00  0.00     0.056 A 
HETATM   28  C   UNL     1      10.299  30.009  57.187  1.00  0.00     0.259 A 
HETATM   29  C   UNL     1      10.228  31.600  59.110  1.00  0.00     0.021 A 
HETATM   30  O   UNL     1      11.513  30.079  57.056  1.00  0.00    -0.267 OA
HETATM   31  N   UNL     1       9.533  29.225  56.364  1.00  0.00    -0.309 N 
HETATM   32  H   UNL     1      10.063  28.695  55.682  1.00  0.00     0.170 HD
HETATM   33  C   UNL     1       9.499  32.253  60.103  1.00  0.00     0.025 A 
HETATM   34  C   UNL     1       8.127  32.023  60.217  1.00  0.00     0.036 A 
HETATM   35 CL   UNL     1       7.228  32.825  61.446  1.00  0.00    -0.084 Cl
ENDBRANCH  22  23
ENDBRANCH   1  22
TORSDOF 8
ENDMDL
MODEL 4
REMARK VINA RESULT:      -9.4      2.295      9.002
REMARK  8 active torsions:
REMARK  status: ('A' for Active; 'I' for Inactive)
REMARK    1  A    between atoms: O_2  and  C_3 
REMARK    2  A    between atoms: C_3  and  C_4 
REMARK    3  A    between atoms: C_4  and  C_5 
REMARK    4  A    between atoms: C_5  and  N_6 
REMARK    5  A    between atoms: N_6  and  C_8 
REMARK    6  A    between atoms: N_6  and  C_21 
REMARK    7  A    between atoms: C_8  and  C_9 
REMARK    8  A    between atoms: C_21  and  C_22 
ROOT
HETATM    1  N   UNL     1       5.848  28.279  55.385  1.00  0.00    -0.058 N 
HETATM    2  H   UNL     1       5.654  29.070  56.018  1.00  0.00     0.280 HD
ENDROOT
BRANCH   1   3
HETATM    3  C   UNL     1       5.166  28.531  54.057  1.00  0.00     0.238 C 
BRANCH   3   4
HETATM    4  C   UNL     1       6.132  28.370  52.887  1.00  0.00     0.054 C 
BRANCH   4   5
HETATM    5  C   UNL     1       5.395  27.849  51.656  1.00  0.00     0.168 C 
BRANCH   5   6
HETATM    6  O   UNL     1       4.982  26.515  51.940  1.00  0.00    -0.396 OA
HETATM    7  C   UNL     1       5.952  25.560  51.513  1.00  0.00     0.201 C 
ENDBRANCH   5   6
ENDBRANCH   4   5
ENDBRANCH   3   4
ENDBRANCH   1   3
BRANCH   1   8
HETATM    8  C   UNL     1       5.363  27.025  56.124  1.00  0.00     0.313 C 
BRANCH   8   9
HETATM    9  C   UNL     1       6.339  25.852  56.079  1.00  0.00     0.133 A 
HETATM   10  N   UNL     1       6.294  25.011  55.091  1.00  0.00    -0.233 NA
HETATM   11  C   UNL     1       7.228  23.953  55.085  1.00  0.00     0.076 A 
HETATM   12  C   UNL     1       8.165  23.772  56.109  1.00  0.00     0.061 A 
HETATM   13  C   UNL     1       7.224  23.052  54.019  1.00  0.00     0.056 A 
HETATM   14  C   UNL     1       8.155  24.743  57.214  1.00  0.00     0.259 A 
HETATM   15  C   UNL     1       9.081  22.716  56.087  1.00  0.00     0.021 A 
HETATM   16  O   UNL     1       8.924  24.679  58.162  1.00  0.00    -0.267 OA
HETATM   17  N   UNL     1       7.218  25.742  57.121  1.00  0.00    -0.309 N 
HETATM   18  H   UNL     1       7.256  26.402  57.890  1.00  0.00     0.170 HD
HETATM   19  C   UNL     1       9.060  21.820  55.020  1.00  0.00     0.025 A 
HETATM   20  C   UNL     1       8.132  21.992  53.991  1.00  0.00     0.036 A 
HETATM   21 CL   UNL     1       8.103  20.885  52.677  1.00  0.00    -0.084 Cl
ENDBRANCH   8   9
ENDBRANCH   1   8
BRANCH   1  22
HETATM   22  C   UNL     1       7.374  28.325  55.206  1.00  0.00     0.313 C 
BRANCH  22  23
HETATM   23  C   UNL     1       8.051  29.208  56.242  1.00  0.00     0.133 A 
HETATM   24  N   UNL     1       7.331  29.774  57.159  1.00  0.00    -0.233 NA
HETATM   25  C   UNL     1       7.996  30.583  58.103  1.00  0.00     0.076 A 
HETATM   26  C   UNL     1       9.388  30.743  58.109  1.00  0.00     0.061 A 
HETATM   27  C   UNL     1       7.245  31.247  59.074  1.00  0.00     0.056 A 
HETATM   28  C   UNL     1      10.156  30.024  57.080  1.00  0.00     0.259 A 
HETATM   29  C   UNL     1      10.030  31.542  59.059  1.00  0.00     0.021 A 
HETATM   30  O   UNL     1      11.378  30.025  57.042  1.00  0.00    -0.267 OA
HETATM   31  N   UNL     1       9.410  29.319  56.171  1.00  0.00    -0.309 N 
HETATM   32  H   UNL     1       9.959  28.784  55.507  1.00  0.00     0.170 HD
HETATM   33  C   UNL     1       9.267  32.199  60.023  1.00  0.00     0.025 A 
HETATM   34  C   UNL     1       7.879  32.048  60.026  1.00  0.00     0.036 A 
HETATM   35 CL   UNL     1       6.938  32.855  61.218  1.00  0.00    -0.084 Cl
ENDBRANCH  22  23
ENDBRANCH   1  22
TORSDOF 8
ENDMDL
MODEL 5
REMARK VINA RESULT:      -9.4      1.814      2.345
REMARK  8 active torsions:
REMARK  status: ('A' for Active; 'I' for Inactive)
REMARK    1  A    between atoms: O_2  and  C_3 
REMARK    2  A    between atoms: C_3  and  C_4 
REMARK    3  A    between atoms: C_4  and  C_5 
REMARK    4  A    between atoms: C_5  and  N_6 
REMARK    5  A    between atoms: N_6  and  C_8 
REMARK    6  A    between atoms: N_6  and  C_21 
REMARK    7  A    between atoms: C_8  and  C_9 
REMARK    8  A    between atoms: C_21  and  C_22 
ROOT
HETATM    1  N   UNL     1       6.641  29.709  57.538  1.00  0.00    -0.058 N 
HETATM    2  H   UNL     1       7.020  29.227  58.368  1.00  0.00     0.280 HD
ENDROOT
BRANCH   1   3
HETATM    3  C   UNL     1       7.590  29.505  56.375  1.00  0.00     0.238 C 
BRANCH   3   4
HETATM    4  C   UNL     1       8.972  29.061  56.845  1.00  0.00     0.054 C 
BRANCH   4   5
HETATM    5  C   UNL     1      10.049  29.584  55.900  1.00  0.00     0.168 C 
BRANCH   5   6
HETATM    6  O   UNL     1      11.131  30.048  56.702  1.00  0.00    -0.396 OA
HETATM    7  C   UNL     1      10.688  30.947  57.716  1.00  0.00     0.201 C 
ENDBRANCH   5   6
ENDBRANCH   4   5
ENDBRANCH   3   4
ENDBRANCH   1   3
BRANCH   1   8
HETATM    8  C   UNL     1       6.449  31.172  57.957  1.00  0.00     0.313 C 
BRANCH   8   9
HETATM    9  C   UNL     1       6.877  31.476  59.390  1.00  0.00     0.133 A 
HETATM   10  N   UNL     1       6.333  32.464  60.032  1.00  0.00    -0.233 NA
HETATM   11  C   UNL     1       6.750  32.695  61.360  1.00  0.00     0.076 A 
HETATM   12  C   UNL     1       7.737  31.921  61.984  1.00  0.00     0.061 A 
HETATM   13  C   UNL     1       6.159  33.731  62.085  1.00  0.00     0.056 A 
HETATM   14  C   UNL     1       8.334  30.829  61.200  1.00  0.00     0.259 A 
HETATM   15  C   UNL     1       8.138  32.167  63.300  1.00  0.00     0.021 A 
HETATM   16  O   UNL     1       9.205  30.094  61.642  1.00  0.00    -0.267 OA
HETATM   17  N   UNL     1       7.851  30.677  59.924  1.00  0.00    -0.309 N 
HETATM   18  H   UNL     1       8.273  29.904  59.424  1.00  0.00     0.170 HD
HETATM   19  C   UNL     1       7.544  33.209  64.009  1.00  0.00     0.025 A 
HETATM   20  C   UNL     1       6.558  33.986  63.400  1.00  0.00     0.036 A 
HETATM   21 CL   UNL     1       5.828  35.274  64.272  1.00  0.00    -0.084 Cl
ENDBRANCH   8   9
ENDBRANCH   1   8
BRANCH   1  22
HETATM   22  C   UNL     1       5.317  28.976  57.267  1.00  0.00     0.313 C 
BRANCH  22  23
HETATM   23  C   UNL     1       5.497  27.780  56.345  1.00  0.00     0.133 A 
HETATM   24  N   UNL     1       5.216  27.902  55.087  1.00  0.00    -0.233 NA
HETATM   25  C   UNL     1       5.398  26.771  54.265  1.00  0.00     0.076 A 
HETATM   26  C   UNL     1       5.915  25.563  54.752  1.00  0.00     0.061 A 
HETATM   27  C   UNL     1       5.058  26.853  52.914  1.00  0.00     0.056 A 
HETATM   28  C   UNL     1       6.275  25.507  56.178  1.00  0.00     0.259 A 
HETATM   29  C   UNL     1       6.098  24.455  53.920  1.00  0.00     0.021 A 
HETATM   30  O   UNL     1       6.810  24.534  56.690  1.00  0.00    -0.267 OA
HETATM   31  N   UNL     1       5.996  26.637  56.902  1.00  0.00    -0.309 N 
HETATM   32  H   UNL     1       6.305  26.600  57.867  1.00  0.00     0.170 HD
HETATM   33  C   UNL     1       5.754  24.552  52.572  1.00  0.00     0.025 A 
HETATM   34  C   UNL     1       5.236  25.750  52.076  1.00  0.00     0.036 A 
HETATM   35 CL   UNL     1       4.816  25.872  50.413  1.00  0.00    -0.084 Cl
ENDBRANCH  22  23
ENDBRANCH   1  22
TORSDOF 8
ENDMDL
MODEL 6
REMARK VINA RESULT:      -9.3      3.905      6.242
REMARK  8 active torsions:
REMARK  status: ('A' for Active; 'I' for Inactive)
REMARK    1  A    between atoms: O_2  and  C_3 
REMARK    2  A    between atoms: C_3  and  C_4 
REMARK    3  A    between atoms: C_4  and  C_5 
REMARK    4  A    between atoms: C_5  and  N_6 
REMARK    5  A    between atoms: N_6  and  C_8 
REMARK    6  A    between atoms: N_6  and  C_21 
REMARK    7  A    between atoms: C_8  and  C_9 
REMARK    8  A    between atoms: C_21  and  C_22 
ROOT
HETATM    1  N   UNL     1       4.986  27.629  52.821  1.00  0.00    -0.058 N 
HETATM    2  H   UNL     1       5.992  27.645  53.050  1.00  0.00     0.280 HD
ENDROOT
BRANCH   1   3
HETATM    3  C   UNL     1       4.810  27.931  51.348  1.00  0.00     0.238 C 
BRANCH   3   4
HETATM    4  C   UNL     1       5.060  26.698  50.486  1.00  0.00     0.054 C 
BRANCH   4   5
HETATM    5  C   UNL     1       4.780  27.009  49.018  1.00  0.00     0.168 C 
BRANCH   5   6
HETATM    6  O   UNL     1       3.387  26.808  48.798  1.00  0.00    -0.396 OA
HETATM    7  C   UNL     1       3.057  26.875  47.412  1.00  0.00     0.201 C 
ENDBRANCH   5   6
ENDBRANCH   4   5
ENDBRANCH   3   4
ENDBRANCH   1   3
BRANCH   1   8
HETATM    8  C   UNL     1       4.329  28.645  53.765  1.00  0.00     0.313 C 
BRANCH   8   9
HETATM    9  C   UNL     1       5.202  29.062  54.946  1.00  0.00     0.133 A 
HETATM   10  N   UNL     1       6.489  28.912  54.883  1.00  0.00    -0.233 NA
HETATM   11  C   UNL     1       7.255  29.328  55.993  1.00  0.00     0.076 A 
HETATM   12  C   UNL     1       6.674  29.861  57.150  1.00  0.00     0.061 A 
HETATM   13  C   UNL     1       8.645  29.208  55.940  1.00  0.00     0.056 A 
HETATM   14  C   UNL     1       5.208  29.987  57.173  1.00  0.00     0.259 A 
HETATM   15  C   UNL     1       7.449  30.265  58.240  1.00  0.00     0.021 A 
HETATM   16  O   UNL     1       4.595  30.434  58.131  1.00  0.00    -0.267 OA
HETATM   17  N   UNL     1       4.556  29.568  56.040  1.00  0.00    -0.309 N 
HETATM   18  H   UNL     1       3.551  29.688  56.087  1.00  0.00     0.170 HD
HETATM   19  C   UNL     1       8.835  30.133  58.177  1.00  0.00     0.025 A 
HETATM   20  C   UNL     1       9.426  29.605  57.028  1.00  0.00     0.036 A 
HETATM   21 CL   UNL     1      11.135  29.438  56.950  1.00  0.00    -0.084 Cl
ENDBRANCH   8   9
ENDBRANCH   1   8
BRANCH   1  22
HETATM   22  C   UNL     1       4.571  26.177  53.111  1.00  0.00     0.313 C 
BRANCH  22  23
HETATM   23  C   UNL     1       5.704  25.362  53.714  1.00  0.00     0.133 A 
HETATM   24  N   UNL     1       6.088  24.277  53.121  1.00  0.00    -0.233 NA
HETATM   25  C   UNL     1       7.144  23.550  53.710  1.00  0.00     0.076 A 
HETATM   26  C   UNL     1       7.809  23.991  54.862  1.00  0.00     0.061 A 
HETATM   27  C   UNL     1       7.550  22.351  53.124  1.00  0.00     0.056 A 
HETATM   28  C   UNL     1       7.368  25.264  55.452  1.00  0.00     0.259 A 
HETATM   29  C   UNL     1       8.861  23.263  55.425  1.00  0.00     0.021 A 
HETATM   30  O   UNL     1       7.929  25.783  56.406  1.00  0.00    -0.267 OA
HETATM   31  N   UNL     1       6.292  25.857  54.843  1.00  0.00    -0.309 N 
HETATM   32  H   UNL     1       6.041  26.761  55.228  1.00  0.00     0.170 HD
HETATM   33  C   UNL     1       9.254  22.065  54.829  1.00  0.00     0.025 A 
HETATM   34  C   UNL     1       8.598  21.616  53.682  1.00  0.00     0.036 A 
HETATM   35 CL   UNL     1       9.088  20.141  52.944  1.00  0.00    -0.084 Cl
ENDBRANCH  22  23
ENDBRANCH   1  22
TORSDOF 8
ENDMDL
MODEL 7
REMARK VINA RESULT:      -9.1      5.011      8.962
REMARK  8 active torsions:
REMARK  status: ('A' for Active; 'I' for Inactive)
REMARK    1  A    between atoms: O_2  and  C_3 
REMARK    2  A    between atoms: C_3  and  C_4 
REMARK    3  A    between atoms: C_4  and  C_5 
REMARK    4  A    between atoms: C_5  and  N_6 
REMARK    5  A    between atoms: N_6  and  C_8 
REMARK    6  A    between atoms: N_6  and  C_21 
REMARK    7  A    between atoms: C_8  and  C_9 
REMARK    8  A    between atoms: C_21  and  C_22 
ROOT
HETATM    1  N   UNL     1       5.542  27.654  54.507  1.00  0.00    -0.058 N 
HETATM    2  H   UNL     1       5.298  26.876  53.875  1.00  0.00     0.280 HD
ENDROOT
BRANCH   1   3
HETATM    3  C   UNL     1       4.861  27.438  55.842  1.00  0.00     0.238 C 
BRANCH   3   4
HETATM    4  C   UNL     1       4.504  28.760  56.514  1.00  0.00     0.054 C 
BRANCH   4   5
HETATM    5  C   UNL     1       5.598  29.170  57.496  1.00  0.00     0.168 C 
BRANCH   5   6
HETATM    6  O   UNL     1       6.158  30.392  57.025  1.00  0.00    -0.396 OA
HETATM    7  C   UNL     1       6.525  31.253  58.101  1.00  0.00     0.201 C 
ENDBRANCH   5   6
ENDBRANCH   4   5
ENDBRANCH   3   4
ENDBRANCH   1   3
BRANCH   1   8
HETATM    8  C   UNL     1       5.120  28.934  53.774  1.00  0.00     0.313 C 
BRANCH   8   9
HETATM    9  C   UNL     1       5.134  28.820  52.252  1.00  0.00     0.133 A 
HETATM   10  N   UNL     1       4.624  27.774  51.677  1.00  0.00    -0.233 NA
HETATM   11  C   UNL     1       4.645  27.722  50.267  1.00  0.00     0.076 A 
HETATM   12  C   UNL     1       5.217  28.735  49.486  1.00  0.00     0.061 A 
HETATM   13  C   UNL     1       4.075  26.625  49.620  1.00  0.00     0.056 A 
HETATM   14  C   UNL     1       5.800  29.886  50.194  1.00  0.00     0.259 A 
HETATM   15  C   UNL     1       5.230  28.665  48.090  1.00  0.00     0.021 A 
HETATM   16  O   UNL     1       6.328  30.823  49.614  1.00  0.00    -0.267 OA
HETATM   17  N   UNL     1       5.717  29.848  51.563  1.00  0.00    -0.309 N 
HETATM   18  H   UNL     1       6.112  30.666  52.012  1.00  0.00     0.170 HD
HETATM   19  C   UNL     1       4.664  27.559  47.458  1.00  0.00     0.025 A 
HETATM   20  C   UNL     1       4.089  26.545  48.226  1.00  0.00     0.036 A 
HETATM   21 CL   UNL     1       3.393  25.179  47.448  1.00  0.00    -0.084 Cl
ENDBRANCH   8   9
ENDBRANCH   1   8
BRANCH   1  22
HETATM   22  C   UNL     1       7.066  27.523  54.670  1.00  0.00     0.313 C 
BRANCH  22  23
HETATM   23  C   UNL     1       7.489  26.106  55.021  1.00  0.00     0.133 A 
HETATM   24  N   UNL     1       7.505  25.202  54.093  1.00  0.00    -0.233 NA
HETATM   25  C   UNL     1       7.906  23.900  54.458  1.00  0.00     0.076 A 
HETATM   26  C   UNL     1       8.332  23.580  55.754  1.00  0.00     0.061 A 
HETATM   27  C   UNL     1       7.887  22.891  53.495  1.00  0.00     0.056 A 
HETATM   28  C   UNL     1       8.352  24.666  56.747  1.00  0.00     0.259 A 
HETATM   29  C   UNL     1       8.737  22.286  56.095  1.00  0.00     0.021 A 
HETATM   30  O   UNL     1       8.782  24.519  57.882  1.00  0.00    -0.267 OA
HETATM   31  N   UNL     1       7.880  25.876  56.309  1.00  0.00    -0.309 N 
HETATM   32  H   UNL     1       7.957  26.624  56.989  1.00  0.00     0.170 HD
HETATM   33  C   UNL     1       8.712  21.288  55.122  1.00  0.00     0.025 A 
HETATM   34  C   UNL     1       8.288  21.594  53.828  1.00  0.00     0.036 A 
HETATM   35 CL   UNL     1       8.262  20.364  52.626  1.00  0.00    -0.084 Cl
ENDBRANCH  22  23
ENDBRANCH   1  22
TORSDOF 8
ENDMDL
MODEL 8
REMARK VINA RESULT:      -9.1      2.170      4.121
REMARK  8 active torsions:
REMARK  status: ('A' for Active; 'I' for Inactive)
REMARK    1  A    between atoms: O_2  and  C_3 
REMARK    2  A    between atoms: C_3  and  C_4 
REMARK    3  A    between atoms: C_4  and  C_5 
REMARK    4  A    between atoms: C_5  and  N_6 
REMARK    5  A    between atoms: N_6  and  C_8 
REMARK    6  A    between atoms: N_6  and  C_21 
REMARK    7  A    between atoms: C_8  and  C_9 
REMARK    8  A    between atoms: C_21  and  C_22 
ROOT
HETATM    1  N   UNL     1       5.711  28.679  54.952  1.00  0.00    -0.058 N 
HETATM    2  H   UNL     1       6.714  28.493  55.109  1.00  0.00     0.280 HD
ENDROOT
BRANCH   1   3
HETATM    3  C   UNL     1       5.466  28.837  53.466  1.00  0.00     0.238 C 
BRANCH   3   4
HETATM    4  C   UNL     1       4.313  27.961  52.988  1.00  0.00     0.054 C 
BRANCH   4   5
HETATM    5  C   UNL     1       4.707  27.207  51.721  1.00  0.00     0.168 C 
BRANCH   5   6
HETATM    6  O   UNL     1       5.636  28.022  51.011  1.00  0.00    -0.396 OA
HETATM    7  C   UNL     1       5.238  28.215  49.655  1.00  0.00     0.201 C 
ENDBRANCH   5   6
ENDBRANCH   4   5
ENDBRANCH   3   4
ENDBRANCH   1   3
BRANCH   1   8
HETATM    8  C   UNL     1       5.383  29.922  55.789  1.00  0.00     0.313 C 
BRANCH   8   9
HETATM    9  C   UNL     1       6.406  30.234  56.879  1.00  0.00     0.133 A 
HETATM   10  N   UNL     1       6.085  31.015  57.863  1.00  0.00    -0.233 NA
HETATM   11  C   UNL     1       7.059  31.260  58.854  1.00  0.00     0.076 A 
HETATM   12  C   UNL     1       8.348  30.717  58.791  1.00  0.00     0.061 A 
HETATM   13  C   UNL     1       6.731  32.071  59.942  1.00  0.00     0.056 A 
HETATM   14  C   UNL     1       8.663  29.856  57.640  1.00  0.00     0.259 A 
HETATM   15  C   UNL     1       9.301  30.972  59.781  1.00  0.00     0.021 A 
HETATM   16  O   UNL     1       9.756  29.333  57.481  1.00  0.00    -0.267 OA
HETATM   17  N   UNL     1       7.644  29.669  56.739  1.00  0.00    -0.309 N 
HETATM   18  H   UNL     1       7.894  29.056  55.972  1.00  0.00     0.170 HD
HETATM   19  C   UNL     1       8.961  31.789  60.858  1.00  0.00     0.025 A 
HETATM   20  C   UNL     1       7.679  32.335  60.933  1.00  0.00     0.036 A 
HETATM   21 CL   UNL     1       7.260  33.346  62.259  1.00  0.00    -0.084 Cl
ENDBRANCH   8   9
ENDBRANCH   1   8
BRANCH   1  22
HETATM   22  C   UNL     1       5.021  27.404  55.463  1.00  0.00     0.313 C 
BRANCH  22  23
HETATM   23  C   UNL     1       5.999  26.254  55.652  1.00  0.00     0.133 A 
HETATM   24  N   UNL     1       6.111  25.360  54.721  1.00  0.00    -0.233 NA
HETATM   25  C   UNL     1       7.030  24.311  54.933  1.00  0.00     0.076 A 
HETATM   26  C   UNL     1       7.846  24.244  56.071  1.00  0.00     0.061 A 
HETATM   27  C   UNL     1       7.141  23.305  53.973  1.00  0.00     0.056 A 
HETATM   28  C   UNL     1       7.715  25.324  57.061  1.00  0.00     0.259 A 
HETATM   29  C   UNL     1       8.758  23.202  56.258  1.00  0.00     0.021 A 
HETATM   30  O   UNL     1       8.433  25.410  58.047  1.00  0.00    -0.267 OA
HETATM   31  N   UNL     1       6.748  26.258  56.794  1.00  0.00    -0.309 N 
HETATM   32  H   UNL     1       6.714  27.025  57.456  1.00  0.00     0.170 HD
HETATM   33  C   UNL     1       8.857  22.203  55.291  1.00  0.00     0.025 A 
HETATM   34  C   UNL     1       8.049  22.259  54.154  1.00  0.00     0.036 A 
HETATM   35 CL   UNL     1       8.175  21.029  52.958  1.00  0.00    -0.084 Cl
ENDBRANCH  22  23
ENDBRANCH   1  22
TORSDOF 8
ENDMDL
MODEL 9
REMARK VINA RESULT:      -9.0      1.867      2.345
REMARK  8 active torsions:
REMARK  status: ('A' for Active; 'I' for Inactive)
REMARK    1  A    between atoms: O_2  and  C_3 
REMARK    2  A    between atoms: C_3  and  C_4 
REMARK    3  A    between atoms: C_4  and  C_5 
REMARK    4  A    between atoms: C_5  and  N_6 
REMARK    5  A    between atoms: N_6  and  C_8 
REMARK    6  A    between atoms: N_6  and  C_21 
REMARK    7  A    between atoms: C_8  and  C_9 
REMARK    8  A    between atoms: C_21  and  C_22 
ROOT
HETATM    1  N   UNL     1       7.192  28.677  57.377  1.00  0.00    -0.058 N 
HETATM    2  H   UNL     1       7.248  28.725  58.406  1.00  0.00     0.280 HD
ENDROOT
BRANCH   1   3
HETATM    3  C   UNL     1       8.517  28.184  56.834  1.00  0.00     0.238 C 
BRANCH   3   4
HETATM    4  C   UNL     1       9.204  29.242  55.975  1.00  0.00     0.054 C 
BRANCH   4   5
HETATM    5  C   UNL     1      10.538  29.646  56.595  1.00  0.00     0.168 C 
BRANCH   5   6
HETATM    6  O   UNL     1      10.286  30.016  57.947  1.00  0.00    -0.396 OA
HETATM    7  C   UNL     1      10.370  31.428  58.132  1.00  0.00     0.201 C 
ENDBRANCH   5   6
ENDBRANCH   4   5
ENDBRANCH   3   4
ENDBRANCH   1   3
BRANCH   1   8
HETATM    8  C   UNL     1       6.797  30.086  56.916  1.00  0.00     0.313 C 
BRANCH   8   9
HETATM    9  C   UNL     1       6.425  31.037  58.051  1.00  0.00     0.133 A 
HETATM   10  N   UNL     1       7.121  31.040  59.146  1.00  0.00    -0.233 NA
HETATM   11  C   UNL     1       6.749  31.949  60.160  1.00  0.00     0.076 A 
HETATM   12  C   UNL     1       5.652  32.810  60.031  1.00  0.00     0.061 A 
HETATM   13  C   UNL     1       7.499  31.997  61.336  1.00  0.00     0.056 A 
HETATM   14  C   UNL     1       4.887  32.747  58.776  1.00  0.00     0.259 A 
HETATM   15  C   UNL     1       5.297  33.703  61.047  1.00  0.00     0.021 A 
HETATM   16  O   UNL     1       3.911  33.449  58.558  1.00  0.00    -0.267 OA
HETATM   17  N   UNL     1       5.337  31.841  57.849  1.00  0.00    -0.309 N 
HETATM   18  H   UNL     1       4.796  31.840  56.992  1.00  0.00     0.170 HD
HETATM   19  C   UNL     1       6.051  33.735  62.218  1.00  0.00     0.025 A 
HETATM   20  C   UNL     1       7.148  32.883  62.358  1.00  0.00     0.036 A 
HETATM   21 CL   UNL     1       8.076  32.918  63.804  1.00  0.00    -0.084 Cl
ENDBRANCH   8   9
ENDBRANCH   1   8
BRANCH   1  22
HETATM   22  C   UNL     1       6.099  27.626  57.123  1.00  0.00     0.313 C 
BRANCH  22  23
HETATM   23  C   UNL     1       6.448  26.697  55.971  1.00  0.00     0.133 A 
HETATM   24  N   UNL     1       6.708  25.452  56.220  1.00  0.00    -0.233 NA
HETATM   25  C   UNL     1       7.025  24.621  55.125  1.00  0.00     0.076 A 
HETATM   26  C   UNL     1       7.011  25.083  53.802  1.00  0.00     0.061 A 
HETATM   27  C   UNL     1       7.359  23.288  55.362  1.00  0.00     0.056 A 
HETATM   28  C   UNL     1       6.645  26.491  53.580  1.00  0.00     0.259 A 
HETATM   29  C   UNL     1       7.317  24.242  52.728  1.00  0.00     0.021 A 
HETATM   30  O   UNL     1       6.521  26.977  52.465  1.00  0.00    -0.267 OA
HETATM   31  N   UNL     1       6.421  27.229  54.714  1.00  0.00    -0.309 N 
HETATM   32  H   UNL     1       6.114  28.179  54.539  1.00  0.00     0.170 HD
HETATM   33  C   UNL     1       7.650  22.912  52.980  1.00  0.00     0.025 A 
HETATM   34  C   UNL     1       7.669  22.441  54.294  1.00  0.00     0.036 A 
HETATM   35 CL   UNL     1       8.074  20.798  54.605  1.00  0.00    -0.084 Cl
ENDBRANCH  22  23
ENDBRANCH   1  22
TORSDOF 8
ENDMDL
MODEL 10
REMARK VINA RESULT:      -9.0      5.349      8.899
REMARK  8 active torsions:
REMARK  status: ('A' for Active; 'I' for Inactive)
REMARK    1  A    between atoms: O_2  and  C_3 
REMARK    2  A    between atoms: C_3  and  C_4 
REMARK    3  A    between atoms: C_4  and  C_5 
REMARK    4  A    between atoms: C_5  and  N_6 
REMARK    5  A    between atoms: N_6  and  C_8 
REMARK    6  A    between atoms: N_6  and  C_21 
REMARK    7  A    between atoms: C_8  and  C_9 
REMARK    8  A    between atoms: C_21  and  C_22 
ROOT
HETATM    1  N   UNL     1       5.570  28.076  54.449  1.00  0.00    -0.058 N 
HETATM    2  H   UNL     1       6.168  28.135  55.287  1.00  0.00     0.280 HD
ENDROOT
BRANCH   1   3
HETATM    3  C   UNL     1       4.528  29.173  54.509  1.00  0.00     0.238 C 
BRANCH   3   4
HETATM    4  C   UNL     1       4.062  29.432  55.939  1.00  0.00     0.054 C 
BRANCH   4   5
HETATM    5  C   UNL     1       5.250  29.771  56.834  1.00  0.00     0.168 C 
BRANCH   5   6
HETATM    6  O   UNL     1       5.817  28.541  57.275  1.00  0.00    -0.396 OA
HETATM    7  C   UNL     1       7.172  28.703  57.687  1.00  0.00     0.201 C 
ENDBRANCH   5   6
ENDBRANCH   4   5
ENDBRANCH   3   4
ENDBRANCH   1   3
BRANCH   1   8
HETATM    8  C   UNL     1       4.998  26.653  54.445  1.00  0.00     0.313 C 
BRANCH   8   9
HETATM    9  C   UNL     1       6.019  25.565  54.773  1.00  0.00     0.133 A 
HETATM   10  N   UNL     1       6.202  24.580  53.949  1.00  0.00    -0.233 NA
HETATM   11  C   UNL     1       7.168  23.609  54.288  1.00  0.00     0.076 A 
HETATM   12  C   UNL     1       7.900  23.662  55.480  1.00  0.00     0.061 A 
HETATM   13  C   UNL     1       7.409  22.555  53.405  1.00  0.00     0.056 A 
HETATM   14  C   UNL     1       7.635  24.790  56.387  1.00  0.00     0.259 A 
HETATM   15  C   UNL     1       8.852  22.689  55.800  1.00  0.00     0.021 A 
HETATM   16  O   UNL     1       8.212  24.933  57.454  1.00  0.00    -0.267 OA
HETATM   17  N   UNL     1       6.687  25.687  55.960  1.00  0.00    -0.309 N 
HETATM   18  H   UNL     1       6.547  26.459  56.602  1.00  0.00     0.170 HD
HETATM   19  C   UNL     1       9.077  21.639  54.912  1.00  0.00     0.025 A 
HETATM   20  C   UNL     1       8.355  21.577  53.719  1.00  0.00     0.036 A 
HETATM   21 CL   UNL     1       8.628  20.280  52.625  1.00  0.00    -0.084 Cl
ENDBRANCH   8   9
ENDBRANCH   1   8
BRANCH   1  22
HETATM   22  C   UNL     1       6.544  28.342  53.290  1.00  0.00     0.313 C 
BRANCH  22  23
HETATM   23  C   UNL     1       5.832  28.452  51.951  1.00  0.00     0.133 A 
HETATM   24  N   UNL     1       5.419  27.374  51.363  1.00  0.00    -0.233 NA
HETATM   25  C   UNL     1       4.761  27.518  50.124  1.00  0.00     0.076 A 
HETATM   26  C   UNL     1       4.499  28.770  49.553  1.00  0.00     0.061 A 
HETATM   27  C   UNL     1       4.348  26.374  49.441  1.00  0.00     0.056 A 
HETATM   28  C   UNL     1       4.937  29.959  50.300  1.00  0.00     0.259 A 
HETATM   29  C   UNL     1       3.837  28.893  48.328  1.00  0.00     0.021 A 
HETATM   30  O   UNL     1       4.689  31.100  49.936  1.00  0.00    -0.267 OA
HETATM   31  N   UNL     1       5.626  29.709  51.459  1.00  0.00    -0.309 N 
HETATM   32  H   UNL     1       5.867  30.540  51.988  1.00  0.00     0.170 HD
HETATM   33  C   UNL     1       3.430  27.741  47.656  1.00  0.00     0.025 A 
HETATM   34  C   UNL     1       3.687  26.488  48.215  1.00  0.00     0.036 A 
HETATM   35 CL   UNL     1       3.180  25.067  47.389  1.00  0.00    -0.084 Cl
ENDBRANCH  22  23
ENDBRANCH   1  22
TORSDOF 8
ENDMDL
