MODEL 1
REMARK VINA RESULT:     -11.6      0.000      0.000
REMARK  4 active torsions:
REMARK  status: ('A' for Active; 'I' for Inactive)
REMARK    1  A    between atoms: C_2  and  C_3 
REMARK    2  A    between atoms: C_11  and  N_12 
REMARK       I    between atoms: N_12  and  C_13 
REMARK    3  A    between atoms: C_13  and  C_14 
REMARK    4  A    between atoms: C_16  and  C_17 
ROOT
HETATM    1  C   UNL     1       7.917  29.635  56.743  1.00  0.00     0.032 A 
HETATM    2  C   UNL     1       7.652  30.151  58.021  1.00  0.00     0.029 A 
HETATM    3  C   UNL     1       8.690  30.520  58.896  1.00  0.00    -0.024 A 
HETATM    4  C   UNL     1      10.011  30.347  58.444  1.00  0.00     0.012 A 
HETATM    5  C   UNL     1      10.284  29.836  57.172  1.00  0.00     0.002 A 
HETATM    6  C   UNL     1       9.240  29.485  56.318  1.00  0.00     0.017 A 
ENDROOT
BRANCH   1   7
HETATM    7  C   UNL     1       6.761  29.319  55.858  1.00  0.00     0.252 C 
HETATM    8  N   UNL     1       6.990  28.410  54.844  1.00  0.00    -0.352 N 
HETATM    9  H   UNL     1       7.819  27.832  54.900  1.00  0.00     0.163 HD
HETATM   10  O   UNL     1       5.674  29.849  56.061  1.00  0.00    -0.268 OA
BRANCH   8  11
HETATM   11  C   UNL     1       5.918  27.980  53.952  1.00  0.00     0.084 C 
HETATM   12  C   UNL     1       6.486  27.400  52.659  1.00  0.00     0.026 C 
HETATM   13  C   UNL     1       7.145  26.032  52.851  1.00  0.00     0.016 C 
HETATM   14  C   UNL     1       6.256  24.966  53.560  1.00  0.00    -0.017 C 
HETATM   15  C   UNL     1       5.120  24.524  52.608  1.00  0.00     0.020 C 
HETATM   16  C   UNL     1       5.649  25.609  54.843  1.00  0.00     0.016 C 
HETATM   17  C   UNL     1       4.990  26.975  54.631  1.00  0.00     0.026 C 
BRANCH  14  18
HETATM   18  C   UNL     1       7.066  23.690  53.904  1.00  0.00    -0.050 A 
HETATM   19  C   UNL     1       7.612  22.868  52.899  1.00  0.00     0.008 A 
HETATM   20  C   UNL     1       8.324  21.703  53.211  1.00  0.00     0.001 A 
HETATM   21  C   UNL     1       8.496  21.323  54.537  1.00  0.00     0.000 A 
HETATM   22  C   UNL     1       7.948  22.103  55.549  1.00  0.00     0.001 A 
HETATM   23  C   UNL     1       7.236  23.265  55.235  1.00  0.00     0.008 A 
ENDBRANCH  14  18
ENDBRANCH   8  11
ENDBRANCH   1   7
BRANCH   3  24
HETATM   24  C   UNL     1       8.402  31.083  60.230  1.00  0.00    -0.006 A 
HETATM   25  C   UNL     1       9.110  30.662  61.381  1.00  0.00     0.131 A 
HETATM   26  N   UNL     1       8.927  31.127  62.649  1.00  0.00    -0.240 NA
HETATM   27  C   UNL     1       7.973  32.051  62.744  1.00  0.00     0.158 A 
HETATM   28  C   UNL     1       7.208  32.536  61.690  1.00  0.00     0.085 A 
HETATM   29  N   UNL     1       7.566  32.699  63.898  1.00  0.00    -0.291 N 
HETATM   30  N   UNL     1       6.317  33.484  62.200  1.00  0.00    -0.300 N 
HETATM   31  C   UNL     1       7.409  32.065  60.413  1.00  0.00     0.047 A 
HETATM   32  C   UNL     1       5.349  34.216  61.437  1.00  0.00     0.161 C 
HETATM   33  C   UNL     1       6.537  33.595  63.587  1.00  0.00     0.328 A 
HETATM   34  O   UNL     1       5.959  34.321  64.378  1.00  0.00    -0.247 OA
HETATM   35  H   UNL     1       7.951  32.546  64.813  1.00  0.00     0.172 HD
ENDBRANCH   3  24
TORSDOF 4
ENDMDL
MODEL 2
REMARK VINA RESULT:     -11.0      3.073     10.906
REMARK  4 active torsions:
REMARK  status: ('A' for Active; 'I' for Inactive)
REMARK    1  A    between atoms: C_2  and  C_3 
REMARK    2  A    between atoms: C_11  and  N_12 
REMARK       I    between atoms: N_12  and  C_13 
REMARK    3  A    between atoms: C_13  and  C_14 
REMARK    4  A    between atoms: C_16  and  C_17 
ROOT
HETATM    1  C   UNL     1       7.684  29.320  58.034  1.00  0.00     0.032 A 
HETATM    2  C   UNL     1       8.066  28.010  57.702  1.00  0.00     0.029 A 
HETATM    3  C   UNL     1       7.330  27.240  56.782  1.00  0.00    -0.024 A 
HETATM    4  C   UNL     1       6.190  27.831  56.207  1.00  0.00     0.012 A 
HETATM    5  C   UNL     1       5.804  29.136  56.530  1.00  0.00     0.002 A 
HETATM    6  C   UNL     1       6.553  29.884  57.438  1.00  0.00     0.017 A 
ENDROOT
BRANCH   1   7
HETATM    7  C   UNL     1       8.546  30.087  58.976  1.00  0.00     0.252 C 
HETATM    8  N   UNL     1       8.006  30.374  60.213  1.00  0.00    -0.352 N 
HETATM    9  H   UNL     1       7.187  29.857  60.507  1.00  0.00     0.163 HD
HETATM   10  O   UNL     1       9.679  30.414  58.637  1.00  0.00    -0.268 OA
BRANCH   8  11
HETATM   11  C   UNL     1       8.779  31.068  61.238  1.00  0.00     0.084 C 
HETATM   12  C   UNL     1       8.695  32.581  61.049  1.00  0.00     0.026 C 
HETATM   13  C   UNL     1       7.324  33.159  61.410  1.00  0.00     0.016 C 
HETATM   14  C   UNL     1       6.799  32.774  62.826  1.00  0.00    -0.017 C 
HETATM   15  C   UNL     1       7.630  33.510  63.903  1.00  0.00     0.020 C 
HETATM   16  C   UNL     1       6.952  31.233  63.004  1.00  0.00     0.016 C 
HETATM   17  C   UNL     1       8.331  30.675  62.644  1.00  0.00     0.026 C 
BRANCH  14  18
HETATM   18  C   UNL     1       5.327  33.217  63.025  1.00  0.00    -0.050 A 
HETATM   19  C   UNL     1       4.362  33.049  62.013  1.00  0.00     0.008 A 
HETATM   20  C   UNL     1       3.038  33.471  62.186  1.00  0.00     0.001 A 
HETATM   21  C   UNL     1       2.648  34.085  63.371  1.00  0.00     0.000 A 
HETATM   22  C   UNL     1       3.585  34.286  64.377  1.00  0.00     0.001 A 
HETATM   23  C   UNL     1       4.908  33.865  64.203  1.00  0.00     0.008 A 
ENDBRANCH  14  18
ENDBRANCH   8  11
ENDBRANCH   1   7
BRANCH   3  24
HETATM   24  C   UNL     1       7.751  25.872  56.422  1.00  0.00    -0.006 A 
HETATM   25  C   UNL     1       8.291  24.985  57.384  1.00  0.00     0.131 A 
HETATM   26  N   UNL     1       8.697  23.705  57.155  1.00  0.00    -0.240 NA
HETATM   27  C   UNL     1       8.556  23.321  55.888  1.00  0.00     0.158 A 
HETATM   28  C   UNL     1       8.048  24.103  54.857  1.00  0.00     0.085 A 
HETATM   29  N   UNL     1       8.884  22.082  55.361  1.00  0.00    -0.291 N 
HETATM   30  N   UNL     1       8.071  23.343  53.684  1.00  0.00    -0.300 N 
HETATM   31  C   UNL     1       7.633  25.391  55.104  1.00  0.00     0.047 A 
HETATM   32  C   UNL     1       7.635  23.787  52.393  1.00  0.00     0.161 C 
HETATM   33  C   UNL     1       8.592  22.071  53.992  1.00  0.00     0.328 A 
HETATM   34  O   UNL     1       8.763  21.132  53.234  1.00  0.00    -0.247 OA
HETATM   35  H   UNL     1       9.270  21.317  55.883  1.00  0.00     0.172 HD
ENDBRANCH   3  24
TORSDOF 4
ENDMDL
MODEL 3
REMARK VINA RESULT:     -10.8      1.285      2.277
REMARK  4 active torsions:
REMARK  status: ('A' for Active; 'I' for Inactive)
REMARK    1  A    between atoms: C_2  and  C_3 
REMARK    2  A    between atoms: C_11  and  N_12 
REMARK       I    between atoms: N_12  and  C_13 
REMARK    3  A    between atoms: C_13  and  C_14 
REMARK    4  A    between atoms: C_16  and  C_17 
ROOT
HETATM    1  C   UNL     1       6.867  30.175  57.286  1.00  0.00     0.032 A 
HETATM    2  C   UNL     1       6.284  31.078  58.189  1.00  0.00     0.029 A 
HETATM    3  C   UNL     1       6.949  31.475  59.364  1.00  0.00    -0.024 A 
HETATM    4  C   UNL     1       8.222  30.927  59.606  1.00  0.00     0.012 A 
HETATM    5  C   UNL     1       8.810  30.028  58.710  1.00  0.00     0.002 A 
HETATM    6  C   UNL     1       8.137  29.656  57.547  1.00  0.00     0.017 A 
ENDROOT
BRANCH   1   7
HETATM    7  C   UNL     1       6.120  29.847  56.039  1.00  0.00     0.252 C 
HETATM    8  N   UNL     1       6.464  28.671  55.404  1.00  0.00    -0.352 N 
HETATM    9  H   UNL     1       7.000  27.988  55.923  1.00  0.00     0.163 HD
HETATM   10  O   UNL     1       5.241  30.603  55.638  1.00  0.00    -0.268 OA
BRANCH   8  11
HETATM   11  C   UNL     1       5.761  28.219  54.208  1.00  0.00     0.084 C 
HETATM   12  C   UNL     1       6.748  27.880  53.093  1.00  0.00     0.026 C 
HETATM   13  C   UNL     1       7.537  26.595  53.356  1.00  0.00     0.016 C 
HETATM   14  C   UNL     1       6.667  25.345  53.689  1.00  0.00    -0.017 C 
HETATM   15  C   UNL     1       5.922  24.880  52.416  1.00  0.00     0.020 C 
HETATM   16  C   UNL     1       5.636  25.742  54.788  1.00  0.00     0.016 C 
HETATM   17  C   UNL     1       4.854  27.027  54.504  1.00  0.00     0.026 C 
BRANCH  14  18
HETATM   18  C   UNL     1       7.543  24.151  54.149  1.00  0.00    -0.050 A 
HETATM   19  C   UNL     1       8.019  24.050  55.470  1.00  0.00     0.008 A 
HETATM   20  C   UNL     1       8.829  22.983  55.878  1.00  0.00     0.001 A 
HETATM   21  C   UNL     1       9.196  21.997  54.970  1.00  0.00     0.000 A 
HETATM   22  C   UNL     1       8.760  22.083  53.653  1.00  0.00     0.001 A 
HETATM   23  C   UNL     1       7.952  23.150  53.247  1.00  0.00     0.008 A 
ENDBRANCH  14  18
ENDBRANCH   8  11
ENDBRANCH   1   7
BRANCH   3  24
HETATM   24  C   UNL     1       6.339  32.443  60.297  1.00  0.00    -0.006 A 
HETATM   25  C   UNL     1       5.245  33.255  59.912  1.00  0.00     0.131 A 
HETATM   26  N   UNL     1       4.608  34.167  60.699  1.00  0.00    -0.240 NA
HETATM   27  C   UNL     1       5.118  34.259  61.926  1.00  0.00     0.158 A 
HETATM   28  C   UNL     1       6.191  33.523  62.413  1.00  0.00     0.085 A 
HETATM   29  N   UNL     1       4.681  35.097  62.939  1.00  0.00    -0.291 N 
HETATM   30  N   UNL     1       6.423  33.916  63.735  1.00  0.00    -0.300 N 
HETATM   31  C   UNL     1       6.820  32.599  61.611  1.00  0.00     0.047 A 
HETATM   32  C   UNL     1       7.447  33.397  64.593  1.00  0.00     0.161 C 
HETATM   33  C   UNL     1       5.476  34.902  64.074  1.00  0.00     0.328 A 
HETATM   34  O   UNL     1       5.354  35.484  65.138  1.00  0.00    -0.247 OA
HETATM   35  H   UNL     1       3.915  35.741  62.865  1.00  0.00     0.172 HD
ENDBRANCH   3  24
TORSDOF 4
ENDMDL
MODEL 4
REMARK VINA RESULT:     -10.6      2.864     10.672
REMARK  4 active torsions:
REMARK  status: ('A' for Active; 'I' for Inactive)
REMARK    1  A    between atoms: C_2  and  C_3 
REMARK    2  A    between atoms: C_11  and  N_12 
REMARK       I    between atoms: N_12  and  C_13 
REMARK    3  A    between atoms: C_13  and  C_14 
REMARK    4  A    between atoms: C_16  and  C_17 
ROOT
HETATM    1  C   UNL     1       6.577  30.027  57.784  1.00  0.00     0.032 A 
HETATM    2  C   UNL     1       6.552  28.715  57.286  1.00  0.00     0.029 A 
HETATM    3  C   UNL     1       7.737  27.987  57.071  1.00  0.00    -0.024 A 
HETATM    4  C   UNL     1       8.954  28.624  57.372  1.00  0.00     0.012 A 
HETATM    5  C   UNL     1       8.988  29.930  57.871  1.00  0.00     0.002 A 
HETATM    6  C   UNL     1       7.801  30.631  58.084  1.00  0.00     0.017 A 
ENDROOT
BRANCH   1   7
HETATM    7  C   UNL     1       5.277  30.710  58.033  1.00  0.00     0.252 C 
HETATM    8  N   UNL     1       5.234  31.589  59.097  1.00  0.00    -0.352 N 
HETATM    9  H   UNL     1       6.111  31.910  59.485  1.00  0.00     0.163 HD
HETATM   10  O   UNL     1       4.321  30.488  57.297  1.00  0.00    -0.268 OA
BRANCH   8  11
HETATM   11  C   UNL     1       4.031  32.357  59.400  1.00  0.00     0.084 C 
HETATM   12  C   UNL     1       3.278  31.746  60.579  1.00  0.00     0.026 C 
HETATM   13  C   UNL     1       3.988  31.953  61.919  1.00  0.00     0.016 C 
HETATM   14  C   UNL     1       4.367  33.429  62.244  1.00  0.00    -0.017 C 
HETATM   15  C   UNL     1       3.085  34.235  62.556  1.00  0.00     0.020 C 
HETATM   16  C   UNL     1       5.082  34.037  60.999  1.00  0.00     0.016 C 
HETATM   17  C   UNL     1       4.354  33.825  59.670  1.00  0.00     0.026 C 
BRANCH  14  18
HETATM   18  C   UNL     1       5.264  33.521  63.505  1.00  0.00    -0.050 A 
HETATM   19  C   UNL     1       4.731  33.831  64.771  1.00  0.00     0.008 A 
HETATM   20  C   UNL     1       5.546  33.936  65.904  1.00  0.00     0.001 A 
HETATM   21  C   UNL     1       6.919  33.746  65.798  1.00  0.00     0.000 A 
HETATM   22  C   UNL     1       7.476  33.462  64.556  1.00  0.00     0.001 A 
HETATM   23  C   UNL     1       6.660  33.359  63.425  1.00  0.00     0.008 A 
ENDBRANCH  14  18
ENDBRANCH   8  11
ENDBRANCH   1   7
BRANCH   3  24
HETATM   24  C   UNL     1       7.700  26.599  56.568  1.00  0.00    -0.006 A 
HETATM   25  C   UNL     1       7.705  25.491  57.450  1.00  0.00     0.131 A 
HETATM   26  N   UNL     1       7.662  24.178  57.087  1.00  0.00    -0.240 NA
HETATM   27  C   UNL     1       7.624  23.992  55.769  1.00  0.00     0.158 A 
HETATM   28  C   UNL     1       7.624  24.997  54.809  1.00  0.00     0.085 A 
HETATM   29  N   UNL     1       7.578  22.774  55.110  1.00  0.00    -0.291 N 
HETATM   30  N   UNL     1       7.585  24.394  53.548  1.00  0.00    -0.300 N 
HETATM   31  C   UNL     1       7.658  26.319  55.189  1.00  0.00     0.047 A 
HETATM   32  C   UNL     1       7.577  25.085  52.292  1.00  0.00     0.161 C 
HETATM   33  C   UNL     1       7.554  22.998  53.729  1.00  0.00     0.328 A 
HETATM   34  O   UNL     1       7.512  22.136  52.867  1.00  0.00    -0.247 OA
HETATM   35  H   UNL     1       7.566  21.876  55.557  1.00  0.00     0.172 HD
ENDBRANCH   3  24
TORSDOF 4
ENDMDL
MODEL 5
REMARK VINA RESULT:     -10.5      1.828      3.626
REMARK  4 active torsions:
REMARK  status: ('A' for Active; 'I' for Inactive)
REMARK    1  A    between atoms: C_2  and  C_3 
REMARK    2  A    between atoms: C_11  and  N_12 
REMARK       I    between atoms: N_12  and  C_13 
REMARK    3  A    between atoms: C_13  and  C_14 
REMARK    4  A    between atoms: C_16  and  C_17 
ROOT
HETATM    1  C   UNL     1       8.703  28.396  57.432  1.00  0.00     0.032 A 
HETATM    2  C   UNL     1       8.246  29.176  58.506  1.00  0.00     0.029 A 
HETATM    3  C   UNL     1       8.828  30.420  58.812  1.00  0.00    -0.024 A 
HETATM    4  C   UNL     1       9.892  30.855  58.002  1.00  0.00     0.012 A 
HETATM    5  C   UNL     1      10.352  30.085  56.929  1.00  0.00     0.002 A 
HETATM    6  C   UNL     1       9.755  28.860  56.638  1.00  0.00     0.017 A 
ENDROOT
BRANCH   1   7
HETATM    7  C   UNL     1       7.998  27.116  57.143  1.00  0.00     0.252 C 
HETATM    8  N   UNL     1       7.658  26.882  55.825  1.00  0.00    -0.352 N 
HETATM    9  H   UNL     1       8.107  27.440  55.111  1.00  0.00     0.163 HD
HETATM   10  O   UNL     1       7.763  26.330  58.054  1.00  0.00    -0.268 OA
BRANCH   8  11
HETATM   11  C   UNL     1       7.017  25.637  55.415  1.00  0.00     0.084 C 
HETATM   12  C   UNL     1       5.511  25.828  55.255  1.00  0.00     0.026 C 
HETATM   13  C   UNL     1       5.137  26.658  54.025  1.00  0.00     0.016 C 
HETATM   14  C   UNL     1       5.750  26.160  52.682  1.00  0.00    -0.017 C 
HETATM   15  C   UNL     1       5.069  24.837  52.261  1.00  0.00     0.020 C 
HETATM   16  C   UNL     1       7.276  25.922  52.898  1.00  0.00     0.016 C 
HETATM   17  C   UNL     1       7.630  25.085  54.130  1.00  0.00     0.026 C 
BRANCH  14  18
HETATM   18  C   UNL     1       5.499  27.171  51.533  1.00  0.00    -0.050 A 
HETATM   19  C   UNL     1       5.126  26.747  50.243  1.00  0.00     0.008 A 
HETATM   20  C   UNL     1       4.922  27.660  49.202  1.00  0.00     0.001 A 
HETATM   21  C   UNL     1       5.100  29.021  49.420  1.00  0.00     0.000 A 
HETATM   22  C   UNL     1       5.491  29.467  50.677  1.00  0.00     0.001 A 
HETATM   23  C   UNL     1       5.696  28.553  51.716  1.00  0.00     0.008 A 
ENDBRANCH  14  18
ENDBRANCH   8  11
ENDBRANCH   1   7
BRANCH   3  24
HETATM   24  C   UNL     1       8.326  31.245  59.929  1.00  0.00    -0.006 A 
HETATM   25  C   UNL     1       9.011  31.312  61.167  1.00  0.00     0.131 A 
HETATM   26  N   UNL     1       8.638  32.049  62.250  1.00  0.00    -0.240 NA
HETATM   27  C   UNL     1       7.512  32.735  62.064  1.00  0.00     0.158 A 
HETATM   28  C   UNL     1       6.751  32.742  60.901  1.00  0.00     0.085 A 
HETATM   29  N   UNL     1       6.892  33.565  62.983  1.00  0.00    -0.291 N 
HETATM   30  N   UNL     1       5.649  33.576  61.108  1.00  0.00    -0.300 N 
HETATM   31  C   UNL     1       7.144  32.001  59.811  1.00  0.00     0.047 A 
HETATM   32  C   UNL     1       4.617  33.849  60.151  1.00  0.00     0.161 C 
HETATM   33  C   UNL     1       5.731  34.100  62.413  1.00  0.00     0.328 A 
HETATM   34  O   UNL     1       4.957  34.868  62.958  1.00  0.00    -0.247 OA
HETATM   35  H   UNL     1       7.226  33.750  63.912  1.00  0.00     0.172 HD
ENDBRANCH   3  24
TORSDOF 4
ENDMDL
MODEL 6
REMARK VINA RESULT:     -10.4      6.698     11.521
REMARK  4 active torsions:
REMARK  status: ('A' for Active; 'I' for Inactive)
REMARK    1  A    between atoms: C_2  and  C_3 
REMARK    2  A    between atoms: C_11  and  N_12 
REMARK       I    between atoms: N_12  and  C_13 
REMARK    3  A    between atoms: C_13  and  C_14 
REMARK    4  A    between atoms: C_16  and  C_17 
ROOT
HETATM    1  C   UNL     1       4.604  27.357  50.102  1.00  0.00     0.032 A 
HETATM    2  C   UNL     1       3.941  28.307  49.309  1.00  0.00     0.029 A 
HETATM    3  C   UNL     1       3.278  27.941  48.123  1.00  0.00    -0.024 A 
HETATM    4  C   UNL     1       3.307  26.583  47.756  1.00  0.00     0.012 A 
HETATM    5  C   UNL     1       3.964  25.631  48.542  1.00  0.00     0.002 A 
HETATM    6  C   UNL     1       4.607  26.014  49.718  1.00  0.00     0.017 A 
ENDROOT
BRANCH   1   7
HETATM    7  C   UNL     1       5.237  27.819  51.370  1.00  0.00     0.252 C 
HETATM    8  N   UNL     1       5.397  26.871  52.361  1.00  0.00    -0.352 N 
HETATM    9  H   UNL     1       5.319  25.895  52.104  1.00  0.00     0.163 HD
HETATM   10  O   UNL     1       5.596  28.986  51.483  1.00  0.00    -0.268 OA
BRANCH   8  11
HETATM   11  C   UNL     1       6.056  27.194  53.622  1.00  0.00     0.084 C 
HETATM   12  C   UNL     1       5.432  26.413  54.777  1.00  0.00     0.026 C 
HETATM   13  C   UNL     1       5.774  24.921  54.750  1.00  0.00     0.016 C 
HETATM   14  C   UNL     1       7.295  24.596  54.656  1.00  0.00    -0.017 C 
HETATM   15  C   UNL     1       7.983  24.949  55.995  1.00  0.00     0.020 C 
HETATM   16  C   UNL     1       7.909  25.451  53.506  1.00  0.00     0.016 C 
HETATM   17  C   UNL     1       7.560  26.940  53.552  1.00  0.00     0.026 C 
BRANCH  14  18
HETATM   18  C   UNL     1       7.538  23.083  54.419  1.00  0.00    -0.050 A 
HETATM   19  C   UNL     1       7.616  22.171  55.489  1.00  0.00     0.008 A 
HETATM   20  C   UNL     1       7.858  20.809  55.274  1.00  0.00     0.001 A 
HETATM   21  C   UNL     1       8.043  20.326  53.984  1.00  0.00     0.000 A 
HETATM   22  C   UNL     1       7.995  21.207  52.910  1.00  0.00     0.001 A 
HETATM   23  C   UNL     1       7.754  22.568  53.126  1.00  0.00     0.008 A 
ENDBRANCH  14  18
ENDBRANCH   8  11
ENDBRANCH   1   7
BRANCH   3  24
HETATM   24  C   UNL     1       2.563  28.942  47.307  1.00  0.00    -0.006 A 
HETATM   25  C   UNL     1       3.205  30.117  46.846  1.00  0.00     0.131 A 
HETATM   26  N   UNL     1       2.638  31.092  46.081  1.00  0.00    -0.240 NA
HETATM   27  C   UNL     1       1.360  30.860  45.785  1.00  0.00     0.158 A 
HETATM   28  C   UNL     1       0.626  29.751  46.186  1.00  0.00     0.085 A 
HETATM   29  N   UNL     1       0.529  31.671  45.030  1.00  0.00    -0.291 N 
HETATM   30  N   UNL     1      -0.671  29.883  45.680  1.00  0.00    -0.300 N 
HETATM   31  C   UNL     1       1.212  28.769  46.950  1.00  0.00     0.047 A 
HETATM   32  C   UNL     1      -1.742  28.950  45.872  1.00  0.00     0.161 C 
HETATM   33  C   UNL     1      -0.739  31.086  44.950  1.00  0.00     0.328 A 
HETATM   34  O   UNL     1      -1.700  31.545  44.357  1.00  0.00    -0.247 OA
HETATM   35  H   UNL     1       0.799  32.542  44.609  1.00  0.00     0.172 HD
ENDBRANCH   3  24
TORSDOF 4
ENDMDL
MODEL 7
REMARK VINA RESULT:     -10.4      5.641      9.424
REMARK  4 active torsions:
REMARK  status: ('A' for Active; 'I' for Inactive)
REMARK    1  A    between atoms: C_2  and  C_3 
REMARK    2  A    between atoms: C_11  and  N_12 
REMARK       I    between atoms: N_12  and  C_13 
REMARK    3  A    between atoms: C_13  and  C_14 
REMARK    4  A    between atoms: C_16  and  C_17 
ROOT
HETATM    1  C   UNL     1       5.128  28.250  54.975  1.00  0.00     0.032 A 
HETATM    2  C   UNL     1       5.735  27.128  54.390  1.00  0.00     0.029 A 
HETATM    3  C   UNL     1       6.000  25.963  55.134  1.00  0.00    -0.024 A 
HETATM    4  C   UNL     1       5.638  25.965  56.493  1.00  0.00     0.012 A 
HETATM    5  C   UNL     1       5.031  27.078  57.083  1.00  0.00     0.002 A 
HETATM    6  C   UNL     1       4.769  28.218  56.325  1.00  0.00     0.017 A 
ENDROOT
BRANCH   1   7
HETATM    7  C   UNL     1       4.833  29.424  54.106  1.00  0.00     0.252 C 
HETATM    8  N   UNL     1       5.002  29.243  52.747  1.00  0.00    -0.352 N 
HETATM    9  H   UNL     1       5.066  28.296  52.397  1.00  0.00     0.163 HD
HETATM   10  O   UNL     1       4.449  30.474  54.608  1.00  0.00    -0.268 OA
BRANCH   8  11
HETATM   11  C   UNL     1       4.688  30.303  51.795  1.00  0.00     0.084 C 
HETATM   12  C   UNL     1       5.556  30.185  50.544  1.00  0.00     0.026 C 
HETATM   13  C   UNL     1       5.172  29.000  49.655  1.00  0.00     0.016 C 
HETATM   14  C   UNL     1       3.666  28.933  49.259  1.00  0.00    -0.017 C 
HETATM   15  C   UNL     1       3.345  30.065  48.256  1.00  0.00     0.020 C 
HETATM   16  C   UNL     1       2.811  29.114  50.550  1.00  0.00     0.016 C 
HETATM   17  C   UNL     1       3.207  30.307  51.424  1.00  0.00     0.026 C 
BRANCH  14  18
HETATM   18  C   UNL     1       3.326  27.600  48.545  1.00  0.00    -0.050 A 
HETATM   19  C   UNL     1       3.973  26.395  48.881  1.00  0.00     0.008 A 
HETATM   20  C   UNL     1       3.681  25.197  48.219  1.00  0.00     0.001 A 
HETATM   21  C   UNL     1       2.743  25.175  47.193  1.00  0.00     0.000 A 
HETATM   22  C   UNL     1       2.105  26.354  46.824  1.00  0.00     0.001 A 
HETATM   23  C   UNL     1       2.400  27.551  47.486  1.00  0.00     0.008 A 
ENDBRANCH  14  18
ENDBRANCH   8  11
ENDBRANCH   1   7
BRANCH   3  24
HETATM   24  C   UNL     1       6.618  24.779  54.506  1.00  0.00    -0.006 A 
HETATM   25  C   UNL     1       6.896  24.737  53.118  1.00  0.00     0.131 A 
HETATM   26  N   UNL     1       7.472  23.700  52.447  1.00  0.00    -0.240 NA
HETATM   27  C   UNL     1       7.765  22.660  53.226  1.00  0.00     0.158 A 
HETATM   28  C   UNL     1       7.532  22.583  54.594  1.00  0.00     0.085 A 
HETATM   29  N   UNL     1       8.351  21.470  52.826  1.00  0.00    -0.291 N 
HETATM   30  N   UNL     1       7.971  21.332  55.039  1.00  0.00    -0.300 N 
HETATM   31  C   UNL     1       6.958  23.640  55.261  1.00  0.00     0.047 A 
HETATM   32  C   UNL     1       7.904  20.856  56.390  1.00  0.00     0.161 C 
HETATM   33  C   UNL     1       8.489  20.628  53.935  1.00  0.00     0.328 A 
HETATM   34  O   UNL     1       8.969  19.507  53.924  1.00  0.00    -0.247 OA
HETATM   35  H   UNL     1       8.630  21.251  51.887  1.00  0.00     0.172 HD
ENDBRANCH   3  24
TORSDOF 4
ENDMDL
MODEL 8
REMARK VINA RESULT:     -10.3      6.752     11.792
REMARK  4 active torsions:
REMARK  status: ('A' for Active; 'I' for Inactive)
REMARK    1  A    between atoms: C_2  and  C_3 
REMARK    2  A    between atoms: C_11  and  N_12 
REMARK       I    between atoms: N_12  and  C_13 
REMARK    3  A    between atoms: C_13  and  C_14 
REMARK    4  A    between atoms: C_16  and  C_17 
ROOT
HETATM    1  C   UNL     1       3.871  27.291  49.488  1.00  0.00     0.032 A 
HETATM    2  C   UNL     1       2.791  27.919  48.848  1.00  0.00     0.029 A 
HETATM    3  C   UNL     1       2.131  27.320  47.759  1.00  0.00    -0.024 A 
HETATM    4  C   UNL     1       2.597  26.064  47.329  1.00  0.00     0.012 A 
HETATM    5  C   UNL     1       3.671  25.430  47.963  1.00  0.00     0.002 A 
HETATM    6  C   UNL     1       4.305  26.038  49.045  1.00  0.00     0.017 A 
ENDROOT
BRANCH   1   7
HETATM    7  C   UNL     1       4.481  27.968  50.667  1.00  0.00     0.252 C 
HETATM    8  N   UNL     1       4.627  27.207  51.809  1.00  0.00    -0.352 N 
HETATM    9  H   UNL     1       4.555  26.201  51.724  1.00  0.00     0.163 HD
HETATM   10  O   UNL     1       4.835  29.139  50.581  1.00  0.00    -0.268 OA
BRANCH   8  11
HETATM   11  C   UNL     1       5.263  27.747  53.006  1.00  0.00     0.084 C 
HETATM   12  C   UNL     1       4.769  27.025  54.257  1.00  0.00     0.026 C 
HETATM   13  C   UNL     1       5.302  25.594  54.377  1.00  0.00     0.016 C 
HETATM   14  C   UNL     1       6.850  25.456  54.266  1.00  0.00    -0.017 C 
HETATM   15  C   UNL     1       7.514  26.038  55.536  1.00  0.00     0.020 C 
HETATM   16  C   UNL     1       7.325  26.251  53.012  1.00  0.00     0.016 C 
HETATM   17  C   UNL     1       6.786  27.680  52.912  1.00  0.00     0.026 C 
BRANCH  14  18
HETATM   18  C   UNL     1       7.282  23.969  54.183  1.00  0.00    -0.050 A 
HETATM   19  C   UNL     1       7.590  23.357  52.953  1.00  0.00     0.008 A 
HETATM   20  C   UNL     1       7.957  22.008  52.878  1.00  0.00     0.001 A 
HETATM   21  C   UNL     1       8.013  21.233  54.030  1.00  0.00     0.000 A 
HETATM   22  C   UNL     1       7.692  21.805  55.255  1.00  0.00     0.001 A 
HETATM   23  C   UNL     1       7.324  23.152  55.329  1.00  0.00     0.008 A 
ENDBRANCH  14  18
ENDBRANCH   8  11
ENDBRANCH   1   7
BRANCH   3  24
HETATM   24  C   UNL     1       0.982  27.977  47.106  1.00  0.00    -0.006 A 
HETATM   25  C   UNL     1       0.115  27.267  46.240  1.00  0.00     0.131 A 
HETATM   26  N   UNL     1      -0.974  27.778  45.601  1.00  0.00    -0.240 NA
HETATM   27  C   UNL     1      -1.179  29.070  45.849  1.00  0.00     0.158 A 
HETATM   28  C   UNL     1      -0.395  29.870  46.672  1.00  0.00     0.085 A 
HETATM   29  N   UNL     1      -2.201  29.855  45.341  1.00  0.00    -0.291 N 
HETATM   30  N   UNL     1      -0.933  31.160  46.664  1.00  0.00    -0.300 N 
HETATM   31  C   UNL     1       0.698  29.340  47.319  1.00  0.00     0.047 A 
HETATM   32  C   UNL     1      -0.414  32.286  47.384  1.00  0.00     0.161 C 
HETATM   33  C   UNL     1      -2.070  31.159  45.833  1.00  0.00     0.328 A 
HETATM   34  O   UNL     1      -2.809  32.094  45.578  1.00  0.00    -0.247 OA
HETATM   35  H   UNL     1      -2.920  29.535  44.718  1.00  0.00     0.172 HD
ENDBRANCH   3  24
TORSDOF 4
ENDMDL
MODEL 9
REMARK VINA RESULT:     -10.2      2.243      3.512
REMARK  4 active torsions:
REMARK  status: ('A' for Active; 'I' for Inactive)
REMARK    1  A    between atoms: C_2  and  C_3 
REMARK    2  A    between atoms: C_11  and  N_12 
REMARK       I    between atoms: N_12  and  C_13 
REMARK    3  A    between atoms: C_13  and  C_14 
REMARK    4  A    between atoms: C_16  and  C_17 
ROOT
HETATM    1  C   UNL     1       6.782  31.561  58.752  1.00  0.00     0.032 A 
HETATM    2  C   UNL     1       6.001  31.983  59.840  1.00  0.00     0.029 A 
HETATM    3  C   UNL     1       6.587  32.367  61.061  1.00  0.00    -0.024 A 
HETATM    4  C   UNL     1       7.989  32.309  61.155  1.00  0.00     0.012 A 
HETATM    5  C   UNL     1       8.774  31.891  60.076  1.00  0.00     0.002 A 
HETATM    6  C   UNL     1       8.174  31.523  58.872  1.00  0.00     0.017 A 
ENDROOT
BRANCH   1   7
HETATM    7  C   UNL     1       6.089  31.221  57.478  1.00  0.00     0.252 C 
HETATM    8  N   UNL     1       6.074  29.888  57.119  1.00  0.00    -0.352 N 
HETATM    9  H   UNL     1       6.298  29.202  57.827  1.00  0.00     0.163 HD
HETATM   10  O   UNL     1       5.557  32.108  56.818  1.00  0.00    -0.268 OA
BRANCH   8  11
HETATM   11  C   UNL     1       5.375  29.431  55.923  1.00  0.00     0.084 C 
HETATM   12  C   UNL     1       6.366  29.043  54.829  1.00  0.00     0.026 C 
HETATM   13  C   UNL     1       7.116  27.742  55.130  1.00  0.00     0.016 C 
HETATM   14  C   UNL     1       6.208  26.523  55.475  1.00  0.00    -0.017 C 
HETATM   15  C   UNL     1       5.468  26.053  54.202  1.00  0.00     0.020 C 
HETATM   16  C   UNL     1       5.174  26.971  56.552  1.00  0.00     0.016 C 
HETATM   17  C   UNL     1       4.431  28.271  56.231  1.00  0.00     0.026 C 
BRANCH  14  18
HETATM   18  C   UNL     1       7.045  25.316  55.972  1.00  0.00    -0.050 A 
HETATM   19  C   UNL     1       8.045  25.463  56.952  1.00  0.00     0.008 A 
HETATM   20  C   UNL     1       8.815  24.376  57.383  1.00  0.00     0.001 A 
HETATM   21  C   UNL     1       8.614  23.115  56.832  1.00  0.00     0.000 A 
HETATM   22  C   UNL     1       7.650  22.945  55.845  1.00  0.00     0.001 A 
HETATM   23  C   UNL     1       6.883  24.033  55.416  1.00  0.00     0.008 A 
ENDBRANCH  14  18
ENDBRANCH   8  11
ENDBRANCH   1   7
BRANCH   3  24
HETATM   24  C   UNL     1       5.760  32.833  62.192  1.00  0.00    -0.006 A 
HETATM   25  C   UNL     1       4.357  32.985  62.071  1.00  0.00     0.131 A 
HETATM   26  N   UNL     1       3.508  33.395  63.054  1.00  0.00    -0.240 NA
HETATM   27  C   UNL     1       4.120  33.671  64.204  1.00  0.00     0.158 A 
HETATM   28  C   UNL     1       5.486  33.568  64.439  1.00  0.00     0.085 A 
HETATM   29  N   UNL     1       3.520  34.109  65.373  1.00  0.00    -0.291 N 
HETATM   30  N   UNL     1       5.730  33.953  65.761  1.00  0.00    -0.300 N 
HETATM   31  C   UNL     1       6.332  33.143  63.440  1.00  0.00     0.047 A 
HETATM   32  C   UNL     1       7.015  33.990  66.396  1.00  0.00     0.161 C 
HETATM   33  C   UNL     1       4.499  34.291  66.356  1.00  0.00     0.328 A 
HETATM   34  O   UNL     1       4.302  34.670  67.498  1.00  0.00    -0.247 OA
HETATM   35  H   UNL     1       2.536  34.270  65.492  1.00  0.00     0.172 HD
ENDBRANCH   3  24
TORSDOF 4
ENDMDL
MODEL 10
REMARK VINA RESULT:     -10.2      4.727      9.965
REMARK  4 active torsions:
REMARK  status: ('A' for Active; 'I' for Inactive)
REMARK    1  A    between atoms: C_2  and  C_3 
REMARK    2  A    between atoms: C_11  and  N_12 
REMARK       I    between atoms: N_12  and  C_13 
REMARK    3  A    between atoms: C_13  and  C_14 
REMARK    4  A    between atoms: C_16  and  C_17 
ROOT
HETATM    1  C   UNL     1       4.029  30.277  53.859  1.00  0.00     0.032 A 
HETATM    2  C   UNL     1       4.087  29.271  52.881  1.00  0.00     0.029 A 
HETATM    3  C   UNL     1       3.565  29.470  51.590  1.00  0.00    -0.024 A 
HETATM    4  C   UNL     1       2.977  30.717  51.312  1.00  0.00     0.012 A 
HETATM    5  C   UNL     1       2.918  31.725  52.279  1.00  0.00     0.002 A 
HETATM    6  C   UNL     1       3.448  31.510  53.550  1.00  0.00     0.017 A 
ENDROOT
BRANCH   1   7
HETATM    7  C   UNL     1       4.651  30.006  55.185  1.00  0.00     0.252 C 
HETATM    8  N   UNL     1       5.089  28.715  55.409  1.00  0.00    -0.352 N 
HETATM    9  H   UNL     1       5.197  28.104  54.611  1.00  0.00     0.163 HD
HETATM   10  O   UNL     1       4.765  30.912  56.003  1.00  0.00    -0.268 OA
BRANCH   8  11
HETATM   11  C   UNL     1       5.765  28.347  56.648  1.00  0.00     0.084 C 
HETATM   12  C   UNL     1       5.255  27.005  57.168  1.00  0.00     0.026 C 
HETATM   13  C   UNL     1       5.721  25.815  56.326  1.00  0.00     0.016 C 
HETATM   14  C   UNL     1       7.259  25.737  56.090  1.00  0.00    -0.017 C 
HETATM   15  C   UNL     1       7.966  25.354  57.411  1.00  0.00     0.020 C 
HETATM   16  C   UNL     1       7.754  27.137  55.615  1.00  0.00     0.016 C 
HETATM   17  C   UNL     1       7.282  28.314  56.473  1.00  0.00     0.026 C 
BRANCH  14  18
HETATM   18  C   UNL     1       7.620  24.637  55.060  1.00  0.00    -0.050 A 
HETATM   19  C   UNL     1       8.287  23.457  55.441  1.00  0.00     0.008 A 
HETATM   20  C   UNL     1       8.632  22.475  54.505  1.00  0.00     0.001 A 
HETATM   21  C   UNL     1       8.332  22.654  53.160  1.00  0.00     0.000 A 
HETATM   22  C   UNL     1       7.696  23.820  52.751  1.00  0.00     0.001 A 
HETATM   23  C   UNL     1       7.352  24.801  53.687  1.00  0.00     0.008 A 
ENDBRANCH  14  18
ENDBRANCH   8  11
ENDBRANCH   1   7
BRANCH   3  24
HETATM   24  C   UNL     1       3.650  28.415  50.560  1.00  0.00    -0.006 A 
HETATM   25  C   UNL     1       4.698  27.463  50.560  1.00  0.00     0.131 A 
HETATM   26  N   UNL     1       4.858  26.448  49.665  1.00  0.00    -0.240 NA
HETATM   27  C   UNL     1       3.915  26.413  48.726  1.00  0.00     0.158 A 
HETATM   28  C   UNL     1       2.846  27.295  48.620  1.00  0.00     0.085 A 
HETATM   29  N   UNL     1       3.818  25.501  47.688  1.00  0.00    -0.291 N 
HETATM   30  N   UNL     1       2.090  26.929  47.502  1.00  0.00    -0.300 N 
HETATM   31  C   UNL     1       2.690  28.310  49.535  1.00  0.00     0.047 A 
HETATM   32  C   UNL     1       0.904  27.590  47.043  1.00  0.00     0.161 C 
HETATM   33  C   UNL     1       2.693  25.800  46.913  1.00  0.00     0.328 A 
HETATM   34  O   UNL     1       2.324  25.189  45.925  1.00  0.00    -0.247 OA
HETATM   35  H   UNL     1       4.459  24.746  47.522  1.00  0.00     0.172 HD
ENDBRANCH   3  24
TORSDOF 4
ENDMDL
