MODEL 1
REMARK VINA RESULT:     -10.0      0.000      0.000
REMARK  6 active torsions:
REMARK  status: ('A' for Active; 'I' for Inactive)
REMARK    1  A    between atoms: C_2  and  C_3 
REMARK    2  A    between atoms: C_3  and  N_4 
REMARK       I    between atoms: N_4  and  C_5 
REMARK    3  A    between atoms: C_5  and  C_6 
REMARK    4  A    between atoms: C_8  and  C_9 
REMARK    5  A    between atoms: C_9  and  N_10 
REMARK       I    between atoms: N_10  and  C_11 
REMARK    6  A    between atoms: C_11  and  C_12 
ROOT
HETATM    1  C   UNL     1       7.405  27.370  57.411  1.00  0.00     0.161 C 
ENDROOT
BRANCH   1   2
HETATM    2  C   UNL     1       8.379  28.506  57.585  1.00  0.00    -0.040 A 
HETATM    3  C   UNL     1       8.126  29.506  58.536  1.00  0.00     0.026 A 
HETATM    4  C   UNL     1       9.011  30.577  58.700  1.00  0.00     0.032 A 
HETATM    5  C   UNL     1      10.177  30.637  57.931  1.00  0.00     0.017 A 
HETATM    6  C   UNL     1      10.433  29.653  56.976  1.00  0.00     0.002 A 
HETATM    7  C   UNL     1       9.534  28.598  56.796  1.00  0.00     0.009 A 
BRANCH   4   8
HETATM    8  C   UNL     1       8.746  31.654  59.692  1.00  0.00     0.252 C 
HETATM    9  N   UNL     1       7.830  31.346  60.678  1.00  0.00    -0.353 N 
HETATM   10  H   UNL     1       7.271  30.509  60.568  1.00  0.00     0.163 HD
HETATM   11  O   UNL     1       9.300  32.742  59.585  1.00  0.00    -0.268 OA
BRANCH   9  12
HETATM   12  C   UNL     1       7.403  32.322  61.670  1.00  0.00     0.080 C 
HETATM   13  C   UNL     1       8.096  32.045  63.002  1.00  0.00     0.032 C 
BRANCH  12  14
HETATM   14  C   UNL     1       5.871  32.379  61.804  1.00  0.00     0.020 C 
HETATM   15  C   UNL     1       5.126  32.617  60.497  1.00  0.00     0.007 C 
ENDBRANCH  12  14
ENDBRANCH   9  12
ENDBRANCH   4   8
ENDBRANCH   1   2
BRANCH   1  16
HETATM   16  N   UNL     1       7.671  26.599  56.228  1.00  0.00    -0.351 N 
HETATM   17  C   UNL     1       6.706  26.265  55.304  1.00  0.00     0.273 C 
HETATM   18  O   UNL     1       5.544  26.658  55.362  1.00  0.00    -0.266 OA
HETATM   19  H   UNL     1       8.595  26.212  56.057  1.00  0.00     0.163 HD
BRANCH  17  20
HETATM   20  C   UNL     1       7.207  25.373  54.244  1.00  0.00     0.157 A 
HETATM   21  N   UNL     1       7.474  25.839  53.003  1.00  0.00    -0.168 NA
HETATM   22  N   UNL     1       7.936  24.758  52.350  1.00  0.00    -0.277 N 
HETATM   23  H   UNL     1       8.220  24.865  51.383  1.00  0.00     0.189 HD
HETATM   24  C   UNL     1       7.963  23.613  53.095  1.00  0.00     0.063 A 
HETATM   25  C   UNL     1       7.485  23.978  54.347  1.00  0.00     0.029 A 
HETATM   26  C   UNL     1       8.365  22.311  52.781  1.00  0.00     0.032 A 
HETATM   27  C   UNL     1       7.386  22.994  55.350  1.00  0.00     0.023 A 
HETATM   28  C   UNL     1       7.771  21.672  55.064  1.00  0.00    -0.061 A 
HETATM   29  C   UNL     1       8.256  21.348  53.792  1.00  0.00     0.009 A 
HETATM   30  C   UNL     1       7.646  20.622  56.130  1.00  0.00     0.048 C 
ENDBRANCH  17  20
ENDBRANCH   1  16
TORSDOF 6
ENDMDL
MODEL 2
REMARK VINA RESULT:      -9.5      1.868      2.836
REMARK  6 active torsions:
REMARK  status: ('A' for Active; 'I' for Inactive)
REMARK    1  A    between atoms: C_2  and  C_3 
REMARK    2  A    between atoms: C_3  and  N_4 
REMARK       I    between atoms: N_4  and  C_5 
REMARK    3  A    between atoms: C_5  and  C_6 
REMARK    4  A    between atoms: C_8  and  C_9 
REMARK    5  A    between atoms: C_9  and  N_10 
REMARK       I    between atoms: N_10  and  C_11 
REMARK    6  A    between atoms: C_11  and  C_12 
ROOT
HETATM    1  C   UNL     1       7.198  28.205  55.136  1.00  0.00     0.161 C 
ENDROOT
BRANCH   1   2
HETATM    2  C   UNL     1       6.676  29.161  56.177  1.00  0.00    -0.040 A 
HETATM    3  C   UNL     1       7.554  29.715  57.122  1.00  0.00     0.026 A 
HETATM    4  C   UNL     1       7.084  30.592  58.107  1.00  0.00     0.032 A 
HETATM    5  C   UNL     1       5.733  30.947  58.131  1.00  0.00     0.017 A 
HETATM    6  C   UNL     1       4.850  30.395  57.201  1.00  0.00     0.002 A 
HETATM    7  C   UNL     1       5.317  29.498  56.236  1.00  0.00     0.009 A 
BRANCH   4   8
HETATM    8  C   UNL     1       8.000  31.171  59.126  1.00  0.00     0.252 C 
HETATM    9  N   UNL     1       7.786  30.758  60.425  1.00  0.00    -0.353 N 
HETATM   10  H   UNL     1       6.934  30.252  60.634  1.00  0.00     0.163 HD
HETATM   11  O   UNL     1       8.854  31.985  58.795  1.00  0.00    -0.268 OA
BRANCH   9  12
HETATM   12  C   UNL     1       8.545  31.299  61.544  1.00  0.00     0.080 C 
HETATM   13  C   UNL     1       9.431  30.211  62.146  1.00  0.00     0.032 C 
BRANCH  12  14
HETATM   14  C   UNL     1       7.635  31.964  62.593  1.00  0.00     0.020 C 
HETATM   15  C   UNL     1       6.855  33.171  62.087  1.00  0.00     0.007 C 
ENDBRANCH  12  14
ENDBRANCH   9  12
ENDBRANCH   4   8
ENDBRANCH   1   2
BRANCH   1  16
HETATM   16  N   UNL     1       7.575  26.938  55.701  1.00  0.00    -0.351 N 
HETATM   17  C   UNL     1       7.522  25.750  55.006  1.00  0.00     0.273 C 
HETATM   18  O   UNL     1       7.223  25.670  53.817  1.00  0.00    -0.266 OA
HETATM   19  H   UNL     1       7.844  26.863  56.677  1.00  0.00     0.163 HD
BRANCH  17  20
HETATM   20  C   UNL     1       7.847  24.580  55.839  1.00  0.00     0.157 A 
HETATM   21  N   UNL     1       8.020  24.696  57.175  1.00  0.00    -0.168 NA
HETATM   22  N   UNL     1       8.258  23.434  57.576  1.00  0.00    -0.277 N 
HETATM   23  H   UNL     1       8.410  23.264  58.563  1.00  0.00     0.189 HD
HETATM   24  C   UNL     1       8.268  22.511  56.568  1.00  0.00     0.063 A 
HETATM   25  C   UNL     1       8.006  23.230  55.409  1.00  0.00     0.029 A 
HETATM   26  C   UNL     1       8.478  21.129  56.579  1.00  0.00     0.032 A 
HETATM   27  C   UNL     1       7.959  22.542  54.180  1.00  0.00     0.023 A 
HETATM   28  C   UNL     1       8.176  21.153  54.154  1.00  0.00    -0.061 A 
HETATM   29  C   UNL     1       8.429  20.466  55.347  1.00  0.00     0.009 A 
HETATM   30  C   UNL     1       8.144  20.428  52.840  1.00  0.00     0.048 C 
ENDBRANCH  17  20
ENDBRANCH   1  16
TORSDOF 6
ENDMDL
MODEL 3
REMARK VINA RESULT:      -9.5      1.558      2.239
REMARK  6 active torsions:
REMARK  status: ('A' for Active; 'I' for Inactive)
REMARK    1  A    between atoms: C_2  and  C_3 
REMARK    2  A    between atoms: C_3  and  N_4 
REMARK       I    between atoms: N_4  and  C_5 
REMARK    3  A    between atoms: C_5  and  C_6 
REMARK    4  A    between atoms: C_8  and  C_9 
REMARK    5  A    between atoms: C_9  and  N_10 
REMARK       I    between atoms: N_10  and  C_11 
REMARK    6  A    between atoms: C_11  and  C_12 
ROOT
HETATM    1  C   UNL     1       7.343  27.948  56.422  1.00  0.00     0.161 C 
ENDROOT
BRANCH   1   2
HETATM    2  C   UNL     1       8.331  28.942  56.973  1.00  0.00    -0.040 A 
HETATM    3  C   UNL     1       7.933  29.847  57.968  1.00  0.00     0.026 A 
HETATM    4  C   UNL     1       8.832  30.789  58.480  1.00  0.00     0.032 A 
HETATM    5  C   UNL     1      10.152  30.809  58.020  1.00  0.00     0.017 A 
HETATM    6  C   UNL     1      10.556  29.919  57.024  1.00  0.00     0.002 A 
HETATM    7  C   UNL     1       9.648  28.998  56.495  1.00  0.00     0.009 A 
BRANCH   4   8
HETATM    8  C   UNL     1       8.418  31.767  59.523  1.00  0.00     0.252 C 
HETATM    9  N   UNL     1       7.266  31.449  60.215  1.00  0.00    -0.353 N 
HETATM   10  H   UNL     1       6.686  30.698  59.863  1.00  0.00     0.163 HD
HETATM   11  O   UNL     1       9.066  32.791  59.700  1.00  0.00    -0.268 OA
BRANCH   9  12
HETATM   12  C   UNL     1       6.688  32.346  61.206  1.00  0.00     0.080 C 
HETATM   13  C   UNL     1       6.636  31.653  62.566  1.00  0.00     0.032 C 
BRANCH  12  14
HETATM   14  C   UNL     1       5.314  32.883  60.767  1.00  0.00     0.020 C 
HETATM   15  C   UNL     1       4.700  32.164  59.573  1.00  0.00     0.007 C 
ENDBRANCH  12  14
ENDBRANCH   9  12
ENDBRANCH   4   8
ENDBRANCH   1   2
BRANCH   1  16
HETATM   16  N   UNL     1       7.708  26.591  56.725  1.00  0.00    -0.351 N 
HETATM   17  C   UNL     1       7.736  25.583  55.787  1.00  0.00     0.273 C 
HETATM   18  O   UNL     1       7.528  25.763  54.589  1.00  0.00    -0.266 OA
HETATM   19  H   UNL     1       7.907  26.307  57.679  1.00  0.00     0.163 HD
BRANCH  17  20
HETATM   20  C   UNL     1       8.028  24.262  56.368  1.00  0.00     0.157 A 
HETATM   21  N   UNL     1       8.278  24.117  57.689  1.00  0.00    -0.168 NA
HETATM   22  N   UNL     1       8.456  22.791  57.835  1.00  0.00    -0.277 N 
HETATM   23  H   UNL     1       8.648  22.431  58.763  1.00  0.00     0.189 HD
HETATM   24  C   UNL     1       8.353  22.073  56.677  1.00  0.00     0.063 A 
HETATM   25  C   UNL     1       8.077  23.010  55.688  1.00  0.00     0.029 A 
HETATM   26  C   UNL     1       8.473  20.705  56.420  1.00  0.00     0.032 A 
HETATM   27  C   UNL     1       7.922  22.568  54.360  1.00  0.00     0.023 A 
HETATM   28  C   UNL     1       8.047  21.199  54.065  1.00  0.00    -0.061 A 
HETATM   29  C   UNL     1       8.317  20.288  55.093  1.00  0.00     0.009 A 
HETATM   30  C   UNL     1       7.899  20.735  52.645  1.00  0.00     0.048 C 
ENDBRANCH  17  20
ENDBRANCH   1  16
TORSDOF 6
ENDMDL
MODEL 4
REMARK VINA RESULT:      -9.3      2.055     10.107
REMARK  6 active torsions:
REMARK  status: ('A' for Active; 'I' for Inactive)
REMARK    1  A    between atoms: C_2  and  C_3 
REMARK    2  A    between atoms: C_3  and  N_4 
REMARK       I    between atoms: N_4  and  C_5 
REMARK    3  A    between atoms: C_5  and  C_6 
REMARK    4  A    between atoms: C_8  and  C_9 
REMARK    5  A    between atoms: C_9  and  N_10 
REMARK       I    between atoms: N_10  and  C_11 
REMARK    6  A    between atoms: C_11  and  C_12 
ROOT
HETATM    1  C   UNL     1       7.462  29.114  56.933  1.00  0.00     0.161 C 
ENDROOT
BRANCH   1   2
HETATM    2  C   UNL     1       6.880  27.730  56.805  1.00  0.00    -0.040 A 
HETATM    3  C   UNL     1       7.706  26.654  56.447  1.00  0.00     0.026 A 
HETATM    4  C   UNL     1       7.179  25.364  56.307  1.00  0.00     0.032 A 
HETATM    5  C   UNL     1       5.823  25.138  56.559  1.00  0.00     0.017 A 
HETATM    6  C   UNL     1       4.992  26.204  56.906  1.00  0.00     0.002 A 
HETATM    7  C   UNL     1       5.515  27.496  57.018  1.00  0.00     0.009 A 
BRANCH   4   8
HETATM    8  C   UNL     1       8.040  24.217  55.911  1.00  0.00     0.252 C 
HETATM    9  N   UNL     1       7.477  23.329  55.017  1.00  0.00    -0.353 N 
HETATM   10  H   UNL     1       6.484  23.399  54.833  1.00  0.00     0.163 HD
HETATM   11  O   UNL     1       9.158  24.088  56.397  1.00  0.00    -0.268 OA
BRANCH   9  12
HETATM   12  C   UNL     1       8.161  22.114  54.598  1.00  0.00     0.080 C 
HETATM   13  C   UNL     1       7.983  21.908  53.096  1.00  0.00     0.032 C 
BRANCH  12  14
HETATM   14  C   UNL     1       7.717  20.889  55.417  1.00  0.00     0.020 C 
HETATM   15  C   UNL     1       8.502  20.663  56.703  1.00  0.00     0.007 C 
ENDBRANCH  12  14
ENDBRANCH   9  12
ENDBRANCH   4   8
ENDBRANCH   1   2
BRANCH   1  16
HETATM   16  N   UNL     1       7.703  29.479  58.302  1.00  0.00    -0.351 N 
HETATM   17  C   UNL     1       7.529  30.755  58.791  1.00  0.00     0.273 C 
HETATM   18  O   UNL     1       7.077  31.683  58.124  1.00  0.00    -0.266 OA
HETATM   19  H   UNL     1       8.078  28.805  58.962  1.00  0.00     0.163 HD
BRANCH  17  20
HETATM   20  C   UNL     1       7.953  30.898  60.193  1.00  0.00     0.157 A 
HETATM   21  N   UNL     1       8.891  30.084  60.730  1.00  0.00    -0.168 NA
HETATM   22  N   UNL     1       9.029  30.543  61.987  1.00  0.00    -0.277 N 
HETATM   23  H   UNL     1       9.703  30.089  62.593  1.00  0.00     0.189 HD
HETATM   24  C   UNL     1       8.218  31.598  62.299  1.00  0.00     0.063 A 
HETATM   25  C   UNL     1       7.490  31.855  61.144  1.00  0.00     0.029 A 
HETATM   26  C   UNL     1       8.067  32.335  63.477  1.00  0.00     0.032 A 
HETATM   27  C   UNL     1       6.546  32.900  61.156  1.00  0.00     0.023 A 
HETATM   28  C   UNL     1       6.362  33.656  62.328  1.00  0.00    -0.061 A 
HETATM   29  C   UNL     1       7.122  33.368  63.467  1.00  0.00     0.009 A 
HETATM   30  C   UNL     1       5.341  34.756  62.342  1.00  0.00     0.048 C 
ENDBRANCH  17  20
ENDBRANCH   1  16
TORSDOF 6
ENDMDL
MODEL 5
REMARK VINA RESULT:      -9.0      1.881      9.873
REMARK  6 active torsions:
REMARK  status: ('A' for Active; 'I' for Inactive)
REMARK    1  A    between atoms: C_2  and  C_3 
REMARK    2  A    between atoms: C_3  and  N_4 
REMARK       I    between atoms: N_4  and  C_5 
REMARK    3  A    between atoms: C_5  and  C_6 
REMARK    4  A    between atoms: C_8  and  C_9 
REMARK    5  A    between atoms: C_9  and  N_10 
REMARK       I    between atoms: N_10  and  C_11 
REMARK    6  A    between atoms: C_11  and  C_12 
ROOT
HETATM    1  C   UNL     1       8.018  28.073  57.874  1.00  0.00     0.161 C 
ENDROOT
BRANCH   1   2
HETATM    2  C   UNL     1       7.801  27.636  56.449  1.00  0.00    -0.040 A 
HETATM    3  C   UNL     1       7.525  26.290  56.164  1.00  0.00     0.026 A 
HETATM    4  C   UNL     1       7.337  25.861  54.845  1.00  0.00     0.032 A 
HETATM    5  C   UNL     1       7.390  26.789  53.801  1.00  0.00     0.017 A 
HETATM    6  C   UNL     1       7.672  28.129  54.073  1.00  0.00     0.002 A 
HETATM    7  C   UNL     1       7.887  28.549  55.389  1.00  0.00     0.009 A 
BRANCH   4   8
HETATM    8  C   UNL     1       7.063  24.433  54.528  1.00  0.00     0.252 C 
HETATM    9  N   UNL     1       7.880  23.515  55.155  1.00  0.00    -0.353 N 
HETATM   10  H   UNL     1       8.708  23.854  55.630  1.00  0.00     0.163 HD
HETATM   11  O   UNL     1       6.182  24.138  53.729  1.00  0.00    -0.268 OA
BRANCH   9  12
HETATM   12  C   UNL     1       7.791  22.087  54.883  1.00  0.00     0.080 C 
HETATM   13  C   UNL     1       8.079  21.296  56.156  1.00  0.00     0.032 C 
BRANCH  12  14
HETATM   14  C   UNL     1       8.695  21.665  53.711  1.00  0.00     0.020 C 
HETATM   15  C   UNL     1       8.138  20.537  52.851  1.00  0.00     0.007 C 
ENDBRANCH  12  14
ENDBRANCH   9  12
ENDBRANCH   4   8
ENDBRANCH   1   2
BRANCH   1  16
HETATM   16  N   UNL     1       7.294  29.274  58.192  1.00  0.00    -0.351 N 
HETATM   17  C   UNL     1       7.900  30.488  58.427  1.00  0.00     0.273 C 
HETATM   18  O   UNL     1       9.108  30.679  58.311  1.00  0.00    -0.266 OA
HETATM   19  H   UNL     1       6.286  29.255  58.317  1.00  0.00     0.163 HD
BRANCH  17  20
HETATM   20  C   UNL     1       6.952  31.533  58.847  1.00  0.00     0.157 A 
HETATM   21  N   UNL     1       6.024  32.023  57.994  1.00  0.00    -0.168 NA
HETATM   22  N   UNL     1       5.341  32.910  58.741  1.00  0.00    -0.277 N 
HETATM   23  H   UNL     1       4.570  33.407  58.312  1.00  0.00     0.189 HD
HETATM   24  C   UNL     1       5.789  33.033  60.026  1.00  0.00     0.063 A 
HETATM   25  C   UNL     1       6.853  32.146  60.131  1.00  0.00     0.029 A 
HETATM   26  C   UNL     1       5.355  33.833  61.087  1.00  0.00     0.032 A 
HETATM   27  C   UNL     1       7.539  32.051  61.358  1.00  0.00     0.023 A 
HETATM   28  C   UNL     1       7.134  32.849  62.443  1.00  0.00    -0.061 A 
HETATM   29  C   UNL     1       6.051  33.724  62.296  1.00  0.00     0.009 A 
HETATM   30  C   UNL     1       7.879  32.758  63.743  1.00  0.00     0.048 C 
ENDBRANCH  17  20
ENDBRANCH   1  16
TORSDOF 6
ENDMDL
MODEL 6
REMARK VINA RESULT:      -8.9      2.073      9.626
REMARK  6 active torsions:
REMARK  status: ('A' for Active; 'I' for Inactive)
REMARK    1  A    between atoms: C_2  and  C_3 
REMARK    2  A    between atoms: C_3  and  N_4 
REMARK       I    between atoms: N_4  and  C_5 
REMARK    3  A    between atoms: C_5  and  C_6 
REMARK    4  A    between atoms: C_8  and  C_9 
REMARK    5  A    between atoms: C_9  and  N_10 
REMARK       I    between atoms: N_10  and  C_11 
REMARK    6  A    between atoms: C_11  and  C_12 
ROOT
HETATM    1  C   UNL     1       4.846  30.215  57.492  1.00  0.00     0.161 C 
ENDROOT
BRANCH   1   2
HETATM    2  C   UNL     1       5.915  29.163  57.353  1.00  0.00    -0.040 A 
HETATM    3  C   UNL     1       5.596  27.909  56.810  1.00  0.00     0.026 A 
HETATM    4  C   UNL     1       6.571  26.913  56.688  1.00  0.00     0.032 A 
HETATM    5  C   UNL     1       7.886  27.179  57.081  1.00  0.00     0.017 A 
HETATM    6  C   UNL     1       8.212  28.420  57.631  1.00  0.00     0.002 A 
HETATM    7  C   UNL     1       7.229  29.404  57.776  1.00  0.00     0.009 A 
BRANCH   4   8
HETATM    8  C   UNL     1       6.243  25.573  56.131  1.00  0.00     0.252 C 
HETATM    9  N   UNL     1       7.093  25.110  55.147  1.00  0.00    -0.353 N 
HETATM   10  H   UNL     1       7.755  25.760  54.741  1.00  0.00     0.163 HD
HETATM   11  O   UNL     1       5.252  24.968  56.525  1.00  0.00    -0.268 OA
BRANCH   9  12
HETATM   12  C   UNL     1       6.856  23.856  54.447  1.00  0.00     0.080 C 
HETATM   13  C   UNL     1       7.786  22.774  54.990  1.00  0.00     0.032 C 
BRANCH  12  14
HETATM   14  C   UNL     1       6.967  24.015  52.920  1.00  0.00     0.020 C 
HETATM   15  C   UNL     1       7.930  25.104  52.462  1.00  0.00     0.007 C 
ENDBRANCH  12  14
ENDBRANCH   9  12
ENDBRANCH   4   8
ENDBRANCH   1   2
BRANCH   1  16
HETATM   16  N   UNL     1       5.025  31.023  58.668  1.00  0.00    -0.351 N 
HETATM   17  C   UNL     1       5.416  32.343  58.632  1.00  0.00     0.273 C 
HETATM   18  O   UNL     1       5.573  32.978  57.591  1.00  0.00    -0.266 OA
HETATM   19  H   UNL     1       4.925  30.621  59.595  1.00  0.00     0.163 HD
BRANCH  17  20
HETATM   20  C   UNL     1       5.642  32.914  59.970  1.00  0.00     0.157 A 
HETATM   21  N   UNL     1       4.886  33.934  60.434  1.00  0.00    -0.168 NA
HETATM   22  N   UNL     1       5.361  34.144  61.675  1.00  0.00    -0.277 N 
HETATM   23  H   UNL     1       4.932  34.869  62.239  1.00  0.00     0.189 HD
HETATM   24  C   UNL     1       6.398  33.327  62.031  1.00  0.00     0.063 A 
HETATM   25  C   UNL     1       6.615  32.508  60.931  1.00  0.00     0.029 A 
HETATM   26  C   UNL     1       7.148  33.239  63.208  1.00  0.00     0.032 A 
HETATM   27  C   UNL     1       7.644  31.548  60.991  1.00  0.00     0.023 A 
HETATM   28  C   UNL     1       8.424  31.440  62.157  1.00  0.00    -0.061 A 
HETATM   29  C   UNL     1       8.166  32.280  63.246  1.00  0.00     0.009 A 
HETATM   30  C   UNL     1       9.532  30.428  62.210  1.00  0.00     0.048 C 
ENDBRANCH  17  20
ENDBRANCH   1  16
TORSDOF 6
ENDMDL
MODEL 7
REMARK VINA RESULT:      -8.9      2.119      2.811
REMARK  6 active torsions:
REMARK  status: ('A' for Active; 'I' for Inactive)
REMARK    1  A    between atoms: C_2  and  C_3 
REMARK    2  A    between atoms: C_3  and  N_4 
REMARK       I    between atoms: N_4  and  C_5 
REMARK    3  A    between atoms: C_5  and  C_6 
REMARK    4  A    between atoms: C_8  and  C_9 
REMARK    5  A    between atoms: C_9  and  N_10 
REMARK       I    between atoms: N_10  and  C_11 
REMARK    6  A    between atoms: C_11  and  C_12 
ROOT
HETATM    1  C   UNL     1       5.070  26.784  56.968  1.00  0.00     0.161 C 
ENDROOT
BRANCH   1   2
HETATM    2  C   UNL     1       5.027  28.241  56.586  1.00  0.00    -0.040 A 
HETATM    3  C   UNL     1       5.612  29.201  57.425  1.00  0.00     0.026 A 
HETATM    4  C   UNL     1       5.567  30.561  57.095  1.00  0.00     0.032 A 
HETATM    5  C   UNL     1       4.963  30.965  55.902  1.00  0.00     0.017 A 
HETATM    6  C   UNL     1       4.370  30.018  55.065  1.00  0.00     0.002 A 
HETATM    7  C   UNL     1       4.392  28.664  55.411  1.00  0.00     0.009 A 
BRANCH   4   8
HETATM    8  C   UNL     1       6.168  31.592  57.985  1.00  0.00     0.252 C 
HETATM    9  N   UNL     1       7.038  31.118  58.945  1.00  0.00    -0.353 N 
HETATM   10  H   UNL     1       7.074  30.120  59.110  1.00  0.00     0.163 HD
HETATM   11  O   UNL     1       5.856  32.770  57.860  1.00  0.00    -0.268 OA
BRANCH   9  12
HETATM   12  C   UNL     1       7.640  31.993  59.942  1.00  0.00     0.080 C 
HETATM   13  C   UNL     1       9.153  32.045  59.741  1.00  0.00     0.032 C 
BRANCH  12  14
HETATM   14  C   UNL     1       7.250  31.590  61.376  1.00  0.00     0.020 C 
HETATM   15  C   UNL     1       8.299  31.908  62.434  1.00  0.00     0.007 C 
ENDBRANCH  12  14
ENDBRANCH   9  12
ENDBRANCH   4   8
ENDBRANCH   1   2
BRANCH   1  16
HETATM   16  N   UNL     1       5.672  25.971  55.947  1.00  0.00    -0.351 N 
HETATM   17  C   UNL     1       7.029  25.920  55.717  1.00  0.00     0.273 C 
HETATM   18  O   UNL     1       7.859  26.503  56.411  1.00  0.00    -0.266 OA
HETATM   19  H   UNL     1       5.099  25.436  55.303  1.00  0.00     0.163 HD
BRANCH  17  20
HETATM   20  C   UNL     1       7.385  25.105  54.543  1.00  0.00     0.157 A 
HETATM   21  N   UNL     1       7.550  25.666  53.324  1.00  0.00    -0.168 NA
HETATM   22  N   UNL     1       7.899  24.629  52.541  1.00  0.00    -0.277 N 
HETATM   23  H   UNL     1       8.091  24.809  51.562  1.00  0.00     0.189 HD
HETATM   24  C   UNL     1       7.949  23.424  53.184  1.00  0.00     0.063 A 
HETATM   25  C   UNL     1       7.611  23.698  54.503  1.00  0.00     0.029 A 
HETATM   26  C   UNL     1       8.261  22.141  52.726  1.00  0.00     0.032 A 
HETATM   27  C   UNL     1       7.568  22.635  55.427  1.00  0.00     0.023 A 
HETATM   28  C   UNL     1       7.866  21.330  54.997  1.00  0.00    -0.061 A 
HETATM   29  C   UNL     1       8.210  21.100  53.660  1.00  0.00     0.009 A 
HETATM   30  C   UNL     1       7.800  20.197  55.981  1.00  0.00     0.048 C 
ENDBRANCH  17  20
ENDBRANCH   1  16
TORSDOF 6
ENDMDL
MODEL 8
REMARK VINA RESULT:      -8.7      3.767      6.672
REMARK  6 active torsions:
REMARK  status: ('A' for Active; 'I' for Inactive)
REMARK    1  A    between atoms: C_2  and  C_3 
REMARK    2  A    between atoms: C_3  and  N_4 
REMARK       I    between atoms: N_4  and  C_5 
REMARK    3  A    between atoms: C_5  and  C_6 
REMARK    4  A    between atoms: C_8  and  C_9 
REMARK    5  A    between atoms: C_9  and  N_10 
REMARK       I    between atoms: N_10  and  C_11 
REMARK    6  A    between atoms: C_11  and  C_12 
ROOT
HETATM    1  C   UNL     1       7.742  23.759  52.711  1.00  0.00     0.161 C 
ENDROOT
BRANCH   1   2
HETATM    2  C   UNL     1       7.930  23.622  54.200  1.00  0.00    -0.040 A 
HETATM    3  C   UNL     1       7.919  24.764  55.015  1.00  0.00     0.026 A 
HETATM    4  C   UNL     1       8.108  24.658  56.397  1.00  0.00     0.032 A 
HETATM    5  C   UNL     1       8.276  23.399  56.979  1.00  0.00     0.017 A 
HETATM    6  C   UNL     1       8.298  22.257  56.177  1.00  0.00     0.002 A 
HETATM    7  C   UNL     1       8.136  22.369  54.793  1.00  0.00     0.009 A 
BRANCH   4   8
HETATM    8  C   UNL     1       8.117  25.863  57.271  1.00  0.00     0.252 C 
HETATM    9  N   UNL     1       8.295  27.069  56.623  1.00  0.00    -0.353 N 
HETATM   10  H   UNL     1       8.587  27.054  55.653  1.00  0.00     0.163 HD
HETATM   11  O   UNL     1       8.006  25.745  58.485  1.00  0.00    -0.268 OA
BRANCH   9  12
HETATM   12  C   UNL     1       8.411  28.327  57.347  1.00  0.00     0.080 C 
HETATM   13  C   UNL     1       7.067  29.051  57.347  1.00  0.00     0.032 C 
BRANCH  12  14
HETATM   14  C   UNL     1       9.553  29.205  56.804  1.00  0.00     0.020 C 
HETATM   15  C   UNL     1      10.064  30.259  57.777  1.00  0.00     0.007 C 
ENDBRANCH  12  14
ENDBRANCH   9  12
ENDBRANCH   4   8
ENDBRANCH   1   2
BRANCH   1  16
HETATM   16  N   UNL     1       7.243  25.055  52.342  1.00  0.00    -0.351 N 
HETATM   17  C   UNL     1       5.903  25.342  52.201  1.00  0.00     0.273 C 
HETATM   18  O   UNL     1       5.006  24.541  52.452  1.00  0.00    -0.266 OA
HETATM   19  H   UNL     1       7.879  25.811  52.108  1.00  0.00     0.163 HD
BRANCH  17  20
HETATM   20  C   UNL     1       5.655  26.706  51.703  1.00  0.00     0.157 A 
HETATM   21  N   UNL     1       6.030  27.792  52.415  1.00  0.00    -0.168 NA
HETATM   22  N   UNL     1       5.675  28.826  51.631  1.00  0.00    -0.277 N 
HETATM   23  H   UNL     1       5.871  29.765  51.955  1.00  0.00     0.189 HD
HETATM   24  C   UNL     1       5.073  28.467  50.457  1.00  0.00     0.063 A 
HETATM   25  C   UNL     1       5.037  27.078  50.473  1.00  0.00     0.029 A 
HETATM   26  C   UNL     1       4.569  29.232  49.402  1.00  0.00     0.032 A 
HETATM   27  C   UNL     1       4.457  26.402  49.381  1.00  0.00     0.023 A 
HETATM   28  C   UNL     1       3.931  27.142  48.307  1.00  0.00    -0.061 A 
HETATM   29  C   UNL     1       3.995  28.540  48.328  1.00  0.00     0.009 A 
HETATM   30  C   UNL     1       3.297  26.418  47.155  1.00  0.00     0.048 C 
ENDBRANCH  17  20
ENDBRANCH   1  16
TORSDOF 6
ENDMDL
MODEL 9
REMARK VINA RESULT:      -8.6      1.755     10.174
REMARK  6 active torsions:
REMARK  status: ('A' for Active; 'I' for Inactive)
REMARK    1  A    between atoms: C_2  and  C_3 
REMARK    2  A    between atoms: C_3  and  N_4 
REMARK       I    between atoms: N_4  and  C_5 
REMARK    3  A    between atoms: C_5  and  C_6 
REMARK    4  A    between atoms: C_8  and  C_9 
REMARK    5  A    between atoms: C_9  and  N_10 
REMARK       I    between atoms: N_10  and  C_11 
REMARK    6  A    between atoms: C_11  and  C_12 
ROOT
HETATM    1  C   UNL     1       8.367  29.775  58.593  1.00  0.00     0.161 C 
ENDROOT
BRANCH   1   2
HETATM    2  C   UNL     1       7.194  29.150  57.884  1.00  0.00    -0.040 A 
HETATM    3  C   UNL     1       7.211  27.782  57.575  1.00  0.00     0.026 A 
HETATM    4  C   UNL     1       6.137  27.187  56.902  1.00  0.00     0.032 A 
HETATM    5  C   UNL     1       5.021  27.956  56.561  1.00  0.00     0.017 A 
HETATM    6  C   UNL     1       4.998  29.320  56.856  1.00  0.00     0.002 A 
HETATM    7  C   UNL     1       6.084  29.917  57.504  1.00  0.00     0.009 A 
BRANCH   4   8
HETATM    8  C   UNL     1       6.150  25.740  56.552  1.00  0.00     0.252 C 
HETATM    9  N   UNL     1       7.189  25.332  55.740  1.00  0.00    -0.353 N 
HETATM   10  H   UNL     1       7.755  26.041  55.291  1.00  0.00     0.163 HD
HETATM   11  O   UNL     1       5.258  25.002  56.951  1.00  0.00    -0.268 OA
BRANCH   9  12
HETATM   12  C   UNL     1       7.292  23.967  55.244  1.00  0.00     0.080 C 
HETATM   13  C   UNL     1       8.707  23.438  55.466  1.00  0.00     0.032 C 
BRANCH  12  14
HETATM   14  C   UNL     1       6.844  23.850  53.776  1.00  0.00     0.020 C 
HETATM   15  C   UNL     1       7.974  23.612  52.782  1.00  0.00     0.007 C 
ENDBRANCH  12  14
ENDBRANCH   9  12
ENDBRANCH   4   8
ENDBRANCH   1   2
BRANCH   1  16
HETATM   16  N   UNL     1       7.982  30.421  59.818  1.00  0.00    -0.351 N 
HETATM   17  C   UNL     1       8.265  31.738  60.106  1.00  0.00     0.273 C 
HETATM   18  O   UNL     1       8.804  32.506  59.313  1.00  0.00    -0.266 OA
HETATM   19  H   UNL     1       7.527  29.898  60.561  1.00  0.00     0.163 HD
BRANCH  17  20
HETATM   20  C   UNL     1       7.869  32.128  61.469  1.00  0.00     0.157 A 
HETATM   21  N   UNL     1       8.737  32.045  62.503  1.00  0.00    -0.168 NA
HETATM   22  N   UNL     1       8.033  32.516  63.548  1.00  0.00    -0.277 N 
HETATM   23  H   UNL     1       8.488  32.564  64.452  1.00  0.00     0.189 HD
HETATM   24  C   UNL     1       6.750  32.881  63.250  1.00  0.00     0.063 A 
HETATM   25  C   UNL     1       6.604  32.634  61.891  1.00  0.00     0.029 A 
HETATM   26  C   UNL     1       5.725  33.400  64.046  1.00  0.00     0.032 A 
HETATM   27  C   UNL     1       5.364  32.907  61.281  1.00  0.00     0.023 A 
HETATM   28  C   UNL     1       4.308  33.421  62.054  1.00  0.00    -0.061 A 
HETATM   29  C   UNL     1       4.500  33.663  63.420  1.00  0.00     0.009 A 
HETATM   30  C   UNL     1       2.983  33.693  61.404  1.00  0.00     0.048 C 
ENDBRANCH  17  20
ENDBRANCH   1  16
TORSDOF 6
ENDMDL
MODEL 10
REMARK VINA RESULT:      -8.5      3.079      9.151
REMARK  6 active torsions:
REMARK  status: ('A' for Active; 'I' for Inactive)
REMARK    1  A    between atoms: C_2  and  C_3 
REMARK    2  A    between atoms: C_3  and  N_4 
REMARK       I    between atoms: N_4  and  C_5 
REMARK    3  A    between atoms: C_5  and  C_6 
REMARK    4  A    between atoms: C_8  and  C_9 
REMARK    5  A    between atoms: C_9  and  N_10 
REMARK       I    between atoms: N_10  and  C_11 
REMARK    6  A    between atoms: C_11  and  C_12 
ROOT
HETATM    1  C   UNL     1       6.955  25.583  56.246  1.00  0.00     0.161 C 
ENDROOT
BRANCH   1   2
HETATM    2  C   UNL     1       7.031  25.408  54.751  1.00  0.00    -0.040 A 
HETATM    3  C   UNL     1       6.195  26.164  53.915  1.00  0.00     0.026 A 
HETATM    4  C   UNL     1       6.240  26.003  52.525  1.00  0.00     0.032 A 
HETATM    5  C   UNL     1       7.150  25.104  51.961  1.00  0.00     0.017 A 
HETATM    6  C   UNL     1       7.979  24.342  52.784  1.00  0.00     0.002 A 
HETATM    7  C   UNL     1       7.913  24.485  54.173  1.00  0.00     0.009 A 
BRANCH   4   8
HETATM    8  C   UNL     1       5.347  26.784  51.627  1.00  0.00     0.252 C 
HETATM    9  N   UNL     1       5.619  26.682  50.278  1.00  0.00    -0.353 N 
HETATM   10  H   UNL     1       6.490  26.251  49.995  1.00  0.00     0.163 HD
HETATM   11  O   UNL     1       4.461  27.487  52.099  1.00  0.00    -0.268 OA
BRANCH   9  12
HETATM   12  C   UNL     1       4.887  27.451  49.281  1.00  0.00     0.080 C 
HETATM   13  C   UNL     1       4.453  26.538  48.137  1.00  0.00     0.032 C 
BRANCH  12  14
HETATM   14  C   UNL     1       5.687  28.671  48.790  1.00  0.00     0.020 C 
HETATM   15  C   UNL     1       5.689  29.858  49.745  1.00  0.00     0.007 C 
ENDBRANCH  12  14
ENDBRANCH   9  12
ENDBRANCH   4   8
ENDBRANCH   1   2
BRANCH   1  16
HETATM   16  N   UNL     1       7.818  26.632  56.717  1.00  0.00    -0.351 N 
HETATM   17  C   UNL     1       7.371  27.888  57.061  1.00  0.00     0.273 C 
HETATM   18  O   UNL     1       6.185  28.209  57.073  1.00  0.00    -0.266 OA
HETATM   19  H   UNL     1       8.824  26.498  56.756  1.00  0.00     0.163 HD
BRANCH  17  20
HETATM   20  C   UNL     1       8.464  28.816  57.400  1.00  0.00     0.157 A 
HETATM   21  N   UNL     1       9.698  28.670  56.867  1.00  0.00    -0.168 NA
HETATM   22  N   UNL     1      10.389  29.707  57.376  1.00  0.00    -0.277 N 
HETATM   23  H   UNL     1      11.359  29.819  57.104  1.00  0.00     0.189 HD
HETATM   24  C   UNL     1       9.673  30.504  58.225  1.00  0.00     0.063 A 
HETATM   25  C   UNL     1       8.402  29.944  58.269  1.00  0.00     0.029 A 
HETATM   26  C   UNL     1      10.027  31.650  58.941  1.00  0.00     0.032 A 
HETATM   27  C   UNL     1       7.422  30.549  59.081  1.00  0.00     0.023 A 
HETATM   28  C   UNL     1       7.749  31.698  59.823  1.00  0.00    -0.061 A 
HETATM   29  C   UNL     1       9.039  32.234  59.743  1.00  0.00     0.009 A 
HETATM   30  C   UNL     1       6.707  32.328  60.702  1.00  0.00     0.048 C 
ENDBRANCH  17  20
ENDBRANCH   1  16
TORSDOF 6
ENDMDL
