MODEL 1
REMARK VINA RESULT:      -9.2      0.000      0.000
REMARK  5 active torsions:
REMARK  status: ('A' for Active; 'I' for Inactive)
REMARK    1  A    between atoms: C_6  and  C_7 
REMARK       I    between atoms: C_7  and  N_8 
REMARK    2  A    between atoms: N_8  and  C_9 
REMARK    3  A    between atoms: C_16  and  C_17 
REMARK    4  A    between atoms: C_23  and  C_24 
REMARK       I    between atoms: C_24  and  N_25 
REMARK    5  A    between atoms: N_25  and  C_26 
ROOT
HETATM    1  C   UNL     1       4.957  26.247  52.178  1.00  0.00     0.069 C 
HETATM    2  C   UNL     1       4.923  27.247  53.308  1.00  0.00     0.018 C 
HETATM    3  N   UNL     1       4.470  28.517  52.978  1.00  0.00    -0.362 N 
HETATM    4  C   UNL     1       4.198  29.512  53.906  1.00  0.00     0.018 C 
HETATM    5  C   UNL     1       3.488  30.732  53.381  1.00  0.00     0.069 C 
HETATM    6  C   UNL     1       4.545  29.323  55.198  1.00  0.00     0.045 C 
HETATM    7  C   UNL     1       5.227  28.045  55.671  1.00  0.00     0.101 C 
HETATM    8  C   UNL     1       5.279  26.972  54.583  1.00  0.00     0.045 C 
HETATM    9  H   UNL     1       4.112  28.652  52.034  1.00  0.00     0.165 HD
ENDROOT
BRANCH   6  10
HETATM   10  C   UNL     1       4.068  30.270  56.237  1.00  0.00     0.255 C 
HETATM   11  N   UNL     1       4.966  31.278  56.500  1.00  0.00    -0.323 N 
HETATM   12  H   UNL     1       5.861  31.242  56.023  1.00  0.00     0.169 HD
HETATM   13  O   UNL     1       2.982  30.073  56.768  1.00  0.00    -0.268 OA
BRANCH  11  14
HETATM   14  C   UNL     1       4.822  32.320  57.438  1.00  0.00     0.035 A 
HETATM   15  C   UNL     1       4.394  33.607  57.109  1.00  0.00     0.029 A 
HETATM   16  C   UNL     1       4.284  34.590  58.099  1.00  0.00     0.002 A 
HETATM   17  C   UNL     1       4.591  34.289  59.424  1.00  0.00     0.000 A 
HETATM   18  C   UNL     1       5.015  33.006  59.761  1.00  0.00     0.002 A 
HETATM   19  C   UNL     1       5.138  32.028  58.772  1.00  0.00     0.029 A 
ENDBRANCH  11  14
ENDBRANCH   6  10
BRANCH   7  20
HETATM   20  C   UNL     1       6.610  28.337  56.236  1.00  0.00    -0.027 A 
HETATM   21  C   UNL     1       6.899  28.090  57.577  1.00  0.00     0.124 A 
HETATM   22  N   UNL     1       8.083  28.375  58.163  1.00  0.00    -0.273 NA
HETATM   23  C   UNL     1       9.042  28.907  57.376  1.00  0.00     0.116 A 
HETATM   24  C   UNL     1       8.863  29.192  56.034  1.00  0.00     0.020 A 
HETATM   25  C   UNL     1       7.628  28.910  55.460  1.00  0.00     0.011 A 
ENDBRANCH   7  20
BRANCH   8  26
HETATM   26  C   UNL     1       5.844  25.638  54.937  1.00  0.00     0.255 C 
HETATM   27  N   UNL     1       6.883  25.254  54.116  1.00  0.00    -0.323 N 
HETATM   28  H   UNL     1       7.171  25.897  53.391  1.00  0.00     0.169 HD
HETATM   29  O   UNL     1       5.368  25.010  55.876  1.00  0.00    -0.268 OA
BRANCH  27  30
HETATM   30  C   UNL     1       7.619  24.051  54.180  1.00  0.00     0.035 A 
HETATM   31  C   UNL     1       8.492  23.724  55.219  1.00  0.00     0.029 A 
HETATM   32  C   UNL     1       9.193  22.513  55.202  1.00  0.00     0.002 A 
HETATM   33  C   UNL     1       9.020  21.616  54.151  1.00  0.00     0.000 A 
HETATM   34  C   UNL     1       8.149  21.930  53.112  1.00  0.00     0.002 A 
HETATM   35  C   UNL     1       7.457  23.145  53.124  1.00  0.00     0.029 A 
ENDBRANCH  27  30
ENDBRANCH   8  26
TORSDOF 5
ENDMDL
MODEL 2
REMARK VINA RESULT:      -9.0      2.548      3.973
REMARK  5 active torsions:
REMARK  status: ('A' for Active; 'I' for Inactive)
REMARK    1  A    between atoms: C_6  and  C_7 
REMARK       I    between atoms: C_7  and  N_8 
REMARK    2  A    between atoms: N_8  and  C_9 
REMARK    3  A    between atoms: C_16  and  C_17 
REMARK    4  A    between atoms: C_23  and  C_24 
REMARK       I    between atoms: C_24  and  N_25 
REMARK    5  A    between atoms: N_25  and  C_26 
ROOT
HETATM    1  C   UNL     1       3.852  29.312  55.224  1.00  0.00     0.069 C 
HETATM    2  C   UNL     1       4.841  29.885  56.208  1.00  0.00     0.018 C 
HETATM    3  N   UNL     1       4.727  31.246  56.457  1.00  0.00    -0.362 N 
HETATM    4  C   UNL     1       5.420  31.916  57.455  1.00  0.00     0.018 C 
HETATM    5  C   UNL     1       4.986  33.332  57.728  1.00  0.00     0.069 C 
HETATM    6  C   UNL     1       6.395  31.268  58.130  1.00  0.00     0.045 C 
HETATM    7  C   UNL     1       6.759  29.819  57.830  1.00  0.00     0.101 C 
HETATM    8  C   UNL     1       5.785  29.162  56.853  1.00  0.00     0.045 C 
HETATM    9  H   UNL     1       3.939  31.732  56.033  1.00  0.00     0.165 HD
ENDROOT
BRANCH   6  10
HETATM   10  C   UNL     1       6.992  31.888  59.341  1.00  0.00     0.255 C 
HETATM   11  N   UNL     1       6.266  31.644  60.484  1.00  0.00    -0.323 N 
HETATM   12  H   UNL     1       5.393  31.138  60.382  1.00  0.00     0.169 HD
HETATM   13  O   UNL     1       8.013  32.554  59.227  1.00  0.00    -0.268 OA
BRANCH  11  14
HETATM   14  C   UNL     1       6.554  32.102  61.785  1.00  0.00     0.035 A 
HETATM   15  C   UNL     1       7.845  32.204  62.305  1.00  0.00     0.029 A 
HETATM   16  C   UNL     1       8.047  32.661  63.611  1.00  0.00     0.002 A 
HETATM   17  C   UNL     1       6.961  33.029  64.402  1.00  0.00     0.000 A 
HETATM   18  C   UNL     1       5.670  32.933  63.891  1.00  0.00     0.002 A 
HETATM   19  C   UNL     1       5.466  32.465  62.591  1.00  0.00     0.029 A 
ENDBRANCH  11  14
ENDBRANCH   6  10
BRANCH   7  20
HETATM   20  C   UNL     1       8.199  29.703  57.349  1.00  0.00    -0.027 A 
HETATM   21  C   UNL     1       9.259  29.797  58.248  1.00  0.00     0.124 A 
HETATM   22  N   UNL     1      10.562  29.759  57.890  1.00  0.00    -0.273 NA
HETATM   23  C   UNL     1      10.832  29.592  56.578  1.00  0.00     0.116 A 
HETATM   24  C   UNL     1       9.856  29.487  55.602  1.00  0.00     0.020 A 
HETATM   25  C   UNL     1       8.523  29.551  55.994  1.00  0.00     0.011 A 
ENDBRANCH   7  20
BRANCH   8  26
HETATM   26  C   UNL     1       5.972  27.716  56.538  1.00  0.00     0.255 C 
HETATM   27  N   UNL     1       6.230  27.482  55.203  1.00  0.00    -0.323 N 
HETATM   28  H   UNL     1       6.288  28.282  54.588  1.00  0.00     0.169 HD
HETATM   29  O   UNL     1       5.884  26.885  57.434  1.00  0.00    -0.268 OA
BRANCH  27  30
HETATM   30  C   UNL     1       6.443  26.231  54.585  1.00  0.00     0.035 A 
HETATM   31  C   UNL     1       5.560  25.649  53.674  1.00  0.00     0.029 A 
HETATM   32  C   UNL     1       5.842  24.399  53.112  1.00  0.00     0.002 A 
HETATM   33  C   UNL     1       7.013  23.725  53.449  1.00  0.00     0.000 A 
HETATM   34  C   UNL     1       7.903  24.298  54.353  1.00  0.00     0.002 A 
HETATM   35  C   UNL     1       7.616  25.542  54.922  1.00  0.00     0.029 A 
ENDBRANCH  27  30
ENDBRANCH   8  26
TORSDOF 5
ENDMDL
MODEL 3
REMARK VINA RESULT:      -8.9      4.531      8.413
REMARK  5 active torsions:
REMARK  status: ('A' for Active; 'I' for Inactive)
REMARK    1  A    between atoms: C_6  and  C_7 
REMARK       I    between atoms: C_7  and  N_8 
REMARK    2  A    between atoms: N_8  and  C_9 
REMARK    3  A    between atoms: C_16  and  C_17 
REMARK    4  A    between atoms: C_23  and  C_24 
REMARK       I    between atoms: C_24  and  N_25 
REMARK    5  A    between atoms: N_25  and  C_26 
ROOT
HETATM    1  C   UNL     1       9.403  30.781  62.292  1.00  0.00     0.069 C 
HETATM    2  C   UNL     1       8.339  31.848  62.359  1.00  0.00     0.018 C 
HETATM    3  N   UNL     1       7.958  32.243  63.635  1.00  0.00    -0.362 N 
HETATM    4  C   UNL     1       7.134  33.327  63.900  1.00  0.00     0.018 C 
HETATM    5  C   UNL     1       7.030  33.743  65.344  1.00  0.00     0.069 C 
HETATM    6  C   UNL     1       6.513  33.952  62.875  1.00  0.00     0.045 C 
HETATM    7  C   UNL     1       6.692  33.503  61.430  1.00  0.00     0.101 C 
HETATM    8  C   UNL     1       7.774  32.434  61.279  1.00  0.00     0.045 C 
HETATM    9  H   UNL     1       8.481  31.855  64.417  1.00  0.00     0.165 HD
ENDROOT
BRANCH   6  10
HETATM   10  C   UNL     1       5.811  35.239  63.111  1.00  0.00     0.255 C 
HETATM   11  N   UNL     1       6.401  36.301  62.466  1.00  0.00    -0.323 N 
HETATM   12  H   UNL     1       7.264  36.120  61.964  1.00  0.00     0.169 HD
HETATM   13  O   UNL     1       4.830  35.256  63.844  1.00  0.00    -0.268 OA
BRANCH  11  14
HETATM   14  C   UNL     1       5.991  37.649  62.500  1.00  0.00     0.035 A 
HETATM   15  C   UNL     1       6.351  38.545  63.508  1.00  0.00     0.029 A 
HETATM   16  C   UNL     1       5.896  39.866  63.475  1.00  0.00     0.002 A 
HETATM   17  C   UNL     1       5.085  40.304  62.430  1.00  0.00     0.000 A 
HETATM   18  C   UNL     1       4.723  39.417  61.419  1.00  0.00     0.002 A 
HETATM   19  C   UNL     1       5.167  38.093  61.458  1.00  0.00     0.029 A 
ENDBRANCH  11  14
ENDBRANCH   6  10
BRANCH   7  20
HETATM   20  C   UNL     1       5.369  33.050  60.828  1.00  0.00    -0.027 A 
HETATM   21  C   UNL     1       4.536  32.172  61.519  1.00  0.00     0.124 A 
HETATM   22  N   UNL     1       3.377  31.682  61.028  1.00  0.00    -0.273 NA
HETATM   23  C   UNL     1       3.006  32.103  59.800  1.00  0.00     0.116 A 
HETATM   24  C   UNL     1       3.756  32.972  59.028  1.00  0.00     0.020 A 
HETATM   25  C   UNL     1       4.957  33.445  59.548  1.00  0.00     0.011 A 
ENDBRANCH   7  20
BRANCH   8  26
HETATM   26  C   UNL     1       8.114  31.965  59.904  1.00  0.00     0.255 C 
HETATM   27  N   UNL     1       7.424  30.831  59.532  1.00  0.00    -0.323 N 
HETATM   28  H   UNL     1       6.760  30.447  60.191  1.00  0.00     0.169 HD
HETATM   29  O   UNL     1       8.939  32.583  59.241  1.00  0.00    -0.268 OA
BRANCH  27  30
HETATM   30  C   UNL     1       7.524  30.136  58.307  1.00  0.00     0.035 A 
HETATM   31  C   UNL     1       8.602  29.321  57.958  1.00  0.00     0.029 A 
HETATM   32  C   UNL     1       8.629  28.675  56.717  1.00  0.00     0.002 A 
HETATM   33  C   UNL     1       7.576  28.830  55.820  1.00  0.00     0.000 A 
HETATM   34  C   UNL     1       6.494  29.638  56.160  1.00  0.00     0.002 A 
HETATM   35  C   UNL     1       6.472  30.293  57.395  1.00  0.00     0.029 A 
ENDBRANCH  27  30
ENDBRANCH   8  26
TORSDOF 5
ENDMDL
MODEL 4
REMARK VINA RESULT:      -8.8      1.742      2.273
REMARK  5 active torsions:
REMARK  status: ('A' for Active; 'I' for Inactive)
REMARK    1  A    between atoms: C_6  and  C_7 
REMARK       I    between atoms: C_7  and  N_8 
REMARK    2  A    between atoms: N_8  and  C_9 
REMARK    3  A    between atoms: C_16  and  C_17 
REMARK    4  A    between atoms: C_23  and  C_24 
REMARK       I    between atoms: C_24  and  N_25 
REMARK    5  A    between atoms: N_25  and  C_26 
ROOT
HETATM    1  C   UNL     1       3.978  27.873  53.830  1.00  0.00     0.069 C 
HETATM    2  C   UNL     1       4.508  28.808  54.890  1.00  0.00     0.018 C 
HETATM    3  N   UNL     1       4.240  30.156  54.696  1.00  0.00    -0.362 N 
HETATM    4  C   UNL     1       4.484  31.142  55.642  1.00  0.00     0.018 C 
HETATM    5  C   UNL     1       3.907  32.502  55.345  1.00  0.00     0.069 C 
HETATM    6  C   UNL     1       5.177  30.829  56.758  1.00  0.00     0.045 C 
HETATM    7  C   UNL     1       5.699  29.421  57.016  1.00  0.00     0.101 C 
HETATM    8  C   UNL     1       5.186  28.410  55.991  1.00  0.00     0.045 C 
HETATM    9  H   UNL     1       3.637  30.402  53.913  1.00  0.00     0.165 HD
ENDROOT
BRANCH   6  10
HETATM   10  C   UNL     1       5.256  31.804  57.876  1.00  0.00     0.255 C 
HETATM   11  N   UNL     1       4.375  31.527  58.896  1.00  0.00    -0.323 N 
HETATM   12  H   UNL     1       3.737  30.750  58.762  1.00  0.00     0.169 HD
HETATM   13  O   UNL     1       6.038  32.743  57.792  1.00  0.00    -0.268 OA
BRANCH  11  14
HETATM   14  C   UNL     1       4.193  32.265  60.082  1.00  0.00     0.035 A 
HETATM   15  C   UNL     1       3.043  33.002  60.369  1.00  0.00     0.029 A 
HETATM   16  C   UNL     1       2.941  33.716  61.567  1.00  0.00     0.002 A 
HETATM   17  C   UNL     1       3.984  33.689  62.491  1.00  0.00     0.000 A 
HETATM   18  C   UNL     1       5.134  32.954  62.215  1.00  0.00     0.002 A 
HETATM   19  C   UNL     1       5.241  32.251  61.012  1.00  0.00     0.029 A 
ENDBRANCH  11  14
ENDBRANCH   6  10
BRANCH   7  20
HETATM   20  C   UNL     1       7.219  29.407  57.103  1.00  0.00    -0.027 A 
HETATM   21  C   UNL     1       7.861  29.406  58.340  1.00  0.00     0.124 A 
HETATM   22  N   UNL     1       9.203  29.450  58.498  1.00  0.00    -0.273 NA
HETATM   23  C   UNL     1       9.951  29.468  57.375  1.00  0.00     0.116 A 
HETATM   24  C   UNL     1       9.417  29.471  56.098  1.00  0.00     0.020 A 
HETATM   25  C   UNL     1       8.033  29.448  55.963  1.00  0.00     0.011 A 
ENDBRANCH   7  20
BRANCH   8  26
HETATM   26  C   UNL     1       5.550  26.975  56.174  1.00  0.00     0.255 C 
HETATM   27  N   UNL     1       6.553  26.558  55.323  1.00  0.00    -0.323 N 
HETATM   28  H   UNL     1       6.949  27.242  54.693  1.00  0.00     0.169 HD
HETATM   29  O   UNL     1       4.964  26.305  57.015  1.00  0.00    -0.268 OA
BRANCH  27  30
HETATM   30  C   UNL     1       7.115  25.266  55.239  1.00  0.00     0.035 A 
HETATM   31  C   UNL     1       7.976  24.725  56.195  1.00  0.00     0.029 A 
HETATM   32  C   UNL     1       8.499  23.437  56.030  1.00  0.00     0.002 A 
HETATM   33  C   UNL     1       8.157  22.677  54.915  1.00  0.00     0.000 A 
HETATM   34  C   UNL     1       7.295  23.205  53.957  1.00  0.00     0.002 A 
HETATM   35  C   UNL     1       6.782  24.496  54.116  1.00  0.00     0.029 A 
ENDBRANCH  27  30
ENDBRANCH   8  26
TORSDOF 5
ENDMDL
MODEL 5
REMARK VINA RESULT:      -8.7      2.888      8.923
REMARK  5 active torsions:
REMARK  status: ('A' for Active; 'I' for Inactive)
REMARK    1  A    between atoms: C_6  and  C_7 
REMARK       I    between atoms: C_7  and  N_8 
REMARK    2  A    between atoms: N_8  and  C_9 
REMARK    3  A    between atoms: C_16  and  C_17 
REMARK    4  A    between atoms: C_23  and  C_24 
REMARK       I    between atoms: C_24  and  N_25 
REMARK    5  A    between atoms: N_25  and  C_26 
ROOT
HETATM    1  C   UNL     1       9.908  32.350  59.539  1.00  0.00     0.069 C 
HETATM    2  C   UNL     1       9.144  31.248  58.846  1.00  0.00     0.018 C 
HETATM    3  N   UNL     1       9.848  30.535  57.886  1.00  0.00    -0.362 N 
HETATM    4  C   UNL     1       9.380  29.380  57.275  1.00  0.00     0.018 C 
HETATM    5  C   UNL     1      10.380  28.618  56.445  1.00  0.00     0.069 C 
HETATM    6  C   UNL     1       8.101  28.997  57.479  1.00  0.00     0.045 C 
HETATM    7  C   UNL     1       7.152  29.795  58.365  1.00  0.00     0.101 C 
HETATM    8  C   UNL     1       7.861  30.920  59.119  1.00  0.00     0.045 C 
HETATM    9  H   UNL     1      10.840  30.744  57.787  1.00  0.00     0.165 HD
ENDROOT
BRANCH   6  10
HETATM   10  C   UNL     1       7.649  27.659  57.020  1.00  0.00     0.255 C 
HETATM   11  N   UNL     1       7.363  27.619  55.675  1.00  0.00    -0.323 N 
HETATM   12  H   UNL     1       7.425  28.491  55.160  1.00  0.00     0.169 HD
HETATM   13  O   UNL     1       7.546  26.753  57.838  1.00  0.00    -0.268 OA
BRANCH  11  14
HETATM   14  C   UNL     1       6.898  26.511  54.939  1.00  0.00     0.035 A 
HETATM   15  C   UNL     1       7.632  25.338  54.755  1.00  0.00     0.029 A 
HETATM   16  C   UNL     1       7.103  24.284  54.003  1.00  0.00     0.002 A 
HETATM   17  C   UNL     1       5.833  24.392  53.439  1.00  0.00     0.000 A 
HETATM   18  C   UNL     1       5.093  25.558  53.620  1.00  0.00     0.002 A 
HETATM   19  C   UNL     1       5.626  26.616  54.360  1.00  0.00     0.029 A 
ENDBRANCH  11  14
ENDBRANCH   6  10
BRANCH   7  20
HETATM   20  C   UNL     1       5.965  30.318  57.566  1.00  0.00    -0.027 A 
HETATM   21  C   UNL     1       4.669  29.896  57.859  1.00  0.00     0.124 A 
HETATM   22  N   UNL     1       3.574  30.271  57.161  1.00  0.00    -0.273 NA
HETATM   23  C   UNL     1       3.766  31.130  56.137  1.00  0.00     0.116 A 
HETATM   24  C   UNL     1       5.008  31.610  55.761  1.00  0.00     0.020 A 
HETATM   25  C   UNL     1       6.122  31.192  56.482  1.00  0.00     0.011 A 
ENDBRANCH   7  20
BRANCH   8  26
HETATM   26  C   UNL     1       7.066  31.727  60.089  1.00  0.00     0.255 C 
HETATM   27  N   UNL     1       7.415  31.494  61.402  1.00  0.00    -0.323 N 
HETATM   28  H   UNL     1       8.165  30.839  61.581  1.00  0.00     0.169 HD
HETATM   29  O   UNL     1       6.204  32.492  59.675  1.00  0.00    -0.268 OA
BRANCH  27  30
HETATM   30  C   UNL     1       6.850  32.087  62.552  1.00  0.00     0.035 A 
HETATM   31  C   UNL     1       5.479  32.143  62.808  1.00  0.00     0.029 A 
HETATM   32  C   UNL     1       4.999  32.759  63.969  1.00  0.00     0.002 A 
HETATM   33  C   UNL     1       5.886  33.316  64.887  1.00  0.00     0.000 A 
HETATM   34  C   UNL     1       7.255  33.263  64.643  1.00  0.00     0.002 A 
HETATM   35  C   UNL     1       7.734  32.657  63.478  1.00  0.00     0.029 A 
ENDBRANCH  27  30
ENDBRANCH   8  26
TORSDOF 5
ENDMDL
MODEL 6
REMARK VINA RESULT:      -8.4      4.433      7.443
REMARK  5 active torsions:
REMARK  status: ('A' for Active; 'I' for Inactive)
REMARK    1  A    between atoms: C_6  and  C_7 
REMARK       I    between atoms: C_7  and  N_8 
REMARK    2  A    between atoms: N_8  and  C_9 
REMARK    3  A    between atoms: C_16  and  C_17 
REMARK    4  A    between atoms: C_23  and  C_24 
REMARK       I    between atoms: C_24  and  N_25 
REMARK    5  A    between atoms: N_25  and  C_26 
ROOT
HETATM    1  C   UNL     1       4.258  28.949  54.803  1.00  0.00     0.069 C 
HETATM    2  C   UNL     1       4.521  29.330  53.367  1.00  0.00     0.018 C 
HETATM    3  N   UNL     1       4.228  30.643  53.025  1.00  0.00    -0.362 N 
HETATM    4  C   UNL     1       4.568  31.226  51.813  1.00  0.00     0.018 C 
HETATM    5  C   UNL     1       4.384  32.719  51.721  1.00  0.00     0.069 C 
HETATM    6  C   UNL     1       5.061  30.452  50.822  1.00  0.00     0.045 C 
HETATM    7  C   UNL     1       5.259  28.950  50.995  1.00  0.00     0.101 C 
HETATM    8  C   UNL     1       5.030  28.492  52.435  1.00  0.00     0.045 C 
HETATM    9  H   UNL     1       3.948  31.267  53.779  1.00  0.00     0.165 HD
ENDROOT
BRANCH   6  10
HETATM   10  C   UNL     1       5.634  31.083  49.607  1.00  0.00     0.255 C 
HETATM   11  N   UNL     1       4.685  31.377  48.654  1.00  0.00    -0.323 N 
HETATM   12  H   UNL     1       3.732  31.085  48.841  1.00  0.00     0.169 HD
HETATM   13  O   UNL     1       6.844  31.259  49.541  1.00  0.00    -0.268 OA
BRANCH  11  14
HETATM   14  C   UNL     1       4.905  31.961  47.391  1.00  0.00     0.035 A 
HETATM   15  C   UNL     1       5.488  33.215  47.205  1.00  0.00     0.029 A 
HETATM   16  C   UNL     1       5.664  33.730  45.917  1.00  0.00     0.002 A 
HETATM   17  C   UNL     1       5.268  32.989  44.805  1.00  0.00     0.000 A 
HETATM   18  C   UNL     1       4.688  31.736  44.981  1.00  0.00     0.002 A 
HETATM   19  C   UNL     1       4.500  31.227  46.268  1.00  0.00     0.029 A 
ENDBRANCH  11  14
ENDBRANCH   6  10
BRANCH   7  20
HETATM   20  C   UNL     1       4.398  28.167  50.014  1.00  0.00    -0.027 A 
HETATM   21  C   UNL     1       3.052  28.482  49.839  1.00  0.00     0.124 A 
HETATM   22  N   UNL     1       2.212  27.798  49.030  1.00  0.00    -0.273 NA
HETATM   23  C   UNL     1       2.735  26.765  48.338  1.00  0.00     0.116 A 
HETATM   24  C   UNL     1       4.057  26.367  48.436  1.00  0.00     0.020 A 
HETATM   25  C   UNL     1       4.895  27.074  49.292  1.00  0.00     0.011 A 
ENDBRANCH   7  20
BRANCH   8  26
HETATM   26  C   UNL     1       5.275  27.058  52.764  1.00  0.00     0.255 C 
HETATM   27  N   UNL     1       6.609  26.765  52.951  1.00  0.00    -0.323 N 
HETATM   28  H   UNL     1       7.273  27.524  52.873  1.00  0.00     0.169 HD
HETATM   29  O   UNL     1       4.328  26.284  52.836  1.00  0.00    -0.268 OA
BRANCH  27  30
HETATM   30  C   UNL     1       7.169  25.507  53.262  1.00  0.00     0.035 A 
HETATM   31  C   UNL     1       7.585  24.579  52.305  1.00  0.00     0.029 A 
HETATM   32  C   UNL     1       8.121  23.347  52.698  1.00  0.00     0.002 A 
HETATM   33  C   UNL     1       8.256  23.038  54.049  1.00  0.00     0.000 A 
HETATM   34  C   UNL     1       7.849  23.958  55.011  1.00  0.00     0.002 A 
HETATM   35  C   UNL     1       7.303  25.184  54.619  1.00  0.00     0.029 A 
ENDBRANCH  27  30
ENDBRANCH   8  26
TORSDOF 5
ENDMDL
MODEL 7
REMARK VINA RESULT:      -8.3      1.757      8.595
REMARK  5 active torsions:
REMARK  status: ('A' for Active; 'I' for Inactive)
REMARK    1  A    between atoms: C_6  and  C_7 
REMARK       I    between atoms: C_7  and  N_8 
REMARK    2  A    between atoms: N_8  and  C_9 
REMARK    3  A    between atoms: C_16  and  C_17 
REMARK    4  A    between atoms: C_23  and  C_24 
REMARK       I    between atoms: C_24  and  N_25 
REMARK    5  A    between atoms: N_25  and  C_26 
ROOT
HETATM    1  C   UNL     1       6.956  30.492  58.163  1.00  0.00     0.069 C 
HETATM    2  C   UNL     1       6.750  29.212  57.391  1.00  0.00     0.018 C 
HETATM    3  N   UNL     1       7.779  28.284  57.472  1.00  0.00    -0.362 N 
HETATM    4  C   UNL     1       7.699  26.988  56.986  1.00  0.00     0.018 C 
HETATM    5  C   UNL     1       8.819  26.061  57.380  1.00  0.00     0.069 C 
HETATM    6  C   UNL     1       6.635  26.629  56.235  1.00  0.00     0.045 C 
HETATM    7  C   UNL     1       5.513  27.607  55.905  1.00  0.00     0.101 C 
HETATM    8  C   UNL     1       5.643  28.925  56.669  1.00  0.00     0.045 C 
HETATM    9  H   UNL     1       8.544  28.495  58.110  1.00  0.00     0.165 HD
ENDROOT
BRANCH   6  10
HETATM   10  C   UNL     1       6.420  25.200  55.893  1.00  0.00     0.255 C 
HETATM   11  N   UNL     1       7.503  24.626  55.269  1.00  0.00    -0.323 N 
HETATM   12  H   UNL     1       8.289  25.230  55.052  1.00  0.00     0.169 HD
HETATM   13  O   UNL     1       5.343  24.681  56.157  1.00  0.00    -0.268 OA
BRANCH  11  14
HETATM   14  C   UNL     1       7.610  23.300  54.805  1.00  0.00     0.035 A 
HETATM   15  C   UNL     1       7.646  22.185  55.644  1.00  0.00     0.029 A 
HETATM   16  C   UNL     1       7.762  20.899  55.106  1.00  0.00     0.002 A 
HETATM   17  C   UNL     1       7.835  20.719  53.726  1.00  0.00     0.000 A 
HETATM   18  C   UNL     1       7.798  21.826  52.882  1.00  0.00     0.002 A 
HETATM   19  C   UNL     1       7.694  23.111  53.419  1.00  0.00     0.029 A 
ENDBRANCH  11  14
ENDBRANCH   6  10
BRANCH   7  20
HETATM   20  C   UNL     1       5.410  27.838  54.404  1.00  0.00    -0.027 A 
HETATM   21  C   UNL     1       6.538  28.174  53.656  1.00  0.00     0.124 A 
HETATM   22  N   UNL     1       6.515  28.449  52.333  1.00  0.00    -0.273 NA
HETATM   23  C   UNL     1       5.322  28.360  51.709  1.00  0.00     0.116 A 
HETATM   24  C   UNL     1       4.142  28.035  52.355  1.00  0.00     0.020 A 
HETATM   25  C   UNL     1       4.188  27.778  53.721  1.00  0.00     0.011 A 
ENDBRANCH   7  20
BRANCH   8  26
HETATM   26  C   UNL     1       4.564  29.941  56.506  1.00  0.00     0.255 C 
HETATM   27  N   UNL     1       4.826  30.854  55.507  1.00  0.00    -0.323 N 
HETATM   28  H   UNL     1       5.681  30.742  54.980  1.00  0.00     0.169 HD
HETATM   29  O   UNL     1       3.579  29.900  57.234  1.00  0.00    -0.268 OA
BRANCH  27  30
HETATM   30  C   UNL     1       4.014  31.940  55.111  1.00  0.00     0.035 A 
HETATM   31  C   UNL     1       4.066  33.207  55.695  1.00  0.00     0.029 A 
HETATM   32  C   UNL     1       3.218  34.227  55.250  1.00  0.00     0.002 A 
HETATM   33  C   UNL     1       2.320  33.993  54.212  1.00  0.00     0.000 A 
HETATM   34  C   UNL     1       2.263  32.734  53.620  1.00  0.00     0.002 A 
HETATM   35  C   UNL     1       3.102  31.711  54.072  1.00  0.00     0.029 A 
ENDBRANCH  27  30
ENDBRANCH   8  26
TORSDOF 5
ENDMDL
MODEL 8
REMARK VINA RESULT:      -7.7      2.531      8.978
REMARK  5 active torsions:
REMARK  status: ('A' for Active; 'I' for Inactive)
REMARK    1  A    between atoms: C_6  and  C_7 
REMARK       I    between atoms: C_7  and  N_8 
REMARK    2  A    between atoms: N_8  and  C_9 
REMARK    3  A    between atoms: C_16  and  C_17 
REMARK    4  A    between atoms: C_23  and  C_24 
REMARK       I    between atoms: C_24  and  N_25 
REMARK    5  A    between atoms: N_25  and  C_26 
ROOT
HETATM    1  C   UNL     1       8.675  32.394  59.833  1.00  0.00     0.069 C 
HETATM    2  C   UNL     1       7.886  31.438  58.971  1.00  0.00     0.018 C 
HETATM    3  N   UNL     1       8.636  30.564  58.195  1.00  0.00    -0.362 N 
HETATM    4  C   UNL     1       8.100  29.502  57.482  1.00  0.00     0.018 C 
HETATM    5  C   UNL     1       9.091  28.527  56.901  1.00  0.00     0.069 C 
HETATM    6  C   UNL     1       6.758  29.385  57.379  1.00  0.00     0.045 C 
HETATM    7  C   UNL     1       5.809  30.387  58.026  1.00  0.00     0.101 C 
HETATM    8  C   UNL     1       6.536  31.378  58.935  1.00  0.00     0.045 C 
HETATM    9  H   UNL     1       9.645  30.571  58.332  1.00  0.00     0.165 HD
ENDROOT
BRANCH   6  10
HETATM   10  C   UNL     1       6.166  28.146  56.815  1.00  0.00     0.255 C 
HETATM   11  N   UNL     1       6.548  27.909  55.515  1.00  0.00    -0.323 N 
HETATM   12  H   UNL     1       7.125  28.611  55.064  1.00  0.00     0.169 HD
HETATM   13  O   UNL     1       5.403  27.483  57.507  1.00  0.00    -0.268 OA
BRANCH  11  14
HETATM   14  C   UNL     1       6.150  26.833  54.696  1.00  0.00     0.035 A 
HETATM   15  C   UNL     1       5.077  26.891  53.806  1.00  0.00     0.029 A 
HETATM   16  C   UNL     1       4.739  25.776  53.032  1.00  0.00     0.002 A 
HETATM   17  C   UNL     1       5.478  24.600  53.137  1.00  0.00     0.000 A 
HETATM   18  C   UNL     1       6.552  24.534  54.020  1.00  0.00     0.002 A 
HETATM   19  C   UNL     1       6.882  25.643  54.803  1.00  0.00     0.029 A 
ENDBRANCH  11  14
ENDBRANCH   6  10
BRANCH   7  20
HETATM   20  C   UNL     1       4.968  31.102  56.978  1.00  0.00    -0.027 A 
HETATM   21  C   UNL     1       5.561  31.956  56.050  1.00  0.00     0.124 A 
HETATM   22  N   UNL     1       4.875  32.667  55.127  1.00  0.00    -0.273 NA
HETATM   23  C   UNL     1       3.535  32.505  55.102  1.00  0.00     0.116 A 
HETATM   24  C   UNL     1       2.845  31.684  55.976  1.00  0.00     0.020 A 
HETATM   25  C   UNL     1       3.572  30.979  56.931  1.00  0.00     0.011 A 
ENDBRANCH   7  20
BRANCH   8  26
HETATM   26  C   UNL     1       5.717  32.362  59.700  1.00  0.00     0.255 C 
HETATM   27  N   UNL     1       5.494  31.981  61.007  1.00  0.00    -0.323 N 
HETATM   28  H   UNL     1       5.908  31.114  61.321  1.00  0.00     0.169 HD
HETATM   29  O   UNL     1       5.318  33.379  59.145  1.00  0.00    -0.268 OA
BRANCH  27  30
HETATM   30  C   UNL     1       4.753  32.682  61.983  1.00  0.00     0.035 A 
HETATM   31  C   UNL     1       5.273  33.093  63.211  1.00  0.00     0.029 A 
HETATM   32  C   UNL     1       4.468  33.776  64.130  1.00  0.00     0.002 A 
HETATM   33  C   UNL     1       3.140  34.061  63.824  1.00  0.00     0.000 A 
HETATM   34  C   UNL     1       2.612  33.659  62.600  1.00  0.00     0.002 A 
HETATM   35  C   UNL     1       3.413  32.967  61.687  1.00  0.00     0.029 A 
ENDBRANCH  27  30
ENDBRANCH   8  26
TORSDOF 5
ENDMDL
MODEL 9
REMARK VINA RESULT:      -7.5      4.294      6.868
REMARK  5 active torsions:
REMARK  status: ('A' for Active; 'I' for Inactive)
REMARK    1  A    between atoms: C_6  and  C_7 
REMARK       I    between atoms: C_7  and  N_8 
REMARK    2  A    between atoms: N_8  and  C_9 
REMARK    3  A    between atoms: C_16  and  C_17 
REMARK    4  A    between atoms: C_23  and  C_24 
REMARK       I    between atoms: C_24  and  N_25 
REMARK    5  A    between atoms: N_25  and  C_26 
ROOT
HETATM    1  C   UNL     1       3.806  29.829  55.441  1.00  0.00     0.069 C 
HETATM    2  C   UNL     1       3.894  30.346  54.026  1.00  0.00     0.018 C 
HETATM    3  N   UNL     1       3.501  31.664  53.838  1.00  0.00    -0.362 N 
HETATM    4  C   UNL     1       3.679  32.368  52.656  1.00  0.00     0.018 C 
HETATM    5  C   UNL     1       3.411  33.849  52.721  1.00  0.00     0.069 C 
HETATM    6  C   UNL     1       4.101  31.712  51.554  1.00  0.00     0.045 C 
HETATM    7  C   UNL     1       4.392  30.216  51.567  1.00  0.00     0.101 C 
HETATM    8  C   UNL     1       4.342  29.622  52.975  1.00  0.00     0.045 C 
HETATM    9  H   UNL     1       3.272  32.203  54.671  1.00  0.00     0.165 HD
ENDROOT
BRANCH   6  10
HETATM   10  C   UNL     1       4.508  32.479  50.349  1.00  0.00     0.255 C 
HETATM   11  N   UNL     1       5.790  32.970  50.431  1.00  0.00    -0.323 N 
HETATM   12  H   UNL     1       6.291  32.822  51.300  1.00  0.00     0.169 HD
HETATM   13  O   UNL     1       3.703  32.627  49.438  1.00  0.00    -0.268 OA
BRANCH  11  14
HETATM   14  C   UNL     1       6.464  33.747  49.467  1.00  0.00     0.035 A 
HETATM   15  C   UNL     1       6.934  33.244  48.253  1.00  0.00     0.029 A 
HETATM   16  C   UNL     1       7.601  34.079  47.352  1.00  0.00     0.002 A 
HETATM   17  C   UNL     1       7.794  35.425  47.654  1.00  0.00     0.000 A 
HETATM   18  C   UNL     1       7.326  35.937  48.861  1.00  0.00     0.002 A 
HETATM   19  C   UNL     1       6.671  35.100  49.768  1.00  0.00     0.029 A 
ENDBRANCH  11  14
ENDBRANCH   6  10
BRANCH   7  20
HETATM   20  C   UNL     1       3.471  29.469  50.612  1.00  0.00    -0.027 A 
HETATM   21  C   UNL     1       3.994  28.705  49.570  1.00  0.00     0.124 A 
HETATM   22  N   UNL     1       3.242  28.061  48.651  1.00  0.00    -0.273 NA
HETATM   23  C   UNL     1       1.902  28.153  48.782  1.00  0.00     0.116 A 
HETATM   24  C   UNL     1       1.278  28.884  49.778  1.00  0.00     0.020 A 
HETATM   25  C   UNL     1       2.075  29.556  50.699  1.00  0.00     0.011 A 
ENDBRANCH   7  20
BRANCH   8  26
HETATM   26  C   UNL     1       4.692  28.183  53.144  1.00  0.00     0.255 C 
HETATM   27  N   UNL     1       6.051  27.948  53.111  1.00  0.00    -0.323 N 
HETATM   28  H   UNL     1       6.663  28.745  53.002  1.00  0.00     0.169 HD
HETATM   29  O   UNL     1       3.799  27.356  53.287  1.00  0.00    -0.268 OA
BRANCH  27  30
HETATM   30  C   UNL     1       6.702  26.702  53.232  1.00  0.00     0.035 A 
HETATM   31  C   UNL     1       7.106  26.146  54.447  1.00  0.00     0.029 A 
HETATM   32  C   UNL     1       7.757  24.908  54.479  1.00  0.00     0.002 A 
HETATM   33  C   UNL     1       8.001  24.211  53.299  1.00  0.00     0.000 A 
HETATM   34  C   UNL     1       7.598  24.754  52.082  1.00  0.00     0.002 A 
HETATM   35  C   UNL     1       6.958  25.996  52.048  1.00  0.00     0.029 A 
ENDBRANCH  27  30
ENDBRANCH   8  26
TORSDOF 5
ENDMDL
MODEL 10
REMARK VINA RESULT:      -7.4      2.158      9.162
REMARK  5 active torsions:
REMARK  status: ('A' for Active; 'I' for Inactive)
REMARK    1  A    between atoms: C_6  and  C_7 
REMARK       I    between atoms: C_7  and  N_8 
REMARK    2  A    between atoms: N_8  and  C_9 
REMARK    3  A    between atoms: C_16  and  C_17 
REMARK    4  A    between atoms: C_23  and  C_24 
REMARK       I    between atoms: C_24  and  N_25 
REMARK    5  A    between atoms: N_25  and  C_26 
ROOT
HETATM    1  C   UNL     1       7.226  32.588  60.148  1.00  0.00     0.069 C 
HETATM    2  C   UNL     1       6.734  31.585  59.132  1.00  0.00     0.018 C 
HETATM    3  N   UNL     1       7.707  30.776  58.561  1.00  0.00    -0.362 N 
HETATM    4  C   UNL     1       7.433  29.684  57.751  1.00  0.00     0.018 C 
HETATM    5  C   UNL     1       8.602  28.790  57.426  1.00  0.00     0.069 C 
HETATM    6  C   UNL     1       6.166  29.470  57.336  1.00  0.00     0.045 C 
HETATM    7  C   UNL     1       5.020  30.393  57.734  1.00  0.00     0.101 C 
HETATM    8  C   UNL     1       5.438  31.427  58.780  1.00  0.00     0.045 C 
HETATM    9  H   UNL     1       8.652  30.855  58.931  1.00  0.00     0.165 HD
ENDROOT
BRANCH   6  10
HETATM   10  C   UNL     1       5.815  28.196  56.659  1.00  0.00     0.255 C 
HETATM   11  N   UNL     1       6.323  28.106  55.384  1.00  0.00    -0.323 N 
HETATM   12  H   UNL     1       6.815  28.915  55.020  1.00  0.00     0.169 HD
HETATM   13  O   UNL     1       5.116  27.381  57.249  1.00  0.00    -0.268 OA
BRANCH  11  14
HETATM   14  C   UNL     1       6.157  27.040  54.478  1.00  0.00     0.035 A 
HETATM   15  C   UNL     1       4.989  26.816  53.746  1.00  0.00     0.029 A 
HETATM   16  C   UNL     1       4.900  25.729  52.872  1.00  0.00     0.002 A 
HETATM   17  C   UNL     1       5.980  24.863  52.715  1.00  0.00     0.000 A 
HETATM   18  C   UNL     1       7.150  25.080  53.439  1.00  0.00     0.002 A 
HETATM   19  C   UNL     1       7.235  26.158  54.322  1.00  0.00     0.029 A 
ENDBRANCH  11  14
ENDBRANCH   6  10
BRANCH   7  20
HETATM   20  C   UNL     1       4.398  31.054  56.512  1.00  0.00    -0.027 A 
HETATM   21  C   UNL     1       5.170  31.837  55.655  1.00  0.00     0.124 A 
HETATM   22  N   UNL     1       4.678  32.499  54.585  1.00  0.00    -0.273 NA
HETATM   23  C   UNL     1       3.360  32.360  54.331  1.00  0.00     0.116 A 
HETATM   24  C   UNL     1       2.503  31.607  55.115  1.00  0.00     0.020 A 
HETATM   25  C   UNL     1       3.030  30.953  56.224  1.00  0.00     0.011 A 
ENDBRANCH   7  20
BRANCH   8  26
HETATM   26  C   UNL     1       4.392  32.340  59.324  1.00  0.00     0.255 C 
HETATM   27  N   UNL     1       4.454  33.611  58.793  1.00  0.00    -0.323 N 
HETATM   28  H   UNL     1       5.161  33.795  58.094  1.00  0.00     0.169 HD
HETATM   29  O   UNL     1       3.600  31.923  60.160  1.00  0.00    -0.268 OA
BRANCH  27  30
HETATM   30  C   UNL     1       3.618  34.705  59.104  1.00  0.00     0.035 A 
HETATM   31  C   UNL     1       3.828  35.568  60.181  1.00  0.00     0.029 A 
HETATM   32  C   UNL     1       2.944  36.625  60.426  1.00  0.00     0.002 A 
HETATM   33  C   UNL     1       1.849  36.833  59.592  1.00  0.00     0.000 A 
HETATM   34  C   UNL     1       1.632  35.981  58.513  1.00  0.00     0.002 A 
HETATM   35  C   UNL     1       2.509  34.919  58.274  1.00  0.00     0.029 A 
ENDBRANCH  27  30
ENDBRANCH   8  26
TORSDOF 5
ENDMDL
