MODEL 1
REMARK VINA RESULT:      -9.7      0.000      0.000
REMARK  7 active torsions:
REMARK  status: ('A' for Active; 'I' for Inactive)
REMARK    1  A    between atoms: O_2  and  C_3 
REMARK    2  A    between atoms: C_5  and  C_6 
REMARK    3  A    between atoms: C_6  and  O_7 
REMARK    4  A    between atoms: C_6  and  C_8 
REMARK    5  A    between atoms: C_8  and  N_9 
REMARK       I    between atoms: N_9  and  C_10 
REMARK    6  A    between atoms: C_10  and  C_11 
REMARK    7  A    between atoms: C_12  and  C_13 
ROOT
HETATM    1  C   UNL     1       7.151  29.202  56.743  1.00  0.00     0.089 C 
HETATM    2  C   UNL     1       8.193  30.251  57.200  1.00  0.00     0.068 C 
HETATM    3  C   UNL     1       9.621  29.756  56.939  1.00  0.00     0.013 C 
HETATM    4  C   UNL     1       9.826  29.485  55.448  1.00  0.00     0.001 C 
HETATM    5  C   UNL     1       8.754  28.571  54.857  1.00  0.00     0.001 C 
HETATM    6  C   UNL     1       7.331  29.017  55.217  1.00  0.00     0.015 C 
ENDROOT
BRANCH   1   7
HETATM    7  C   UNL     1       7.175  27.809  57.412  1.00  0.00     0.222 C 
HETATM    8  N   UNL     1       6.488  26.802  56.787  1.00  0.00    -0.358 N 
HETATM    9  H   UNL     1       6.284  26.954  55.796  1.00  0.00     0.162 HD
HETATM   10  O   UNL     1       7.825  27.587  58.434  1.00  0.00    -0.273 OA
BRANCH   8  11
HETATM   11  C   UNL     1       6.597  25.408  57.202  1.00  0.00     0.159 C 
BRANCH  11  12
HETATM   12  C   UNL     1       7.926  24.730  56.796  1.00  0.00     0.169 C 
BRANCH  12  13
HETATM   13  C   UNL     1       7.828  24.105  55.416  1.00  0.00    -0.025 A 
HETATM   14  C   UNL     1       7.888  22.703  55.284  1.00  0.00     0.046 A 
HETATM   15  C   UNL     1       7.825  22.096  54.027  1.00  0.00     0.068 A 
HETATM   16  C   UNL     1       7.683  22.892  52.891  1.00  0.00     0.037 A 
HETATM   17  C   UNL     1       7.608  24.279  53.003  1.00  0.00     0.003 A 
HETATM   18  C   UNL     1       7.684  24.882  54.258  1.00  0.00     0.010 A 
BRANCH  15  19
HETATM   19  O   UNL     1       7.891  20.751  53.778  1.00  0.00    -0.356 OA
HETATM   20  C   UNL     1       8.726  19.979  54.630  1.00  0.00     0.210 C 
ENDBRANCH  15  19
ENDBRANCH  12  13
BRANCH  12  21
HETATM   21  O   UNL     1       8.259  23.743  57.783  1.00  0.00    -0.389 OA
HETATM   22  H   UNL     1       8.627  24.257  58.523  1.00  0.00     0.210 HD
ENDBRANCH  12  21
ENDBRANCH  11  12
ENDBRANCH   8  11
ENDBRANCH   1   7
BRANCH   2  23
HETATM   23  C   UNL     1       7.992  30.780  58.592  1.00  0.00     0.110 A 
HETATM   24  N   UNL     1       7.252  31.812  58.952  1.00  0.00    -0.233 NA
HETATM   25  C   UNL     1       7.446  31.963  60.305  1.00  0.00     0.087 A 
HETATM   26  C   UNL     1       8.317  30.996  60.788  1.00  0.00     0.062 A 
HETATM   27  C   UNL     1       6.911  32.915  61.181  1.00  0.00     0.057 A 
HETATM   28  N   UNL     1       8.649  30.255  59.682  1.00  0.00    -0.342 N 
HETATM   29  C   UNL     1       8.700  30.908  62.127  1.00  0.00     0.034 A 
HETATM   30  H   UNL     1       9.283  29.469  59.668  1.00  0.00     0.167 HD
HETATM   31  C   UNL     1       8.159  31.866  62.994  1.00  0.00     0.026 A 
HETATM   32  C   UNL     1       7.283  32.849  62.527  1.00  0.00     0.036 A 
HETATM   33 CL   UNL     1       6.649  34.009  63.633  1.00  0.00    -0.084 Cl
ENDBRANCH   2  23
TORSDOF 7
ENDMDL
MODEL 2
REMARK VINA RESULT:      -9.7      5.190      8.240
REMARK  7 active torsions:
REMARK  status: ('A' for Active; 'I' for Inactive)
REMARK    1  A    between atoms: O_2  and  C_3 
REMARK    2  A    between atoms: C_5  and  C_6 
REMARK    3  A    between atoms: C_6  and  O_7 
REMARK    4  A    between atoms: C_6  and  C_8 
REMARK    5  A    between atoms: C_8  and  N_9 
REMARK       I    between atoms: N_9  and  C_10 
REMARK    6  A    between atoms: C_10  and  C_11 
REMARK    7  A    between atoms: C_12  and  C_13 
ROOT
HETATM    1  C   UNL     1       5.733  27.087  56.492  1.00  0.00     0.089 C 
HETATM    2  C   UNL     1       7.096  26.505  56.937  1.00  0.00     0.068 C 
HETATM    3  C   UNL     1       8.212  27.548  56.797  1.00  0.00     0.013 C 
HETATM    4  C   UNL     1       7.904  28.775  57.657  1.00  0.00     0.001 C 
HETATM    5  C   UNL     1       6.510  29.345  57.400  1.00  0.00     0.001 C 
HETATM    6  C   UNL     1       5.415  28.271  57.436  1.00  0.00     0.015 C 
ENDROOT
BRANCH   1   7
HETATM    7  C   UNL     1       5.588  27.572  55.032  1.00  0.00     0.222 C 
HETATM    8  N   UNL     1       4.947  26.737  54.156  1.00  0.00    -0.358 N 
HETATM    9  H   UNL     1       4.349  26.024  54.580  1.00  0.00     0.162 HD
HETATM   10  O   UNL     1       5.979  28.683  54.671  1.00  0.00    -0.273 OA
BRANCH   8  11
HETATM   11  C   UNL     1       4.570  27.157  52.810  1.00  0.00     0.159 C 
BRANCH  11  12
HETATM   12  C   UNL     1       5.170  26.282  51.685  1.00  0.00     0.169 C 
BRANCH  12  13
HETATM   13  C   UNL     1       5.041  26.959  50.332  1.00  0.00    -0.025 A 
HETATM   14  C   UNL     1       4.417  26.273  49.270  1.00  0.00     0.046 A 
HETATM   15  C   UNL     1       4.303  26.857  48.006  1.00  0.00     0.068 A 
HETATM   16  C   UNL     1       4.799  28.144  47.801  1.00  0.00     0.037 A 
HETATM   17  C   UNL     1       5.408  28.843  48.842  1.00  0.00     0.003 A 
HETATM   18  C   UNL     1       5.530  28.252  50.099  1.00  0.00     0.010 A 
BRANCH  15  19
HETATM   19  O   UNL     1       3.735  26.281  46.901  1.00  0.00    -0.356 OA
HETATM   20  C   UNL     1       2.863  25.181  47.125  1.00  0.00     0.210 C 
ENDBRANCH  15  19
ENDBRANCH  12  13
BRANCH  12  21
HETATM   21  O   UNL     1       4.504  25.011  51.687  1.00  0.00    -0.389 OA
HETATM   22  H   UNL     1       4.673  24.649  50.799  1.00  0.00     0.210 HD
ENDBRANCH  12  21
ENDBRANCH  11  12
ENDBRANCH   8  11
ENDBRANCH   1   7
BRANCH   2  23
HETATM   23  C   UNL     1       7.446  25.175  56.331  1.00  0.00     0.110 A 
HETATM   24  N   UNL     1       7.492  24.873  55.048  1.00  0.00    -0.233 NA
HETATM   25  C   UNL     1       7.771  23.528  54.985  1.00  0.00     0.087 A 
HETATM   26  C   UNL     1       7.909  22.995  56.260  1.00  0.00     0.062 A 
HETATM   27  C   UNL     1       7.913  22.698  53.866  1.00  0.00     0.057 A 
HETATM   28  N   UNL     1       7.700  24.060  57.098  1.00  0.00    -0.342 N 
HETATM   29  C   UNL     1       8.191  21.649  56.502  1.00  0.00     0.034 A 
HETATM   30  H   UNL     1       7.712  24.027  58.107  1.00  0.00     0.167 HD
HETATM   31  C   UNL     1       8.330  20.829  55.375  1.00  0.00     0.026 A 
HETATM   32  C   UNL     1       8.192  21.346  54.085  1.00  0.00     0.036 A 
HETATM   33 CL   UNL     1       8.366  20.293  52.731  1.00  0.00    -0.084 Cl
ENDBRANCH   2  23
TORSDOF 7
ENDMDL
MODEL 3
REMARK VINA RESULT:      -9.6      3.467      8.760
REMARK  7 active torsions:
REMARK  status: ('A' for Active; 'I' for Inactive)
REMARK    1  A    between atoms: O_2  and  C_3 
REMARK    2  A    between atoms: C_5  and  C_6 
REMARK    3  A    between atoms: C_6  and  O_7 
REMARK    4  A    between atoms: C_6  and  C_8 
REMARK    5  A    between atoms: C_8  and  N_9 
REMARK       I    between atoms: N_9  and  C_10 
REMARK    6  A    between atoms: C_10  and  C_11 
REMARK    7  A    between atoms: C_12  and  C_13 
ROOT
HETATM    1  C   UNL     1       7.116  23.401  55.425  1.00  0.00     0.089 C 
HETATM    2  C   UNL     1       7.043  23.471  53.881  1.00  0.00     0.068 C 
HETATM    3  C   UNL     1       8.417  23.205  53.253  1.00  0.00     0.013 C 
HETATM    4  C   UNL     1       8.925  21.818  53.654  1.00  0.00     0.001 C 
HETATM    5  C   UNL     1       8.898  21.589  55.164  1.00  0.00     0.001 C 
HETATM    6  C   UNL     1       7.550  21.963  55.796  1.00  0.00     0.015 C 
ENDROOT
BRANCH   1   7
HETATM    7  C   UNL     1       8.045  24.397  56.158  1.00  0.00     0.222 C 
HETATM    8  N   UNL     1       7.653  25.709  56.190  1.00  0.00    -0.358 N 
HETATM    9  H   UNL     1       6.660  25.880  56.017  1.00  0.00     0.162 HD
HETATM   10  O   UNL     1       9.067  24.031  56.738  1.00  0.00    -0.273 OA
BRANCH   8  11
HETATM   11  C   UNL     1       8.330  26.706  57.013  1.00  0.00     0.159 C 
BRANCH  11  12
HETATM   12  C   UNL     1       7.749  28.133  56.882  1.00  0.00     0.169 C 
BRANCH  12  13
HETATM   13  C   UNL     1       8.764  29.183  57.299  1.00  0.00    -0.025 A 
HETATM   14  C   UNL     1       8.353  30.261  58.109  1.00  0.00     0.046 A 
HETATM   15  C   UNL     1       9.255  31.257  58.491  1.00  0.00     0.068 A 
HETATM   16  C   UNL     1      10.584  31.170  58.078  1.00  0.00     0.037 A 
HETATM   17  C   UNL     1      11.012  30.104  57.288  1.00  0.00     0.003 A 
HETATM   18  C   UNL     1      10.106  29.118  56.899  1.00  0.00     0.010 A 
BRANCH  15  19
HETATM   19  O   UNL     1       8.966  32.354  59.257  1.00  0.00    -0.356 OA
HETATM   20  C   UNL     1       9.220  32.250  60.652  1.00  0.00     0.210 C 
ENDBRANCH  15  19
ENDBRANCH  12  13
BRANCH  12  21
HETATM   21  O   UNL     1       6.562  28.221  57.684  1.00  0.00    -0.389 OA
HETATM   22  H   UNL     1       5.871  27.805  57.139  1.00  0.00     0.210 HD
ENDBRANCH  12  21
ENDBRANCH  11  12
ENDBRANCH   8  11
ENDBRANCH   1   7
BRANCH   2  23
HETATM   23  C   UNL     1       6.366  24.696  53.333  1.00  0.00     0.110 A 
HETATM   24  N   UNL     1       5.573  25.525  53.983  1.00  0.00    -0.233 NA
HETATM   25  C   UNL     1       5.131  26.435  53.052  1.00  0.00     0.087 A 
HETATM   26  C   UNL     1       5.674  26.164  51.803  1.00  0.00     0.062 A 
HETATM   27  C   UNL     1       4.256  27.517  53.209  1.00  0.00     0.057 A 
HETATM   28  N   UNL     1       6.457  25.056  52.007  1.00  0.00    -0.342 N 
HETATM   29  C   UNL     1       5.399  26.924  50.666  1.00  0.00     0.034 A 
HETATM   30  H   UNL     1       6.993  24.576  51.299  1.00  0.00     0.167 HD
HETATM   31  C   UNL     1       4.521  28.003  50.834  1.00  0.00     0.026 A 
HETATM   32  C   UNL     1       3.962  28.290  52.082  1.00  0.00     0.036 A 
HETATM   33 CL   UNL     1       2.883  29.625  52.236  1.00  0.00    -0.084 Cl
ENDBRANCH   2  23
TORSDOF 7
ENDMDL
MODEL 4
REMARK VINA RESULT:      -9.2      5.044      9.757
REMARK  7 active torsions:
REMARK  status: ('A' for Active; 'I' for Inactive)
REMARK    1  A    between atoms: O_2  and  C_3 
REMARK    2  A    between atoms: C_5  and  C_6 
REMARK    3  A    between atoms: C_6  and  O_7 
REMARK    4  A    between atoms: C_6  and  C_8 
REMARK    5  A    between atoms: C_8  and  N_9 
REMARK       I    between atoms: N_9  and  C_10 
REMARK    6  A    between atoms: C_10  and  C_11 
REMARK    7  A    between atoms: C_12  and  C_13 
ROOT
HETATM    1  C   UNL     1       5.697  25.834  53.567  1.00  0.00     0.089 C 
HETATM    2  C   UNL     1       6.004  25.311  52.143  1.00  0.00     0.068 C 
HETATM    3  C   UNL     1       7.499  25.011  51.978  1.00  0.00     0.013 C 
HETATM    4  C   UNL     1       7.944  23.954  52.991  1.00  0.00     0.001 C 
HETATM    5  C   UNL     1       7.555  24.305  54.425  1.00  0.00     0.001 C 
HETATM    6  C   UNL     1       6.081  24.709  54.557  1.00  0.00     0.015 C 
ENDROOT
BRANCH   1   7
HETATM    7  C   UNL     1       6.378  27.143  54.026  1.00  0.00     0.222 C 
HETATM    8  N   UNL     1       5.801  27.816  55.070  1.00  0.00    -0.358 N 
HETATM    9  H   UNL     1       5.174  27.265  55.660  1.00  0.00     0.162 HD
HETATM   10  O   UNL     1       7.425  27.547  53.520  1.00  0.00    -0.273 OA
BRANCH   8  11
HETATM   11  C   UNL     1       6.451  28.946  55.725  1.00  0.00     0.159 C 
BRANCH  11  12
HETATM   12  C   UNL     1       7.065  28.609  57.104  1.00  0.00     0.169 C 
BRANCH  12  13
HETATM   13  C   UNL     1       8.344  29.391  57.345  1.00  0.00    -0.025 A 
HETATM   14  C   UNL     1       8.325  30.500  58.216  1.00  0.00     0.046 A 
HETATM   15  C   UNL     1       9.477  31.256  58.442  1.00  0.00     0.068 A 
HETATM   16  C   UNL     1      10.666  30.896  57.807  1.00  0.00     0.037 A 
HETATM   17  C   UNL     1      10.707  29.795  56.953  1.00  0.00     0.003 A 
HETATM   18  C   UNL     1       9.552  29.050  56.721  1.00  0.00     0.010 A 
BRANCH  15  19
HETATM   19  O   UNL     1       9.572  32.358  59.249  1.00  0.00    -0.356 OA
HETATM   20  C   UNL     1       9.640  32.125  60.649  1.00  0.00     0.210 C 
ENDBRANCH  15  19
ENDBRANCH  12  13
BRANCH  12  21
HETATM   21  O   UNL     1       7.310  27.196  57.164  1.00  0.00    -0.389 OA
HETATM   22  H   UNL     1       8.276  27.115  57.072  1.00  0.00     0.210 HD
ENDBRANCH  12  21
ENDBRANCH  11  12
ENDBRANCH   8  11
ENDBRANCH   1   7
BRANCH   2  23
HETATM   23  C   UNL     1       5.437  26.142  51.027  1.00  0.00     0.110 A 
HETATM   24  N   UNL     1       5.769  27.378  50.707  1.00  0.00    -0.233 NA
HETATM   25  C   UNL     1       4.929  27.743  49.682  1.00  0.00     0.087 A 
HETATM   26  C   UNL     1       4.067  26.703  49.359  1.00  0.00     0.062 A 
HETATM   27  C   UNL     1       4.845  28.956  48.987  1.00  0.00     0.057 A 
HETATM   28  N   UNL     1       4.411  25.696  50.225  1.00  0.00    -0.342 N 
HETATM   29  C   UNL     1       3.101  26.791  48.356  1.00  0.00     0.034 A 
HETATM   30  H   UNL     1       3.971  24.789  50.277  1.00  0.00     0.167 HD
HETATM   31  C   UNL     1       3.026  28.009  47.667  1.00  0.00     0.026 A 
HETATM   32  C   UNL     1       3.882  29.068  47.980  1.00  0.00     0.036 A 
HETATM   33 CL   UNL     1       3.745  30.548  47.107  1.00  0.00    -0.084 Cl
ENDBRANCH   2  23
TORSDOF 7
ENDMDL
MODEL 5
REMARK VINA RESULT:      -9.1      1.118      1.980
REMARK  7 active torsions:
REMARK  status: ('A' for Active; 'I' for Inactive)
REMARK    1  A    between atoms: O_2  and  C_3 
REMARK    2  A    between atoms: C_5  and  C_6 
REMARK    3  A    between atoms: C_6  and  O_7 
REMARK    4  A    between atoms: C_6  and  C_8 
REMARK    5  A    between atoms: C_8  and  N_9 
REMARK       I    between atoms: N_9  and  C_10 
REMARK    6  A    between atoms: C_10  and  C_11 
REMARK    7  A    between atoms: C_12  and  C_13 
ROOT
HETATM    1  C   UNL     1       6.739  28.803  56.318  1.00  0.00     0.089 C 
HETATM    2  C   UNL     1       7.742  29.955  56.569  1.00  0.00     0.068 C 
HETATM    3  C   UNL     1       9.177  29.510  56.262  1.00  0.00     0.013 C 
HETATM    4  C   UNL     1       9.297  29.071  54.801  1.00  0.00     0.001 C 
HETATM    5  C   UNL     1       8.247  28.035  54.405  1.00  0.00     0.001 C 
HETATM    6  C   UNL     1       6.826  28.443  54.816  1.00  0.00     0.015 C 
ENDROOT
BRANCH   1   7
HETATM    7  C   UNL     1       6.896  27.505  57.142  1.00  0.00     0.222 C 
HETATM    8  N   UNL     1       6.317  26.370  56.639  1.00  0.00    -0.358 N 
HETATM    9  H   UNL     1       6.107  26.387  55.639  1.00  0.00     0.162 HD
HETATM   10  O   UNL     1       7.557  27.467  58.180  1.00  0.00    -0.273 OA
BRANCH   8  11
HETATM   11  C   UNL     1       6.560  25.050  57.211  1.00  0.00     0.159 C 
BRANCH  11  12
HETATM   12  C   UNL     1       8.013  24.548  57.045  1.00  0.00     0.169 C 
BRANCH  12  13
HETATM   13  C   UNL     1       8.049  23.134  56.494  1.00  0.00    -0.025 A 
HETATM   14  C   UNL     1       7.816  22.918  55.121  1.00  0.00     0.046 A 
HETATM   15  C   UNL     1       7.817  21.628  54.585  1.00  0.00     0.068 A 
HETATM   16  C   UNL     1       8.072  20.541  55.422  1.00  0.00     0.037 A 
HETATM   17  C   UNL     1       8.319  20.736  56.781  1.00  0.00     0.003 A 
HETATM   18  C   UNL     1       8.304  22.025  57.313  1.00  0.00     0.010 A 
BRANCH  15  19
HETATM   19  O   UNL     1       7.587  21.298  53.277  1.00  0.00    -0.356 OA
HETATM   20  C   UNL     1       8.539  20.452  52.648  1.00  0.00     0.210 C 
ENDBRANCH  15  19
ENDBRANCH  12  13
BRANCH  12  21
HETATM   21  O   UNL     1       8.673  24.620  58.317  1.00  0.00    -0.389 OA
HETATM   22  H   UNL     1       8.206  23.967  58.868  1.00  0.00     0.210 HD
ENDBRANCH  12  21
ENDBRANCH  11  12
ENDBRANCH   8  11
ENDBRANCH   1   7
BRANCH   2  23
HETATM   23  C   UNL     1       7.603  30.637  57.900  1.00  0.00     0.110 A 
HETATM   24  N   UNL     1       8.435  30.565  58.922  1.00  0.00    -0.233 NA
HETATM   25  C   UNL     1       7.848  31.282  59.939  1.00  0.00     0.087 A 
HETATM   26  C   UNL     1       6.633  31.814  59.528  1.00  0.00     0.062 A 
HETATM   27  C   UNL     1       8.301  31.511  61.244  1.00  0.00     0.057 A 
HETATM   28  N   UNL     1       6.500  31.393  58.229  1.00  0.00    -0.342 N 
HETATM   29  C   UNL     1       5.815  32.586  60.354  1.00  0.00     0.034 A 
HETATM   30  H   UNL     1       5.716  31.589  57.624  1.00  0.00     0.167 HD
HETATM   31  C   UNL     1       6.278  32.808  61.658  1.00  0.00     0.026 A 
HETATM   32  C   UNL     1       7.496  32.278  62.091  1.00  0.00     0.036 A 
HETATM   33 CL   UNL     1       8.017  32.574  63.707  1.00  0.00    -0.084 Cl
ENDBRANCH   2  23
TORSDOF 7
ENDMDL
MODEL 6
REMARK VINA RESULT:      -9.0      4.305      5.730
REMARK  7 active torsions:
REMARK  status: ('A' for Active; 'I' for Inactive)
REMARK    1  A    between atoms: O_2  and  C_3 
REMARK    2  A    between atoms: C_5  and  C_6 
REMARK    3  A    between atoms: C_6  and  O_7 
REMARK    4  A    between atoms: C_6  and  C_8 
REMARK    5  A    between atoms: C_8  and  N_9 
REMARK       I    between atoms: N_9  and  C_10 
REMARK    6  A    between atoms: C_10  and  C_11 
REMARK    7  A    between atoms: C_12  and  C_13 
ROOT
HETATM    1  C   UNL     1       7.638  26.921  54.848  1.00  0.00     0.089 C 
HETATM    2  C   UNL     1       7.820  26.686  56.367  1.00  0.00     0.068 C 
HETATM    3  C   UNL     1       6.599  25.974  56.962  1.00  0.00     0.013 C 
HETATM    4  C   UNL     1       6.388  24.620  56.282  1.00  0.00     0.001 C 
HETATM    5  C   UNL     1       6.343  24.721  54.759  1.00  0.00     0.001 C 
HETATM    6  C   UNL     1       7.514  25.529  54.184  1.00  0.00     0.015 C 
ENDROOT
BRANCH   1   7
HETATM    7  C   UNL     1       6.452  27.795  54.381  1.00  0.00     0.222 C 
HETATM    8  N   UNL     1       6.470  28.233  53.083  1.00  0.00    -0.358 N 
HETATM    9  H   UNL     1       7.075  27.709  52.447  1.00  0.00     0.162 HD
HETATM   10  O   UNL     1       5.498  28.048  55.117  1.00  0.00    -0.273 OA
BRANCH   8  11
HETATM   11  C   UNL     1       5.323  28.890  52.465  1.00  0.00     0.159 C 
BRANCH  11  12
HETATM   12  C   UNL     1       4.362  27.925  51.734  1.00  0.00     0.169 C 
BRANCH  12  13
HETATM   13  C   UNL     1       4.636  27.899  50.240  1.00  0.00    -0.025 A 
HETATM   14  C   UNL     1       4.145  26.830  49.463  1.00  0.00     0.046 A 
HETATM   15  C   UNL     1       4.399  26.763  48.091  1.00  0.00     0.068 A 
HETATM   16  C   UNL     1       5.135  27.779  47.482  1.00  0.00     0.037 A 
HETATM   17  C   UNL     1       5.617  28.851  48.232  1.00  0.00     0.003 A 
HETATM   18  C   UNL     1       5.372  28.908  49.603  1.00  0.00     0.010 A 
BRANCH  15  19
HETATM   19  O   UNL     1       3.990  25.768  47.245  1.00  0.00    -0.356 OA
HETATM   20  C   UNL     1       2.967  24.902  47.716  1.00  0.00     0.210 C 
ENDBRANCH  15  19
ENDBRANCH  12  13
BRANCH  12  21
HETATM   21  O   UNL     1       3.012  28.331  51.999  1.00  0.00    -0.389 OA
HETATM   22  H   UNL     1       2.637  28.514  51.119  1.00  0.00     0.210 HD
ENDBRANCH  12  21
ENDBRANCH  11  12
ENDBRANCH   8  11
ENDBRANCH   1   7
BRANCH   2  23
HETATM   23  C   UNL     1       8.243  27.896  57.150  1.00  0.00     0.110 A 
HETATM   24  N   UNL     1       7.634  28.420  58.196  1.00  0.00    -0.233 NA
HETATM   25  C   UNL     1       8.338  29.557  58.515  1.00  0.00     0.087 A 
HETATM   26  C   UNL     1       9.411  29.730  57.650  1.00  0.00     0.062 A 
HETATM   27  C   UNL     1       8.108  30.493  59.531  1.00  0.00     0.057 A 
HETATM   28  N   UNL     1       9.331  28.662  56.793  1.00  0.00    -0.342 N 
HETATM   29  C   UNL     1      10.299  30.803  57.733  1.00  0.00     0.034 A 
HETATM   30  H   UNL     1       9.953  28.479  56.020  1.00  0.00     0.167 HD
HETATM   31  C   UNL     1      10.059  31.733  58.753  1.00  0.00     0.026 A 
HETATM   32  C   UNL     1       8.983  31.579  59.632  1.00  0.00     0.036 A 
HETATM   33 CL   UNL     1       8.727  32.754  60.866  1.00  0.00    -0.084 Cl
ENDBRANCH   2  23
TORSDOF 7
ENDMDL
MODEL 7
REMARK VINA RESULT:      -8.8      3.779      6.902
REMARK  7 active torsions:
REMARK  status: ('A' for Active; 'I' for Inactive)
REMARK    1  A    between atoms: O_2  and  C_3 
REMARK    2  A    between atoms: C_5  and  C_6 
REMARK    3  A    between atoms: C_6  and  O_7 
REMARK    4  A    between atoms: C_6  and  C_8 
REMARK    5  A    between atoms: C_8  and  N_9 
REMARK       I    between atoms: N_9  and  C_10 
REMARK    6  A    between atoms: C_10  and  C_11 
REMARK    7  A    between atoms: C_12  and  C_13 
ROOT
HETATM    1  C   UNL     1       8.801  23.052  54.772  1.00  0.00     0.089 C 
HETATM    2  C   UNL     1       8.313  23.224  56.231  1.00  0.00     0.068 C 
HETATM    3  C   UNL     1       7.390  22.070  56.642  1.00  0.00     0.013 C 
HETATM    4  C   UNL     1       8.127  20.734  56.529  1.00  0.00     0.001 C 
HETATM    5  C   UNL     1       8.778  20.528  55.163  1.00  0.00     0.001 C 
HETATM    6  C   UNL     1       9.612  21.736  54.716  1.00  0.00     0.015 C 
ENDROOT
BRANCH   1   7
HETATM    7  C   UNL     1       7.741  23.023  53.647  1.00  0.00     0.222 C 
HETATM    8  N   UNL     1       6.983  24.151  53.473  1.00  0.00    -0.358 N 
HETATM    9  H   UNL     1       7.371  25.011  53.866  1.00  0.00     0.162 HD
HETATM   10  O   UNL     1       7.610  22.055  52.898  1.00  0.00    -0.273 OA
BRANCH   8  11
HETATM   11  C   UNL     1       6.095  24.326  52.328  1.00  0.00     0.159 C 
BRANCH  11  12
HETATM   12  C   UNL     1       4.839  25.175  52.627  1.00  0.00     0.169 C 
BRANCH  12  13
HETATM   13  C   UNL     1       4.993  26.592  52.103  1.00  0.00    -0.025 A 
HETATM   14  C   UNL     1       5.191  26.803  50.724  1.00  0.00     0.046 A 
HETATM   15  C   UNL     1       5.360  28.092  50.211  1.00  0.00     0.068 A 
HETATM   16  C   UNL     1       5.314  29.183  51.078  1.00  0.00     0.037 A 
HETATM   17  C   UNL     1       5.105  28.995  52.444  1.00  0.00     0.003 A 
HETATM   18  C   UNL     1       4.949  27.707  52.953  1.00  0.00     0.010 A 
BRANCH  15  19
HETATM   19  O   UNL     1       5.576  28.414  48.898  1.00  0.00    -0.356 OA
HETATM   20  C   UNL     1       4.915  27.619  47.923  1.00  0.00     0.210 C 
ENDBRANCH  15  19
ENDBRANCH  12  13
BRANCH  12  21
HETATM   21  O   UNL     1       4.611  25.175  54.044  1.00  0.00    -0.389 OA
HETATM   22  H   UNL     1       4.408  26.104  54.256  1.00  0.00     0.210 HD
ENDBRANCH  12  21
ENDBRANCH  11  12
ENDBRANCH   8  11
ENDBRANCH   1   7
BRANCH   2  23
HETATM   23  C   UNL     1       7.752  24.579  56.557  1.00  0.00     0.110 A 
HETATM   24  N   UNL     1       6.514  24.995  56.366  1.00  0.00    -0.233 NA
HETATM   25  C   UNL     1       6.498  26.319  56.734  1.00  0.00     0.087 A 
HETATM   26  C   UNL     1       7.753  26.723  57.171  1.00  0.00     0.062 A 
HETATM   27  C   UNL     1       5.442  27.238  56.712  1.00  0.00     0.057 A 
HETATM   28  N   UNL     1       8.532  25.600  57.052  1.00  0.00    -0.342 N 
HETATM   29  C   UNL     1       8.034  28.020  57.605  1.00  0.00     0.034 A 
HETATM   30  H   UNL     1       9.515  25.540  57.271  1.00  0.00     0.167 HD
HETATM   31  C   UNL     1       6.969  28.930  57.578  1.00  0.00     0.026 A 
HETATM   32  C   UNL     1       5.701  28.544  57.139  1.00  0.00     0.036 A 
HETATM   33 CL   UNL     1       4.426  29.704  57.120  1.00  0.00    -0.084 Cl
ENDBRANCH   2  23
TORSDOF 7
ENDMDL
MODEL 8
REMARK VINA RESULT:      -8.8      4.157      8.566
REMARK  7 active torsions:
REMARK  status: ('A' for Active; 'I' for Inactive)
REMARK    1  A    between atoms: O_2  and  C_3 
REMARK    2  A    between atoms: C_5  and  C_6 
REMARK    3  A    between atoms: C_6  and  O_7 
REMARK    4  A    between atoms: C_6  and  C_8 
REMARK    5  A    between atoms: C_8  and  N_9 
REMARK       I    between atoms: N_9  and  C_10 
REMARK    6  A    between atoms: C_10  and  C_11 
REMARK    7  A    between atoms: C_12  and  C_13 
ROOT
HETATM    1  C   UNL     1       6.225  27.703  52.373  1.00  0.00     0.089 C 
HETATM    2  C   UNL     1       6.397  26.234  51.916  1.00  0.00     0.068 C 
HETATM    3  C   UNL     1       5.110  25.705  51.271  1.00  0.00     0.013 C 
HETATM    4  C   UNL     1       4.737  26.553  50.053  1.00  0.00     0.001 C 
HETATM    5  C   UNL     1       4.684  28.048  50.364  1.00  0.00     0.001 C 
HETATM    6  C   UNL     1       5.933  28.543  51.107  1.00  0.00     0.015 C 
ENDROOT
BRANCH   1   7
HETATM    7  C   UNL     1       5.140  28.016  53.429  1.00  0.00     0.222 C 
HETATM    8  N   UNL     1       5.309  29.147  54.183  1.00  0.00    -0.358 N 
HETATM    9  H   UNL     1       5.942  29.849  53.793  1.00  0.00     0.162 HD
HETATM   10  O   UNL     1       4.135  27.317  53.560  1.00  0.00    -0.273 OA
BRANCH   8  11
HETATM   11  C   UNL     1       4.266  29.659  55.066  1.00  0.00     0.159 C 
BRANCH  11  12
HETATM   12  C   UNL     1       4.316  29.084  56.500  1.00  0.00     0.169 C 
BRANCH  12  13
HETATM   13  C   UNL     1       5.713  29.182  57.086  1.00  0.00    -0.025 A 
HETATM   14  C   UNL     1       6.176  30.421  57.574  1.00  0.00     0.046 A 
HETATM   15  C   UNL     1       7.464  30.552  58.098  1.00  0.00     0.068 A 
HETATM   16  C   UNL     1       8.296  29.433  58.153  1.00  0.00     0.037 A 
HETATM   17  C   UNL     1       7.851  28.196  57.688  1.00  0.00     0.003 A 
HETATM   18  C   UNL     1       6.569  28.073  57.155  1.00  0.00     0.010 A 
BRANCH  15  19
HETATM   19  O   UNL     1       8.024  31.703  58.582  1.00  0.00    -0.356 OA
HETATM   20  C   UNL     1       8.666  31.625  59.847  1.00  0.00     0.210 C 
ENDBRANCH  15  19
ENDBRANCH  12  13
BRANCH  12  21
HETATM   21  O   UNL     1       3.870  27.721  56.465  1.00  0.00    -0.389 OA
HETATM   22  H   UNL     1       4.252  27.321  57.266  1.00  0.00     0.210 HD
ENDBRANCH  12  21
ENDBRANCH  11  12
ENDBRANCH   8  11
ENDBRANCH   1   7
BRANCH   2  23
HETATM   23  C   UNL     1       6.966  25.310  52.954  1.00  0.00     0.110 A 
HETATM   24  N   UNL     1       7.344  24.057  52.782  1.00  0.00    -0.233 NA
HETATM   25  C   UNL     1       7.714  23.599  54.025  1.00  0.00     0.087 A 
HETATM   26  C   UNL     1       7.568  24.597  54.980  1.00  0.00     0.062 A 
HETATM   27  C   UNL     1       8.177  22.335  54.407  1.00  0.00     0.057 A 
HETATM   28  N   UNL     1       7.094  25.675  54.275  1.00  0.00    -0.342 N 
HETATM   29  C   UNL     1       7.866  24.415  56.331  1.00  0.00     0.034 A 
HETATM   30  H   UNL     1       6.860  26.576  54.664  1.00  0.00     0.167 HD
HETATM   31  C   UNL     1       8.327  23.146  56.702  1.00  0.00     0.026 A 
HETATM   32  C   UNL     1       8.478  22.128  55.757  1.00  0.00     0.036 A 
HETATM   33 CL   UNL     1       9.044  20.581  56.266  1.00  0.00    -0.084 Cl
ENDBRANCH   2  23
TORSDOF 7
ENDMDL
MODEL 9
REMARK VINA RESULT:      -8.8      6.138      9.116
REMARK  7 active torsions:
REMARK  status: ('A' for Active; 'I' for Inactive)
REMARK    1  A    between atoms: O_2  and  C_3 
REMARK    2  A    between atoms: C_5  and  C_6 
REMARK    3  A    between atoms: C_6  and  O_7 
REMARK    4  A    between atoms: C_6  and  C_8 
REMARK    5  A    between atoms: C_8  and  N_9 
REMARK       I    between atoms: N_9  and  C_10 
REMARK    6  A    between atoms: C_10  and  C_11 
REMARK    7  A    between atoms: C_12  and  C_13 
ROOT
HETATM    1  C   UNL     1       4.790  27.583  54.660  1.00  0.00     0.089 C 
HETATM    2  C   UNL     1       5.975  27.059  55.507  1.00  0.00     0.068 C 
HETATM    3  C   UNL     1       7.100  28.099  55.579  1.00  0.00     0.013 C 
HETATM    4  C   UNL     1       6.587  29.395  56.210  1.00  0.00     0.001 C 
HETATM    5  C   UNL     1       5.322  29.923  55.536  1.00  0.00     0.001 C 
HETATM    6  C   UNL     1       4.244  28.844  55.372  1.00  0.00     0.015 C 
ENDROOT
BRANCH   1   7
HETATM    7  C   UNL     1       5.050  27.933  53.177  1.00  0.00     0.222 C 
HETATM    8  N   UNL     1       3.989  27.838  52.316  1.00  0.00    -0.358 N 
HETATM    9  H   UNL     1       3.063  27.856  52.751  1.00  0.00     0.162 HD
HETATM   10  O   UNL     1       6.146  28.333  52.784  1.00  0.00    -0.273 OA
BRANCH   8  11
HETATM   11  C   UNL     1       4.051  28.329  50.944  1.00  0.00     0.159 C 
BRANCH  11  12
HETATM   12  C   UNL     1       4.654  27.319  49.939  1.00  0.00     0.169 C 
BRANCH  12  13
HETATM   13  C   UNL     1       3.663  26.976  48.841  1.00  0.00    -0.025 A 
HETATM   14  C   UNL     1       2.566  27.829  48.605  1.00  0.00     0.046 A 
HETATM   15  C   UNL     1       1.622  27.531  47.619  1.00  0.00     0.068 A 
HETATM   16  C   UNL     1       1.783  26.380  46.846  1.00  0.00     0.037 A 
HETATM   17  C   UNL     1       2.869  25.532  47.055  1.00  0.00     0.003 A 
HETATM   18  C   UNL     1       3.801  25.827  48.049  1.00  0.00     0.010 A 
BRANCH  15  19
HETATM   19  O   UNL     1       0.513  28.272  47.315  1.00  0.00    -0.356 OA
HETATM   20  C   UNL     1      -0.288  27.819  46.232  1.00  0.00     0.210 C 
ENDBRANCH  15  19
ENDBRANCH  12  13
BRANCH  12  21
HETATM   21  O   UNL     1       5.053  26.142  50.655  1.00  0.00    -0.389 OA
HETATM   22  H   UNL     1       5.555  26.481  51.417  1.00  0.00     0.210 HD
ENDBRANCH  12  21
ENDBRANCH  11  12
ENDBRANCH   8  11
ENDBRANCH   1   7
BRANCH   2  23
HETATM   23  C   UNL     1       6.457  25.685  55.140  1.00  0.00     0.110 A 
HETATM   24  N   UNL     1       6.638  24.662  55.953  1.00  0.00    -0.233 NA
HETATM   25  C   UNL     1       7.167  23.654  55.182  1.00  0.00     0.087 A 
HETATM   26  C   UNL     1       7.305  24.065  53.862  1.00  0.00     0.062 A 
HETATM   27  C   UNL     1       7.559  22.361  55.551  1.00  0.00     0.057 A 
HETATM   28  N   UNL     1       6.846  25.357  53.860  1.00  0.00    -0.342 N 
HETATM   29  C   UNL     1       7.819  23.248  52.854  1.00  0.00     0.034 A 
HETATM   30  H   UNL     1       6.816  25.971  53.059  1.00  0.00     0.167 HD
HETATM   31  C   UNL     1       8.209  21.958  53.235  1.00  0.00     0.026 A 
HETATM   32  C   UNL     1       8.082  21.527  54.558  1.00  0.00     0.036 A 
HETATM   33 CL   UNL     1       8.582  19.931  54.977  1.00  0.00    -0.084 Cl
ENDBRANCH   2  23
TORSDOF 7
ENDMDL
MODEL 10
REMARK VINA RESULT:      -8.6      5.135      6.675
REMARK  7 active torsions:
REMARK  status: ('A' for Active; 'I' for Inactive)
REMARK    1  A    between atoms: O_2  and  C_3 
REMARK    2  A    between atoms: C_5  and  C_6 
REMARK    3  A    between atoms: C_6  and  O_7 
REMARK    4  A    between atoms: C_6  and  C_8 
REMARK    5  A    between atoms: C_8  and  N_9 
REMARK       I    between atoms: N_9  and  C_10 
REMARK    6  A    between atoms: C_10  and  C_11 
REMARK    7  A    between atoms: C_12  and  C_13 
ROOT
HETATM    1  C   UNL     1       7.317  26.784  53.942  1.00  0.00     0.089 C 
HETATM    2  C   UNL     1       7.615  26.527  55.439  1.00  0.00     0.068 C 
HETATM    3  C   UNL     1       6.662  25.473  56.015  1.00  0.00     0.013 C 
HETATM    4  C   UNL     1       6.807  24.152  55.256  1.00  0.00     0.001 C 
HETATM    5  C   UNL     1       6.676  24.319  53.744  1.00  0.00     0.001 C 
HETATM    6  C   UNL     1       7.555  25.451  53.194  1.00  0.00     0.015 C 
ENDROOT
BRANCH   1   7
HETATM    7  C   UNL     1       5.918  27.318  53.558  1.00  0.00     0.222 C 
HETATM    8  N   UNL     1       5.702  27.614  52.238  1.00  0.00    -0.358 N 
HETATM    9  H   UNL     1       6.345  27.176  51.575  1.00  0.00     0.162 HD
HETATM   10  O   UNL     1       5.010  27.425  54.383  1.00  0.00    -0.273 OA
BRANCH   8  11
HETATM   11  C   UNL     1       4.377  27.931  51.716  1.00  0.00     0.159 C 
BRANCH  11  12
HETATM   12  C   UNL     1       4.391  28.599  50.321  1.00  0.00     0.169 C 
BRANCH  12  13
HETATM   13  C   UNL     1       3.755  27.704  49.273  1.00  0.00    -0.025 A 
HETATM   14  C   UNL     1       2.393  27.874  48.950  1.00  0.00     0.046 A 
HETATM   15  C   UNL     1       1.770  27.052  48.008  1.00  0.00     0.068 A 
HETATM   16  C   UNL     1       2.514  26.061  47.367  1.00  0.00     0.037 A 
HETATM   17  C   UNL     1       3.865  25.887  47.664  1.00  0.00     0.003 A 
HETATM   18  C   UNL     1       4.480  26.701  48.614  1.00  0.00     0.010 A 
BRANCH  15  19
HETATM   19  O   UNL     1       0.456  27.114  47.629  1.00  0.00    -0.356 OA
HETATM   20  C   UNL     1       0.191  27.474  46.280  1.00  0.00     0.210 C 
ENDBRANCH  15  19
ENDBRANCH  12  13
BRANCH  12  21
HETATM   21  O   UNL     1       5.749  28.909  49.974  1.00  0.00    -0.389 OA
HETATM   22  H   UNL     1       5.827  29.865  50.136  1.00  0.00     0.210 HD
ENDBRANCH  12  21
ENDBRANCH  11  12
ENDBRANCH   8  11
ENDBRANCH   1   7
BRANCH   2  23
HETATM   23  C   UNL     1       7.718  27.763  56.287  1.00  0.00     0.110 A 
HETATM   24  N   UNL     1       8.785  28.202  56.926  1.00  0.00    -0.233 NA
HETATM   25  C   UNL     1       8.375  29.310  57.630  1.00  0.00     0.087 A 
HETATM   26  C   UNL     1       7.028  29.562  57.409  1.00  0.00     0.062 A 
HETATM   27  C   UNL     1       9.107  30.144  58.485  1.00  0.00     0.057 A 
HETATM   28  N   UNL     1       6.633  28.568  56.551  1.00  0.00    -0.342 N 
HETATM   29  C   UNL     1       6.339  30.625  57.997  1.00  0.00     0.034 A 
HETATM   30  H   UNL     1       5.699  28.438  56.190  1.00  0.00     0.167 HD
HETATM   31  C   UNL     1       7.081  31.451  58.851  1.00  0.00     0.026 A 
HETATM   32  C   UNL     1       8.437  31.212  59.089  1.00  0.00     0.036 A 
HETATM   33 CL   UNL     1       9.304  32.255  60.153  1.00  0.00    -0.084 Cl
ENDBRANCH   2  23
TORSDOF 7
ENDMDL
