MODEL 1
REMARK VINA RESULT:     -11.5      0.000      0.000
REMARK  6 active torsions:
REMARK  status: ('A' for Active; 'I' for Inactive)
REMARK    1  A    between atoms: C_7  and  N_8 
REMARK       I    between atoms: N_8  and  C_9 
REMARK    2  A    between atoms: C_9  and  C_10 
REMARK    3  A    between atoms: C_10  and  N_11 
REMARK       I    between atoms: N_11  and  C_12 
REMARK    4  A    between atoms: C_12  and  C_13 
REMARK    5  A    between atoms: N_16  and  C_17 
REMARK    6  A    between atoms: C_23  and  O_24 
ROOT
HETATM    1  C   UNL     1       6.688  28.611  56.496  1.00  0.00     0.080 C 
HETATM    2  C   UNL     1       6.524  28.378  54.987  1.00  0.00     0.029 C 
HETATM    3  C   UNL     1       7.404  27.234  54.482  1.00  0.00     0.098 C 
HETATM    4  N   UNL     1       7.084  26.033  55.258  1.00  0.00    -0.268 NA
HETATM    5  C   UNL     1       7.411  26.160  56.685  1.00  0.00     0.098 C 
HETATM    6  C   UNL     1       6.583  27.299  57.285  1.00  0.00     0.029 C 
ENDROOT
BRANCH   1   7
HETATM    7  C   UNL     1       7.969  29.377  56.814  1.00  0.00     0.222 C 
HETATM    8  N   UNL     1       8.047  29.808  58.119  1.00  0.00    -0.352 N 
HETATM    9  H   UNL     1       7.276  29.654  58.756  1.00  0.00     0.162 HD
HETATM   10  O   UNL     1       8.868  29.589  56.006  1.00  0.00    -0.273 OA
BRANCH   8  11
HETATM   11  C   UNL     1       9.245  30.429  58.649  1.00  0.00     0.225 C 
BRANCH  11  12
HETATM   12  C   UNL     1       8.925  31.511  59.684  1.00  0.00     0.239 C 
HETATM   13  N   UNL     1       8.294  30.995  60.801  1.00  0.00    -0.326 N 
HETATM   14  H   UNL     1       8.296  29.975  60.876  1.00  0.00     0.169 HD
HETATM   15  O   UNL     1       9.240  32.681  59.489  1.00  0.00    -0.271 OA
BRANCH  13  16
HETATM   16  C   UNL     1       7.699  31.703  61.862  1.00  0.00     0.035 A 
HETATM   17  C   UNL     1       8.397  32.166  62.974  1.00  0.00     0.031 A 
HETATM   18  C   UNL     1       7.739  32.904  63.962  1.00  0.00     0.022 A 
HETATM   19  C   UNL     1       6.378  33.191  63.842  1.00  0.00     0.017 A 
HETATM   20  C   UNL     1       5.652  32.734  62.732  1.00  0.00    -0.043 A 
HETATM   21 BR   UNL     1       5.572  34.223  65.216  1.00  0.00    -0.051 Br
HETATM   22  C   UNL     1       4.192  33.034  62.545  1.00  0.00     0.049 C 
HETATM   23  C   UNL     1       6.330  31.986  61.752  1.00  0.00     0.037 A 
ENDBRANCH  13  16
ENDBRANCH  11  12
ENDBRANCH   8  11
ENDBRANCH   1   7
BRANCH   4  24
HETATM   24  C   UNL     1       7.456  24.809  54.678  1.00  0.00     0.106 A 
HETATM   25  N   UNL     1       7.769  23.762  55.473  1.00  0.00    -0.233 NA
HETATM   26  C   UNL     1       8.052  22.562  54.914  1.00  0.00     0.102 A 
HETATM   27  C   UNL     1       8.045  22.340  53.529  1.00  0.00    -0.004 A 
HETATM   28  C   UNL     1       8.353  21.482  55.737  1.00  0.00     0.095 A 
HETATM   29  C   UNL     1       7.720  23.421  52.712  1.00  0.00     0.017 A 
HETATM   30  C   UNL     1       8.343  21.065  53.008  1.00  0.00     0.014 A 
HETATM   31  C   UNL     1       7.412  24.651  53.292  1.00  0.00     0.045 A 
HETATM   32  C   UNL     1       8.640  20.006  53.867  1.00  0.00     0.004 A 
HETATM   33  C   UNL     1       8.644  20.214  55.241  1.00  0.00     0.039 A 
BRANCH  28  34
HETATM   34  O   UNL     1       8.357  21.661  57.100  1.00  0.00    -0.358 OA
HETATM   35  H   UNL     1       9.098  21.095  57.403  1.00  0.00     0.218 HD
ENDBRANCH  28  34
ENDBRANCH   4  24
TORSDOF 6
ENDMDL
MODEL 2
REMARK VINA RESULT:     -10.9      3.987     11.652
REMARK  6 active torsions:
REMARK  status: ('A' for Active; 'I' for Inactive)
REMARK    1  A    between atoms: C_7  and  N_8 
REMARK       I    between atoms: N_8  and  C_9 
REMARK    2  A    between atoms: C_9  and  C_10 
REMARK    3  A    between atoms: C_10  and  N_11 
REMARK       I    between atoms: N_11  and  C_12 
REMARK    4  A    between atoms: C_12  and  C_13 
REMARK    5  A    between atoms: N_16  and  C_17 
REMARK    6  A    between atoms: C_23  and  O_24 
ROOT
HETATM    1  C   UNL     1       6.715  30.826  57.465  1.00  0.00     0.080 C 
HETATM    2  C   UNL     1       5.804  31.969  57.935  1.00  0.00     0.029 C 
HETATM    3  C   UNL     1       5.622  31.973  59.453  1.00  0.00     0.098 C 
HETATM    4  N   UNL     1       6.947  32.042  60.074  1.00  0.00    -0.268 NA
HETATM    5  C   UNL     1       7.779  30.864  59.796  1.00  0.00     0.098 C 
HETATM    6  C   UNL     1       8.011  30.763  58.287  1.00  0.00     0.029 C 
ENDROOT
BRANCH   1   7
HETATM    7  C   UNL     1       5.981  29.489  57.440  1.00  0.00     0.222 C 
HETATM    8  N   UNL     1       6.817  28.399  57.360  1.00  0.00    -0.352 N 
HETATM    9  H   UNL     1       7.817  28.526  57.273  1.00  0.00     0.162 HD
HETATM   10  O   UNL     1       4.761  29.368  57.500  1.00  0.00    -0.273 OA
BRANCH   8  11
HETATM   11  C   UNL     1       6.316  27.042  57.465  1.00  0.00     0.225 C 
BRANCH  11  12
HETATM   12  C   UNL     1       7.205  26.040  56.723  1.00  0.00     0.239 C 
HETATM   13  N   UNL     1       6.494  25.290  55.804  1.00  0.00    -0.326 N 
HETATM   14  H   UNL     1       5.545  25.619  55.608  1.00  0.00     0.169 HD
HETATM   15  O   UNL     1       8.409  25.979  56.951  1.00  0.00    -0.271 OA
BRANCH  13  16
HETATM   16  C   UNL     1       6.935  24.168  55.079  1.00  0.00     0.035 A 
HETATM   17  C   UNL     1       7.162  24.172  53.705  1.00  0.00     0.031 A 
HETATM   18  C   UNL     1       7.646  23.026  53.067  1.00  0.00     0.022 A 
HETATM   19  C   UNL     1       7.913  21.869  53.800  1.00  0.00     0.017 A 
HETATM   20  C   UNL     1       7.690  21.838  55.184  1.00  0.00    -0.043 A 
HETATM   21 BR   UNL     1       8.595  20.369  52.857  1.00  0.00    -0.051 Br
HETATM   22  C   UNL     1       7.983  20.625  56.021  1.00  0.00     0.049 C 
HETATM   23  C   UNL     1       7.195  22.999  55.807  1.00  0.00     0.037 A 
ENDBRANCH  13  16
ENDBRANCH  11  12
ENDBRANCH   8  11
ENDBRANCH   1   7
BRANCH   4  24
HETATM   24  C   UNL     1       6.979  32.482  61.407  1.00  0.00     0.106 A 
HETATM   25  N   UNL     1       5.827  32.831  62.022  1.00  0.00    -0.233 NA
HETATM   26  C   UNL     1       5.848  33.181  63.329  1.00  0.00     0.102 A 
HETATM   27  C   UNL     1       7.021  33.209  64.097  1.00  0.00    -0.004 A 
HETATM   28  C   UNL     1       4.656  33.519  63.963  1.00  0.00     0.095 A 
HETATM   29  C   UNL     1       8.207  32.846  63.461  1.00  0.00     0.017 A 
HETATM   30  C   UNL     1       6.977  33.576  65.456  1.00  0.00     0.014 A 
HETATM   31  C   UNL     1       8.179  32.470  62.118  1.00  0.00     0.045 A 
HETATM   32  C   UNL     1       5.762  33.909  66.057  1.00  0.00     0.004 A 
HETATM   33  C   UNL     1       4.593  33.879  65.306  1.00  0.00     0.039 A 
BRANCH  28  34
HETATM   34  O   UNL     1       3.485  33.491  63.243  1.00  0.00    -0.358 OA
HETATM   35  H   UNL     1       3.463  32.580  62.879  1.00  0.00     0.218 HD
ENDBRANCH  28  34
ENDBRANCH   4  24
TORSDOF 6
ENDMDL
MODEL 3
REMARK VINA RESULT:     -10.6      5.067      7.660
REMARK  6 active torsions:
REMARK  status: ('A' for Active; 'I' for Inactive)
REMARK    1  A    between atoms: C_7  and  N_8 
REMARK       I    between atoms: N_8  and  C_9 
REMARK    2  A    between atoms: C_9  and  C_10 
REMARK    3  A    between atoms: C_10  and  N_11 
REMARK       I    between atoms: N_11  and  C_12 
REMARK    4  A    between atoms: C_12  and  C_13 
REMARK    5  A    between atoms: N_16  and  C_17 
REMARK    6  A    between atoms: C_23  and  O_24 
ROOT
HETATM    1  C   UNL     1       7.303  29.039  56.838  1.00  0.00     0.080 C 
HETATM    2  C   UNL     1       7.323  27.705  57.597  1.00  0.00     0.029 C 
HETATM    3  C   UNL     1       6.889  26.534  56.716  1.00  0.00     0.098 C 
HETATM    4  N   UNL     1       7.755  26.502  55.535  1.00  0.00    -0.268 NA
HETATM    5  C   UNL     1       7.616  27.690  54.682  1.00  0.00     0.098 C 
HETATM    6  C   UNL     1       8.019  28.929  55.484  1.00  0.00     0.029 C 
ENDROOT
BRANCH   1   7
HETATM    7  C   UNL     1       5.888  29.591  56.700  1.00  0.00     0.222 C 
HETATM    8  N   UNL     1       5.758  30.543  55.715  1.00  0.00    -0.352 N 
HETATM    9  H   UNL     1       6.567  30.854  55.193  1.00  0.00     0.162 HD
HETATM   10  O   UNL     1       4.933  29.227  57.381  1.00  0.00    -0.273 OA
BRANCH   8  11
HETATM   11  C   UNL     1       4.465  31.083  55.339  1.00  0.00     0.225 C 
BRANCH  11  12
HETATM   12  C   UNL     1       4.058  30.671  53.922  1.00  0.00     0.239 C 
HETATM   13  N   UNL     1       4.980  29.820  53.339  1.00  0.00    -0.326 N 
HETATM   14  H   UNL     1       5.687  29.438  53.972  1.00  0.00     0.169 HD
HETATM   15  O   UNL     1       3.008  31.070  53.428  1.00  0.00    -0.271 OA
BRANCH  13  16
HETATM   16  C   UNL     1       5.030  29.385  52.002  1.00  0.00     0.035 A 
HETATM   17  C   UNL     1       5.189  30.239  50.914  1.00  0.00     0.031 A 
HETATM   18  C   UNL     1       5.277  29.721  49.618  1.00  0.00     0.022 A 
HETATM   19  C   UNL     1       5.213  28.344  49.402  1.00  0.00     0.017 A 
HETATM   20  C   UNL     1       5.050  27.463  50.481  1.00  0.00    -0.043 A 
HETATM   21 BR   UNL     1       5.369  27.727  47.613  1.00  0.00    -0.051 Br
HETATM   22  C   UNL     1       4.999  25.972  50.303  1.00  0.00     0.049 C 
HETATM   23  C   UNL     1       4.956  28.004  51.776  1.00  0.00     0.037 A 
ENDBRANCH  13  16
ENDBRANCH  11  12
ENDBRANCH   8  11
ENDBRANCH   1   7
BRANCH   4  24
HETATM   24  C   UNL     1       7.803  25.283  54.840  1.00  0.00     0.106 A 
HETATM   25  N   UNL     1       7.994  24.133  55.524  1.00  0.00    -0.233 NA
HETATM   26  C   UNL     1       7.962  22.952  54.864  1.00  0.00     0.102 A 
HETATM   27  C   UNL     1       7.745  22.850  53.482  1.00  0.00    -0.004 A 
HETATM   28  C   UNL     1       8.138  21.769  55.576  1.00  0.00     0.095 A 
HETATM   29  C   UNL     1       7.546  24.037  52.780  1.00  0.00     0.017 A 
HETATM   30  C   UNL     1       7.717  21.590  52.853  1.00  0.00     0.014 A 
HETATM   31  C   UNL     1       7.562  25.252  53.466  1.00  0.00     0.045 A 
HETATM   32  C   UNL     1       7.897  20.426  53.601  1.00  0.00     0.004 A 
HETATM   33  C   UNL     1       8.108  20.514  54.973  1.00  0.00     0.039 A 
BRANCH  28  34
HETATM   34  O   UNL     1       8.341  21.830  56.934  1.00  0.00    -0.358 OA
HETATM   35  H   UNL     1       9.281  22.098  57.013  1.00  0.00     0.218 HD
ENDBRANCH  28  34
ENDBRANCH   4  24
TORSDOF 6
ENDMDL
MODEL 4
REMARK VINA RESULT:     -10.5      1.231      2.069
REMARK  6 active torsions:
REMARK  status: ('A' for Active; 'I' for Inactive)
REMARK    1  A    between atoms: C_7  and  N_8 
REMARK       I    between atoms: N_8  and  C_9 
REMARK    2  A    between atoms: C_9  and  C_10 
REMARK    3  A    between atoms: C_10  and  N_11 
REMARK       I    between atoms: N_11  and  C_12 
REMARK    4  A    between atoms: C_12  and  C_13 
REMARK    5  A    between atoms: N_16  and  C_17 
REMARK    6  A    between atoms: C_23  and  O_24 
ROOT
HETATM    1  C   UNL     1       6.659  28.720  56.250  1.00  0.00     0.080 C 
HETATM    2  C   UNL     1       6.841  28.028  54.891  1.00  0.00     0.029 C 
HETATM    3  C   UNL     1       7.693  26.763  54.998  1.00  0.00     0.098 C 
HETATM    4  N   UNL     1       7.072  25.874  55.983  1.00  0.00    -0.268 NA
HETATM    5  C   UNL     1       7.055  26.436  57.341  1.00  0.00     0.098 C 
HETATM    6  C   UNL     1       6.230  27.724  57.337  1.00  0.00     0.029 C 
ENDROOT
BRANCH   1   7
HETATM    7  C   UNL     1       7.898  29.516  56.651  1.00  0.00     0.222 C 
HETATM    8  N   UNL     1       7.895  29.918  57.967  1.00  0.00    -0.352 N 
HETATM    9  H   UNL     1       7.098  29.726  58.560  1.00  0.00     0.162 HD
HETATM   10  O   UNL     1       8.830  29.774  55.895  1.00  0.00    -0.273 OA
BRANCH   8  11
HETATM   11  C   UNL     1       9.045  30.563  58.571  1.00  0.00     0.225 C 
BRANCH  11  12
HETATM   12  C   UNL     1       8.638  31.666  59.552  1.00  0.00     0.239 C 
HETATM   13  N   UNL     1       7.587  31.281  60.365  1.00  0.00    -0.326 N 
HETATM   14  H   UNL     1       7.353  30.285  60.339  1.00  0.00     0.169 HD
HETATM   15  O   UNL     1       9.235  32.738  59.577  1.00  0.00    -0.271 OA
BRANCH  13  16
HETATM   16  C   UNL     1       6.841  32.081  61.250  1.00  0.00     0.035 A 
HETATM   17  C   UNL     1       5.560  32.554  60.976  1.00  0.00     0.031 A 
HETATM   18  C   UNL     1       4.868  33.305  61.931  1.00  0.00     0.022 A 
HETATM   19  C   UNL     1       5.449  33.584  63.169  1.00  0.00     0.017 A 
HETATM   20  C   UNL     1       6.738  33.121  63.467  1.00  0.00    -0.043 A 
HETATM   21 BR   UNL     1       4.425  34.586  64.414  1.00  0.00    -0.051 Br
HETATM   22  C   UNL     1       7.398  33.374  64.793  1.00  0.00     0.049 C 
HETATM   23  C   UNL     1       7.423  32.373  62.492  1.00  0.00     0.037 A 
ENDBRANCH  13  16
ENDBRANCH  11  12
ENDBRANCH   8  11
ENDBRANCH   1   7
BRANCH   4  24
HETATM   24  C   UNL     1       7.444  24.522  55.912  1.00  0.00     0.106 A 
HETATM   25  N   UNL     1       7.483  23.904  54.710  1.00  0.00    -0.233 NA
HETATM   26  C   UNL     1       7.915  22.624  54.633  1.00  0.00     0.102 A 
HETATM   27  C   UNL     1       8.328  21.884  55.751  1.00  0.00    -0.004 A 
HETATM   28  C   UNL     1       7.974  21.999  53.390  1.00  0.00     0.095 A 
HETATM   29  C   UNL     1       8.289  22.525  56.988  1.00  0.00     0.017 A 
HETATM   30  C   UNL     1       8.774  20.556  55.604  1.00  0.00     0.014 A 
HETATM   31  C   UNL     1       7.859  23.849  57.062  1.00  0.00     0.045 A 
HETATM   32  C   UNL     1       8.818  19.964  54.341  1.00  0.00     0.004 A 
HETATM   33  C   UNL     1       8.417  20.689  53.226  1.00  0.00     0.039 A 
BRANCH  28  34
HETATM   34  O   UNL     1       7.589  22.698  52.272  1.00  0.00    -0.358 OA
HETATM   35  H   UNL     1       6.653  22.431  52.145  1.00  0.00     0.218 HD
ENDBRANCH  28  34
ENDBRANCH   4  24
TORSDOF 6
ENDMDL
MODEL 5
REMARK VINA RESULT:     -10.5      1.944      2.713
REMARK  6 active torsions:
REMARK  status: ('A' for Active; 'I' for Inactive)
REMARK    1  A    between atoms: C_7  and  N_8 
REMARK       I    between atoms: N_8  and  C_9 
REMARK    2  A    between atoms: C_9  and  C_10 
REMARK    3  A    between atoms: C_10  and  N_11 
REMARK       I    between atoms: N_11  and  C_12 
REMARK    4  A    between atoms: C_12  and  C_13 
REMARK    5  A    between atoms: N_16  and  C_17 
REMARK    6  A    between atoms: C_23  and  O_24 
ROOT
HETATM    1  C   UNL     1       7.029  28.846  57.021  1.00  0.00     0.080 C 
HETATM    2  C   UNL     1       7.268  27.519  57.755  1.00  0.00     0.029 C 
HETATM    3  C   UNL     1       6.886  26.311  56.900  1.00  0.00     0.098 C 
HETATM    4  N   UNL     1       7.636  26.382  55.644  1.00  0.00    -0.268 NA
HETATM    5  C   UNL     1       7.286  27.551  54.825  1.00  0.00     0.098 C 
HETATM    6  C   UNL     1       7.623  28.824  55.605  1.00  0.00     0.029 C 
ENDROOT
BRANCH   1   7
HETATM    7  C   UNL     1       5.554  29.237  57.023  1.00  0.00     0.222 C 
HETATM    8  N   UNL     1       5.219  30.127  58.018  1.00  0.00    -0.352 N 
HETATM    9  H   UNL     1       5.911  30.425  58.694  1.00  0.00     0.162 HD
HETATM   10  O   UNL     1       4.727  28.823  56.216  1.00  0.00    -0.273 OA
BRANCH   8  11
HETATM   11  C   UNL     1       3.899  30.723  58.096  1.00  0.00     0.225 C 
BRANCH  11  12
HETATM   12  C   UNL     1       3.838  31.854  59.127  1.00  0.00     0.239 C 
HETATM   13  N   UNL     1       4.702  31.644  60.186  1.00  0.00    -0.326 N 
HETATM   14  H   UNL     1       5.381  30.891  60.056  1.00  0.00     0.169 HD
HETATM   15  O   UNL     1       3.099  32.820  58.958  1.00  0.00    -0.271 OA
BRANCH  13  16
HETATM   16  C   UNL     1       4.786  32.369  61.389  1.00  0.00     0.035 A 
HETATM   17  C   UNL     1       3.696  32.975  62.008  1.00  0.00     0.031 A 
HETATM   18  C   UNL     1       3.857  33.638  63.229  1.00  0.00     0.022 A 
HETATM   19  C   UNL     1       5.109  33.693  63.843  1.00  0.00     0.017 A 
HETATM   20  C   UNL     1       6.223  33.093  63.239  1.00  0.00    -0.043 A 
HETATM   21 BR   UNL     1       5.230  34.589  65.513  1.00  0.00    -0.051 Br
HETATM   22  C   UNL     1       7.587  33.105  63.870  1.00  0.00     0.049 C 
HETATM   23  C   UNL     1       6.043  32.437  62.007  1.00  0.00     0.037 A 
ENDBRANCH  13  16
ENDBRANCH  11  12
ENDBRANCH   8  11
ENDBRANCH   1   7
BRANCH   4  24
HETATM   24  C   UNL     1       7.753  25.179  54.929  1.00  0.00     0.106 A 
HETATM   25  N   UNL     1       7.973  24.025  55.597  1.00  0.00    -0.233 NA
HETATM   26  C   UNL     1       8.009  22.856  54.916  1.00  0.00     0.102 A 
HETATM   27  C   UNL     1       7.834  22.772  53.527  1.00  0.00    -0.004 A 
HETATM   28  C   UNL     1       8.214  21.668  55.611  1.00  0.00     0.095 A 
HETATM   29  C   UNL     1       7.605  23.963  52.840  1.00  0.00     0.017 A 
HETATM   30  C   UNL     1       7.876  21.523  52.875  1.00  0.00     0.014 A 
HETATM   31  C   UNL     1       7.552  25.164  53.548  1.00  0.00     0.045 A 
HETATM   32  C   UNL     1       8.084  20.354  53.607  1.00  0.00     0.004 A 
HETATM   33  C   UNL     1       8.253  20.425  54.985  1.00  0.00     0.039 A 
BRANCH  28  34
HETATM   34  O   UNL     1       8.377  21.712  56.976  1.00  0.00    -0.358 OA
HETATM   35  H   UNL     1       8.889  20.899  57.171  1.00  0.00     0.218 HD
ENDBRANCH  28  34
ENDBRANCH   4  24
TORSDOF 6
ENDMDL
MODEL 6
REMARK VINA RESULT:     -10.5      2.009      2.815
REMARK  6 active torsions:
REMARK  status: ('A' for Active; 'I' for Inactive)
REMARK    1  A    between atoms: C_7  and  N_8 
REMARK       I    between atoms: N_8  and  C_9 
REMARK    2  A    between atoms: C_9  and  C_10 
REMARK    3  A    between atoms: C_10  and  N_11 
REMARK       I    between atoms: N_11  and  C_12 
REMARK    4  A    between atoms: C_12  and  C_13 
REMARK    5  A    between atoms: N_16  and  C_17 
REMARK    6  A    between atoms: C_23  and  O_24 
ROOT
HETATM    1  C   UNL     1       6.445  28.869  54.024  1.00  0.00     0.080 C 
HETATM    2  C   UNL     1       7.799  28.379  54.554  1.00  0.00     0.029 C 
HETATM    3  C   UNL     1       7.738  26.930  55.039  1.00  0.00     0.098 C 
HETATM    4  N   UNL     1       7.250  26.098  53.936  1.00  0.00    -0.268 NA
HETATM    5  C   UNL     1       5.875  26.421  53.531  1.00  0.00     0.098 C 
HETATM    6  C   UNL     1       5.828  27.868  53.037  1.00  0.00     0.029 C 
ENDROOT
BRANCH   1   7
HETATM    7  C   UNL     1       5.488  29.227  55.158  1.00  0.00     0.222 C 
HETATM    8  N   UNL     1       5.514  30.559  55.505  1.00  0.00    -0.352 N 
HETATM    9  H   UNL     1       6.164  31.192  55.057  1.00  0.00     0.162 HD
HETATM   10  O   UNL     1       4.744  28.426  55.715  1.00  0.00    -0.273 OA
BRANCH   8  11
HETATM   11  C   UNL     1       4.580  31.117  56.462  1.00  0.00     0.225 C 
BRANCH  11  12
HETATM   12  C   UNL     1       5.280  31.980  57.515  1.00  0.00     0.239 C 
HETATM   13  N   UNL     1       5.535  31.279  58.680  1.00  0.00    -0.326 N 
HETATM   14  H   UNL     1       5.404  30.267  58.621  1.00  0.00     0.169 HD
HETATM   15  O   UNL     1       5.572  33.148  57.279  1.00  0.00    -0.271 OA
BRANCH  13  16
HETATM   16  C   UNL     1       5.996  31.785  59.909  1.00  0.00     0.035 A 
HETATM   17  C   UNL     1       5.177  32.408  60.848  1.00  0.00     0.031 A 
HETATM   18  C   UNL     1       5.706  32.840  62.068  1.00  0.00     0.022 A 
HETATM   19  C   UNL     1       7.057  32.648  62.361  1.00  0.00     0.017 A 
HETATM   20  C   UNL     1       7.903  32.027  61.431  1.00  0.00    -0.043 A 
HETATM   21 BR   UNL     1       7.683  33.242  64.052  1.00  0.00    -0.051 Br
HETATM   22  C   UNL     1       9.359  31.776  61.707  1.00  0.00     0.049 C 
HETATM   23  C   UNL     1       7.354  31.605  60.206  1.00  0.00     0.037 A 
ENDBRANCH  13  16
ENDBRANCH  11  12
ENDBRANCH   8  11
ENDBRANCH   1   7
BRANCH   4  24
HETATM   24  C   UNL     1       7.526  24.725  54.033  1.00  0.00     0.106 A 
HETATM   25  N   UNL     1       7.811  24.186  55.240  1.00  0.00    -0.233 NA
HETATM   26  C   UNL     1       8.001  22.850  55.345  1.00  0.00     0.102 A 
HETATM   27  C   UNL     1       7.924  21.975  54.252  1.00  0.00    -0.004 A 
HETATM   28  C   UNL     1       8.273  22.297  56.594  1.00  0.00     0.095 A 
HETATM   29  C   UNL     1       7.628  22.533  53.010  1.00  0.00     0.017 A 
HETATM   30  C   UNL     1       8.126  20.592  54.427  1.00  0.00     0.014 A 
HETATM   31  C   UNL     1       7.416  23.908  52.907  1.00  0.00     0.045 A 
HETATM   32  C   UNL     1       8.397  20.075  55.695  1.00  0.00     0.004 A 
HETATM   33  C   UNL     1       8.469  20.932  56.787  1.00  0.00     0.039 A 
BRANCH  28  34
HETATM   34  O   UNL     1       8.342  23.124  57.690  1.00  0.00    -0.358 OA
HETATM   35  H   UNL     1       7.922  23.954  57.378  1.00  0.00     0.218 HD
ENDBRANCH  28  34
ENDBRANCH   4  24
TORSDOF 6
ENDMDL
MODEL 7
REMARK VINA RESULT:     -10.1      4.221     11.971
REMARK  6 active torsions:
REMARK  status: ('A' for Active; 'I' for Inactive)
REMARK    1  A    between atoms: C_7  and  N_8 
REMARK       I    between atoms: N_8  and  C_9 
REMARK    2  A    between atoms: C_9  and  C_10 
REMARK    3  A    between atoms: C_10  and  N_11 
REMARK       I    between atoms: N_11  and  C_12 
REMARK    4  A    between atoms: C_12  and  C_13 
REMARK    5  A    between atoms: N_16  and  C_17 
REMARK    6  A    between atoms: C_23  and  O_24 
ROOT
HETATM    1  C   UNL     1       5.452  32.320  58.288  1.00  0.00     0.080 C 
HETATM    2  C   UNL     1       4.607  33.374  59.017  1.00  0.00     0.029 C 
HETATM    3  C   UNL     1       4.590  33.155  60.530  1.00  0.00     0.098 C 
HETATM    4  N   UNL     1       5.976  33.143  61.006  1.00  0.00    -0.268 NA
HETATM    5  C   UNL     1       6.763  32.025  60.469  1.00  0.00     0.098 C 
HETATM    6  C   UNL     1       6.829  32.148  58.945  1.00  0.00     0.029 C 
ENDROOT
BRANCH   1   7
HETATM    7  C   UNL     1       4.708  30.996  58.148  1.00  0.00     0.222 C 
HETATM    8  N   UNL     1       5.467  29.989  57.596  1.00  0.00    -0.352 N 
HETATM    9  H   UNL     1       6.410  30.175  57.279  1.00  0.00     0.162 HD
HETATM   10  O   UNL     1       3.546  30.814  58.500  1.00  0.00    -0.273 OA
BRANCH   8  11
HETATM   11  C   UNL     1       4.983  28.625  57.511  1.00  0.00     0.225 C 
BRANCH  11  12
HETATM   12  C   UNL     1       6.079  27.651  57.072  1.00  0.00     0.239 C 
HETATM   13  N   UNL     1       5.674  26.848  56.020  1.00  0.00    -0.326 N 
HETATM   14  H   UNL     1       4.803  27.127  55.564  1.00  0.00     0.169 HD
HETATM   15  O   UNL     1       7.177  27.651  57.619  1.00  0.00    -0.271 OA
BRANCH  13  16
HETATM   16  C   UNL     1       6.340  25.733  55.479  1.00  0.00     0.035 A 
HETATM   17  C   UNL     1       6.518  24.530  56.159  1.00  0.00     0.031 A 
HETATM   18  C   UNL     1       7.149  23.452  55.531  1.00  0.00     0.022 A 
HETATM   19  C   UNL     1       7.603  23.567  54.216  1.00  0.00     0.017 A 
HETATM   20  C   UNL     1       7.438  24.768  53.511  1.00  0.00    -0.043 A 
HETATM   21 BR   UNL     1       8.423  22.045  53.433  1.00  0.00    -0.051 Br
HETATM   22  C   UNL     1       7.887  24.935  52.087  1.00  0.00     0.049 C 
HETATM   23  C   UNL     1       6.807  25.844  54.162  1.00  0.00     0.037 A 
ENDBRANCH  13  16
ENDBRANCH  11  12
ENDBRANCH   8  11
ENDBRANCH   1   7
BRANCH   4  24
HETATM   24  C   UNL     1       6.157  33.383  62.378  1.00  0.00     0.106 A 
HETATM   25  N   UNL     1       5.123  33.847  63.115  1.00  0.00    -0.233 NA
HETATM   26  C   UNL     1       5.275  34.004  64.451  1.00  0.00     0.102 A 
HETATM   27  C   UNL     1       6.470  33.715  65.127  1.00  0.00    -0.004 A 
HETATM   28  C   UNL     1       4.202  34.462  65.209  1.00  0.00     0.095 A 
HETATM   29  C   UNL     1       7.533  33.235  64.364  1.00  0.00     0.017 A 
HETATM   30  C   UNL     1       6.563  33.894  66.521  1.00  0.00     0.014 A 
HETATM   31  C   UNL     1       7.368  33.057  62.991  1.00  0.00     0.045 A 
HETATM   32  C   UNL     1       5.465  34.355  67.247  1.00  0.00     0.004 A 
HETATM   33  C   UNL     1       4.274  34.640  66.588  1.00  0.00     0.039 A 
BRANCH  28  34
HETATM   34  O   UNL     1       3.012  34.744  64.581  1.00  0.00    -0.358 OA
HETATM   35  H   UNL     1       2.397  34.072  64.944  1.00  0.00     0.218 HD
ENDBRANCH  28  34
ENDBRANCH   4  24
TORSDOF 6
ENDMDL
MODEL 8
REMARK VINA RESULT:     -10.0      2.077      2.770
REMARK  6 active torsions:
REMARK  status: ('A' for Active; 'I' for Inactive)
REMARK    1  A    between atoms: C_7  and  N_8 
REMARK       I    between atoms: N_8  and  C_9 
REMARK    2  A    between atoms: C_9  and  C_10 
REMARK    3  A    between atoms: C_10  and  N_11 
REMARK       I    between atoms: N_11  and  C_12 
REMARK    4  A    between atoms: C_12  and  C_13 
REMARK    5  A    between atoms: N_16  and  C_17 
REMARK    6  A    between atoms: C_23  and  O_24 
ROOT
HETATM    1  C   UNL     1       6.882  29.910  57.118  1.00  0.00     0.080 C 
HETATM    2  C   UNL     1       7.821  29.457  55.991  1.00  0.00     0.029 C 
HETATM    3  C   UNL     1       8.225  27.989  56.133  1.00  0.00     0.098 C 
HETATM    4  N   UNL     1       7.003  27.181  56.183  1.00  0.00    -0.268 NA
HETATM    5  C   UNL     1       6.171  27.461  57.361  1.00  0.00     0.098 C 
HETATM    6  C   UNL     1       5.723  28.923  57.318  1.00  0.00     0.029 C 
ENDROOT
BRANCH   1   7
HETATM    7  C   UNL     1       7.641  30.182  58.413  1.00  0.00     0.222 C 
HETATM    8  N   UNL     1       7.380  31.418  58.959  1.00  0.00    -0.352 N 
HETATM    9  H   UNL     1       6.774  32.072  58.480  1.00  0.00     0.162 HD
HETATM   10  O   UNL     1       8.407  29.385  58.947  1.00  0.00    -0.273 OA
BRANCH   8  11
HETATM   11  C   UNL     1       7.896  31.805  60.258  1.00  0.00     0.225 C 
BRANCH  11  12
HETATM   12  C   UNL     1       6.812  32.415  61.151  1.00  0.00     0.239 C 
HETATM   13  N   UNL     1       7.346  33.164  62.184  1.00  0.00    -0.326 N 
HETATM   14  H   UNL     1       8.346  33.364  62.110  1.00  0.00     0.169 HD
HETATM   15  O   UNL     1       5.622  32.238  60.907  1.00  0.00    -0.271 OA
BRANCH  13  16
HETATM   16  C   UNL     1       6.671  33.716  63.288  1.00  0.00     0.035 A 
HETATM   17  C   UNL     1       6.896  33.331  64.607  1.00  0.00     0.031 A 
HETATM   18  C   UNL     1       6.217  33.965  65.652  1.00  0.00     0.022 A 
HETATM   19  C   UNL     1       5.313  34.994  65.386  1.00  0.00     0.017 A 
HETATM   20  C   UNL     1       5.068  35.399  64.067  1.00  0.00    -0.043 A 
HETATM   21 BR   UNL     1       4.458  35.817  66.868  1.00  0.00    -0.051 Br
HETATM   22  C   UNL     1       4.121  36.517  63.729  1.00  0.00     0.049 C 
HETATM   23  C   UNL     1       5.754  34.744  63.028  1.00  0.00     0.037 A 
ENDBRANCH  13  16
ENDBRANCH  11  12
ENDBRANCH   8  11
ENDBRANCH   1   7
BRANCH   4  24
HETATM   24  C   UNL     1       7.156  25.818  55.882  1.00  0.00     0.106 A 
HETATM   25  N   UNL     1       7.400  25.440  54.607  1.00  0.00    -0.233 NA
HETATM   26  C   UNL     1       7.624  24.134  54.331  1.00  0.00     0.102 A 
HETATM   27  C   UNL     1       7.610  23.129  55.309  1.00  0.00    -0.004 A 
HETATM   28  C   UNL     1       7.896  23.752  53.021  1.00  0.00     0.095 A 
HETATM   29  C   UNL     1       7.361  23.522  56.623  1.00  0.00     0.017 A 
HETATM   30  C   UNL     1       7.857  21.787  54.959  1.00  0.00     0.014 A 
HETATM   31  C   UNL     1       7.147  24.871  56.907  1.00  0.00     0.045 A 
HETATM   32  C   UNL     1       8.126  21.443  53.634  1.00  0.00     0.004 A 
HETATM   33  C   UNL     1       8.148  22.432  52.657  1.00  0.00     0.039 A 
BRANCH  28  34
HETATM   34  O   UNL     1       7.930  24.713  52.038  1.00  0.00    -0.358 OA
HETATM   35  H   UNL     1       7.516  25.492  52.466  1.00  0.00     0.218 HD
ENDBRANCH  28  34
ENDBRANCH   4  24
TORSDOF 6
ENDMDL
MODEL 9
REMARK VINA RESULT:      -9.8      2.409      2.998
REMARK  6 active torsions:
REMARK  status: ('A' for Active; 'I' for Inactive)
REMARK    1  A    between atoms: C_7  and  N_8 
REMARK       I    between atoms: N_8  and  C_9 
REMARK    2  A    between atoms: C_9  and  C_10 
REMARK    3  A    between atoms: C_10  and  N_11 
REMARK       I    between atoms: N_11  and  C_12 
REMARK    4  A    between atoms: C_12  and  C_13 
REMARK    5  A    between atoms: N_16  and  C_17 
REMARK    6  A    between atoms: C_23  and  O_24 
ROOT
HETATM    1  C   UNL     1       5.695  28.664  54.567  1.00  0.00     0.080 C 
HETATM    2  C   UNL     1       7.145  28.322  54.937  1.00  0.00     0.029 C 
HETATM    3  C   UNL     1       7.318  26.844  55.289  1.00  0.00     0.098 C 
HETATM    4  N   UNL     1       6.841  26.045  54.158  1.00  0.00    -0.268 NA
HETATM    5  C   UNL     1       5.404  26.208  53.898  1.00  0.00     0.098 C 
HETATM    6  C   UNL     1       5.124  27.670  53.546  1.00  0.00     0.029 C 
ENDROOT
BRANCH   1   7
HETATM    7  C   UNL     1       4.811  28.794  55.804  1.00  0.00     0.222 C 
HETATM    8  N   UNL     1       4.215  30.028  55.931  1.00  0.00    -0.352 N 
HETATM    9  H   UNL     1       4.419  30.766  55.269  1.00  0.00     0.162 HD
HETATM   10  O   UNL     1       4.620  27.894  56.616  1.00  0.00    -0.273 OA
BRANCH   8  11
HETATM   11  C   UNL     1       3.232  30.300  56.962  1.00  0.00     0.225 C 
BRANCH  11  12
HETATM   12  C   UNL     1       3.589  31.540  57.787  1.00  0.00     0.239 C 
HETATM   13  N   UNL     1       4.329  31.224  58.912  1.00  0.00    -0.326 N 
HETATM   14  H   UNL     1       4.692  30.269  58.946  1.00  0.00     0.169 HD
HETATM   15  O   UNL     1       3.245  32.659  57.421  1.00  0.00    -0.271 OA
BRANCH  13  16
HETATM   16  C   UNL     1       4.678  32.070  59.981  1.00  0.00     0.035 A 
HETATM   17  C   UNL     1       5.978  32.494  60.243  1.00  0.00     0.031 A 
HETATM   18  C   UNL     1       6.233  33.374  61.299  1.00  0.00     0.022 A 
HETATM   19  C   UNL     1       5.189  33.841  62.098  1.00  0.00     0.017 A 
HETATM   20  C   UNL     1       3.871  33.426  61.857  1.00  0.00    -0.043 A 
HETATM   21 BR   UNL     1       5.623  35.054  63.492  1.00  0.00    -0.051 Br
HETATM   22  C   UNL     1       2.709  33.918  62.673  1.00  0.00     0.049 C 
HETATM   23  C   UNL     1       3.635  32.535  60.794  1.00  0.00     0.037 A 
ENDBRANCH  13  16
ENDBRANCH  11  12
ENDBRANCH   8  11
ENDBRANCH   1   7
BRANCH   4  24
HETATM   24  C   UNL     1       7.300  24.719  54.105  1.00  0.00     0.106 A 
HETATM   25  N   UNL     1       7.622  24.078  55.251  1.00  0.00    -0.233 NA
HETATM   26  C   UNL     1       7.990  22.777  55.206  1.00  0.00     0.102 A 
HETATM   27  C   UNL     1       8.067  22.041  54.014  1.00  0.00    -0.004 A 
HETATM   28  C   UNL     1       8.300  22.116  56.391  1.00  0.00     0.095 A 
HETATM   29  C   UNL     1       7.733  22.703  52.835  1.00  0.00     0.017 A 
HETATM   30  C   UNL     1       8.452  20.686  54.035  1.00  0.00     0.014 A 
HETATM   31  C   UNL     1       7.337  24.040  52.886  1.00  0.00     0.045 A 
HETATM   32  C   UNL     1       8.754  20.058  55.243  1.00  0.00     0.004 A 
HETATM   33  C   UNL     1       8.677  20.776  56.431  1.00  0.00     0.039 A 
BRANCH  28  34
HETATM   34  O   UNL     1       8.224  22.803  57.579  1.00  0.00    -0.358 OA
HETATM   35  H   UNL     1       7.652  22.234  58.137  1.00  0.00     0.218 HD
ENDBRANCH  28  34
ENDBRANCH   4  24
TORSDOF 6
ENDMDL
MODEL 10
REMARK VINA RESULT:      -9.7      3.119      4.562
REMARK  6 active torsions:
REMARK  status: ('A' for Active; 'I' for Inactive)
REMARK    1  A    between atoms: C_7  and  N_8 
REMARK       I    between atoms: N_8  and  C_9 
REMARK    2  A    between atoms: C_9  and  C_10 
REMARK    3  A    between atoms: C_10  and  N_11 
REMARK       I    between atoms: N_11  and  C_12 
REMARK    4  A    between atoms: C_12  and  C_13 
REMARK    5  A    between atoms: N_16  and  C_17 
REMARK    6  A    between atoms: C_23  and  O_24 
ROOT
HETATM    1  C   UNL     1       6.789  27.648  57.414  1.00  0.00     0.080 C 
HETATM    2  C   UNL     1       5.337  27.846  56.957  1.00  0.00     0.029 C 
HETATM    3  C   UNL     1       5.239  28.139  55.460  1.00  0.00     0.098 C 
HETATM    4  N   UNL     1       5.895  27.047  54.735  1.00  0.00    -0.268 NA
HETATM    5  C   UNL     1       7.335  26.952  55.009  1.00  0.00     0.098 C 
HETATM    6  C   UNL     1       7.541  26.670  56.499  1.00  0.00     0.029 C 
ENDROOT
BRANCH   1   7
HETATM    7  C   UNL     1       7.522  28.977  57.566  1.00  0.00     0.222 C 
HETATM    8  N   UNL     1       7.979  29.215  58.843  1.00  0.00    -0.352 N 
HETATM    9  H   UNL     1       7.775  28.563  59.589  1.00  0.00     0.162 HD
HETATM   10  O   UNL     1       7.714  29.771  56.650  1.00  0.00    -0.273 OA
BRANCH   8  11
HETATM   11  C   UNL     1       8.817  30.356  59.154  1.00  0.00     0.225 C 
BRANCH  11  12
HETATM   12  C   UNL     1       8.054  31.441  59.919  1.00  0.00     0.239 C 
HETATM   13  N   UNL     1       8.109  31.253  61.288  1.00  0.00    -0.326 N 
HETATM   14  H   UNL     1       8.784  30.555  61.609  1.00  0.00     0.169 HD
HETATM   15  O   UNL     1       7.498  32.358  59.322  1.00  0.00    -0.271 OA
BRANCH  13  16
HETATM   16  C   UNL     1       7.388  31.938  62.283  1.00  0.00     0.035 A 
HETATM   17  C   UNL     1       7.962  32.448  63.445  1.00  0.00     0.031 A 
HETATM   18  C   UNL     1       7.183  33.158  64.363  1.00  0.00     0.022 A 
HETATM   19  C   UNL     1       5.824  33.370  64.123  1.00  0.00     0.017 A 
HETATM   20  C   UNL     1       5.222  32.864  62.962  1.00  0.00    -0.043 A 
HETATM   21 BR   UNL     1       4.849  34.369  65.409  1.00  0.00    -0.051 Br
HETATM   22  C   UNL     1       3.769  33.083  62.646  1.00  0.00     0.049 C 
HETATM   23  C   UNL     1       6.021  32.145  62.053  1.00  0.00     0.037 A 
ENDBRANCH  13  16
ENDBRANCH  11  12
ENDBRANCH   8  11
ENDBRANCH   1   7
BRANCH   4  24
HETATM   24  C   UNL     1       5.544  26.910  53.382  1.00  0.00     0.106 A 
HETATM   25  N   UNL     1       5.673  27.967  52.550  1.00  0.00    -0.233 NA
HETATM   26  C   UNL     1       5.409  27.813  51.231  1.00  0.00     0.102 A 
HETATM   27  C   UNL     1       4.994  26.597  50.668  1.00  0.00    -0.004 A 
HETATM   28  C   UNL     1       5.564  28.899  50.374  1.00  0.00     0.095 A 
HETATM   29  C   UNL     1       4.864  25.509  51.529  1.00  0.00     0.017 A 
HETATM   30  C   UNL     1       4.741  26.499  49.286  1.00  0.00     0.014 A 
HETATM   31  C   UNL     1       5.154  25.666  52.884  1.00  0.00     0.045 A 
HETATM   32  C   UNL     1       4.907  27.610  48.459  1.00  0.00     0.004 A 
HETATM   33  C   UNL     1       5.323  28.819  49.005  1.00  0.00     0.039 A 
BRANCH  28  34
HETATM   34  O   UNL     1       5.981  30.103  50.890  1.00  0.00    -0.358 OA
HETATM   35  H   UNL     1       5.560  30.763  50.299  1.00  0.00     0.218 HD
ENDBRANCH  28  34
ENDBRANCH   4  24
TORSDOF 6
ENDMDL
