MODEL 1
REMARK VINA RESULT:      -9.7      0.000      0.000
REMARK  5 active torsions:
REMARK  status: ('A' for Active; 'I' for Inactive)
REMARK    1  A    between atoms: C_6  and  C_7 
REMARK    2  A    between atoms: C_7  and  C_8 
REMARK    3  A    between atoms: C_8  and  C_9 
REMARK    4  A    between atoms: C_9  and  N_10 
REMARK       I    between atoms: N_10  and  C_11 
REMARK    5  A    between atoms: C_11  and  C_12 
ROOT
HETATM    1  N   UNL     1       7.533  26.128  56.670  1.00  0.00    -0.356 N 
HETATM    2  C   UNL     1       6.508  25.240  56.420  1.00  0.00     0.272 C 
HETATM    3  O   UNL     1       5.497  25.171  57.114  1.00  0.00    -0.266 OA
HETATM    4  H   UNL     1       8.282  26.124  55.981  1.00  0.00     0.162 HD
ENDROOT
BRANCH   1   5
HETATM    5  C   UNL     1       7.504  27.090  57.741  1.00  0.00     0.123 C 
BRANCH   5   6
HETATM    6  C   UNL     1       8.379  28.304  57.438  1.00  0.00     0.027 C 
BRANCH   6   7
HETATM    7  C   UNL     1       7.550  29.585  57.453  1.00  0.00     0.080 C 
BRANCH   7   8
HETATM    8  C   UNL     1       7.678  30.307  58.750  1.00  0.00     0.105 A 
HETATM    9  N   UNL     1       8.606  30.116  59.664  1.00  0.00    -0.233 NA
HETATM   10  C   UNL     1       8.303  30.983  60.685  1.00  0.00     0.085 A 
HETATM   11  C   UNL     1       7.166  31.725  60.386  1.00  0.00     0.062 A 
HETATM   12  C   UNL     1       8.956  31.194  61.908  1.00  0.00     0.034 A 
HETATM   13  C   UNL     1       6.624  32.680  61.249  1.00  0.00     0.032 A 
HETATM   14  N   UNL     1       6.792  31.279  59.145  1.00  0.00    -0.343 N 
HETATM   15  C   UNL     1       7.287  32.874  62.467  1.00  0.00     0.002 A 
HETATM   16  C   UNL     1       8.435  32.146  62.793  1.00  0.00     0.002 A 
HETATM   17  H   UNL     1       5.998  31.606  58.613  1.00  0.00     0.167 HD
ENDBRANCH   7   8
ENDBRANCH   6   7
ENDBRANCH   5   6
ENDBRANCH   1   5
BRANCH   2  18
HETATM   18  C   UNL     1       6.754  24.401  55.228  1.00  0.00     0.152 A 
HETATM   19  N   UNL     1       6.124  24.670  54.062  1.00  0.00    -0.169 NA
HETATM   20  N   UNL     1       6.563  23.726  53.220  1.00  0.00    -0.281 N 
HETATM   21  H   UNL     1       6.209  23.729  52.269  1.00  0.00     0.189 HD
HETATM   22  C   UNL     1       7.444  22.850  53.782  1.00  0.00     0.036 A 
HETATM   23  C   UNL     1       7.607  23.262  55.092  1.00  0.00     0.002 A 
HETATM   24  C   UNL     1       8.002  21.699  53.019  1.00  0.00     0.059 C 
HETATM   25  C   UNL     1       8.500  22.624  56.097  1.00  0.00     0.043 C 
HETATM   26  C   UNL     1       8.181  21.149  56.353  1.00  0.00     0.005 C 
HETATM   27  C   UNL     1       8.037  20.235  55.124  1.00  0.00     0.001 C 
HETATM   28  C   UNL     1       8.787  20.692  53.870  1.00  0.00     0.006 C 
ENDBRANCH   2  18
TORSDOF 5
ENDMDL
MODEL 2
REMARK VINA RESULT:      -9.6      1.622      2.123
REMARK  5 active torsions:
REMARK  status: ('A' for Active; 'I' for Inactive)
REMARK    1  A    between atoms: C_6  and  C_7 
REMARK    2  A    between atoms: C_7  and  C_8 
REMARK    3  A    between atoms: C_8  and  C_9 
REMARK    4  A    between atoms: C_9  and  N_10 
REMARK       I    between atoms: N_10  and  C_11 
REMARK    5  A    between atoms: C_11  and  C_12 
ROOT
HETATM    1  N   UNL     1       6.750  27.303  56.745  1.00  0.00    -0.356 N 
HETATM    2  C   UNL     1       7.226  26.531  55.705  1.00  0.00     0.272 C 
HETATM    3  O   UNL     1       7.333  26.950  54.556  1.00  0.00    -0.266 OA
HETATM    4  H   UNL     1       6.771  26.853  57.658  1.00  0.00     0.162 HD
ENDROOT
BRANCH   1   5
HETATM    5  C   UNL     1       6.373  28.685  56.599  1.00  0.00     0.123 C 
BRANCH   5   6
HETATM    6  C   UNL     1       7.560  29.622  56.804  1.00  0.00     0.027 C 
BRANCH   6   7
HETATM    7  C   UNL     1       8.378  29.200  58.021  1.00  0.00     0.080 C 
BRANCH   7   8
HETATM    8  C   UNL     1       8.160  30.117  59.175  1.00  0.00     0.105 A 
HETATM    9  N   UNL     1       8.859  30.152  60.290  1.00  0.00    -0.233 NA
HETATM   10  C   UNL     1       8.278  31.130  61.059  1.00  0.00     0.085 A 
HETATM   11  C   UNL     1       7.201  31.709  60.398  1.00  0.00     0.062 A 
HETATM   12  C   UNL     1       8.616  31.582  62.344  1.00  0.00     0.034 A 
HETATM   13  C   UNL     1       6.421  32.728  60.948  1.00  0.00     0.032 A 
HETATM   14  N   UNL     1       7.152  31.050  59.197  1.00  0.00    -0.343 N 
HETATM   15  C   UNL     1       6.770  33.163  62.232  1.00  0.00     0.002 A 
HETATM   16  C   UNL     1       7.850  32.602  62.920  1.00  0.00     0.002 A 
HETATM   17  H   UNL     1       6.486  31.218  58.456  1.00  0.00     0.167 HD
ENDBRANCH   7   8
ENDBRANCH   6   7
ENDBRANCH   5   6
ENDBRANCH   1   5
BRANCH   2  18
HETATM   18  C   UNL     1       7.599  25.166  56.129  1.00  0.00     0.152 A 
HETATM   19  N   UNL     1       8.166  24.957  57.339  1.00  0.00    -0.169 NA
HETATM   20  N   UNL     1       8.378  23.636  57.385  1.00  0.00    -0.281 N 
HETATM   21  H   UNL     1       8.811  23.248  58.217  1.00  0.00     0.189 HD
HETATM   22  C   UNL     1       7.984  22.973  56.261  1.00  0.00     0.036 A 
HETATM   23  C   UNL     1       7.457  23.934  55.418  1.00  0.00     0.002 A 
HETATM   24  C   UNL     1       8.187  21.506  56.102  1.00  0.00     0.059 C 
HETATM   25  C   UNL     1       6.872  23.680  54.072  1.00  0.00     0.043 C 
HETATM   26  C   UNL     1       7.845  23.018  53.095  1.00  0.00     0.005 C 
HETATM   27  C   UNL     1       8.596  21.768  53.584  1.00  0.00     0.001 C 
HETATM   28  C   UNL     1       7.900  20.973  54.693  1.00  0.00     0.006 C 
ENDBRANCH   2  18
TORSDOF 5
ENDMDL
MODEL 3
REMARK VINA RESULT:      -9.5      2.293      3.219
REMARK  5 active torsions:
REMARK  status: ('A' for Active; 'I' for Inactive)
REMARK    1  A    between atoms: C_6  and  C_7 
REMARK    2  A    between atoms: C_7  and  C_8 
REMARK    3  A    between atoms: C_8  and  C_9 
REMARK    4  A    between atoms: C_9  and  N_10 
REMARK       I    between atoms: N_10  and  C_11 
REMARK    5  A    between atoms: C_11  and  C_12 
ROOT
HETATM    1  N   UNL     1       5.664  25.947  55.831  1.00  0.00    -0.356 N 
HETATM    2  C   UNL     1       6.975  25.545  55.679  1.00  0.00     0.272 C 
HETATM    3  O   UNL     1       7.904  26.037  56.315  1.00  0.00    -0.266 OA
HETATM    4  H   UNL     1       4.986  25.414  55.290  1.00  0.00     0.162 HD
ENDROOT
BRANCH   1   5
HETATM    5  C   UNL     1       5.246  26.948  56.778  1.00  0.00     0.123 C 
BRANCH   5   6
HETATM    6  C   UNL     1       4.501  28.095  56.100  1.00  0.00     0.027 C 
BRANCH   6   7
HETATM    7  C   UNL     1       5.437  28.886  55.191  1.00  0.00     0.080 C 
BRANCH   7   8
HETATM    8  C   UNL     1       6.691  29.272  55.896  1.00  0.00     0.105 A 
HETATM    9  N   UNL     1       6.779  29.883  57.059  1.00  0.00    -0.233 NA
HETATM   10  C   UNL     1       8.123  30.052  57.287  1.00  0.00     0.085 A 
HETATM   11  C   UNL     1       8.875  29.528  56.241  1.00  0.00     0.062 A 
HETATM   12  C   UNL     1       8.782  30.649  58.372  1.00  0.00     0.034 A 
HETATM   13  C   UNL     1      10.270  29.566  56.205  1.00  0.00     0.032 A 
HETATM   14  N   UNL     1       7.938  29.031  55.372  1.00  0.00    -0.343 N 
HETATM   15  C   UNL     1      10.910  30.170  57.295  1.00  0.00     0.002 A 
HETATM   16  C   UNL     1      10.182  30.702  58.362  1.00  0.00     0.002 A 
HETATM   17  H   UNL     1       8.131  28.571  54.493  1.00  0.00     0.167 HD
ENDBRANCH   7   8
ENDBRANCH   6   7
ENDBRANCH   5   6
ENDBRANCH   1   5
BRANCH   2  18
HETATM   18  C   UNL     1       7.131  24.462  54.687  1.00  0.00     0.152 A 
HETATM   19  N   UNL     1       6.528  24.549  53.480  1.00  0.00    -0.169 NA
HETATM   20  N   UNL     1       6.866  23.415  52.854  1.00  0.00    -0.281 N 
HETATM   21  H   UNL     1       6.511  23.259  51.916  1.00  0.00     0.189 HD
HETATM   22  C   UNL     1       7.655  22.587  53.598  1.00  0.00     0.036 A 
HETATM   23  C   UNL     1       7.863  23.239  54.799  1.00  0.00     0.002 A 
HETATM   24  C   UNL     1       8.092  21.256  53.093  1.00  0.00     0.059 C 
HETATM   25  C   UNL     1       8.691  22.732  55.928  1.00  0.00     0.043 C 
HETATM   26  C   UNL     1       8.225  21.380  56.472  1.00  0.00     0.005 C 
HETATM   27  C   UNL     1       7.985  20.255  55.452  1.00  0.00     0.001 C 
HETATM   28  C   UNL     1       8.773  20.370  54.144  1.00  0.00     0.006 C 
ENDBRANCH   2  18
TORSDOF 5
ENDMDL
MODEL 4
REMARK VINA RESULT:      -9.1      1.830     10.178
REMARK  5 active torsions:
REMARK  status: ('A' for Active; 'I' for Inactive)
REMARK    1  A    between atoms: C_6  and  C_7 
REMARK    2  A    between atoms: C_7  and  C_8 
REMARK    3  A    between atoms: C_8  and  C_9 
REMARK    4  A    between atoms: C_9  and  N_10 
REMARK       I    between atoms: N_10  and  C_11 
REMARK    5  A    between atoms: C_11  and  C_12 
ROOT
HETATM    1  N   UNL     1       7.862  28.750  57.840  1.00  0.00    -0.356 N 
HETATM    2  C   UNL     1       8.430  30.003  57.938  1.00  0.00     0.272 C 
HETATM    3  O   UNL     1       9.486  30.305  57.387  1.00  0.00    -0.266 OA
HETATM    4  H   UNL     1       6.955  28.653  58.292  1.00  0.00     0.162 HD
ENDROOT
BRANCH   1   5
HETATM    5  C   UNL     1       8.423  27.685  57.049  1.00  0.00     0.123 C 
BRANCH   5   6
HETATM    6  C   UNL     1       7.556  26.430  57.090  1.00  0.00     0.027 C 
BRANCH   6   7
HETATM    7  C   UNL     1       8.378  25.218  57.518  1.00  0.00     0.080 C 
BRANCH   7   8
HETATM    8  C   UNL     1       8.332  24.134  56.498  1.00  0.00     0.105 A 
HETATM    9  N   UNL     1       8.142  24.284  55.204  1.00  0.00    -0.233 NA
HETATM   10  C   UNL     1       8.152  23.015  54.679  1.00  0.00     0.085 A 
HETATM   11  C   UNL     1       8.357  22.067  55.675  1.00  0.00     0.062 A 
HETATM   12  C   UNL     1       7.990  22.591  53.352  1.00  0.00     0.034 A 
HETATM   13  C   UNL     1       8.408  20.694  55.428  1.00  0.00     0.032 A 
HETATM   14  N   UNL     1       8.476  22.807  56.823  1.00  0.00    -0.343 N 
HETATM   15  C   UNL     1       8.239  20.288  54.098  1.00  0.00     0.002 A 
HETATM   16  C   UNL     1       8.035  21.218  53.075  1.00  0.00     0.002 A 
HETATM   17  H   UNL     1       8.636  22.440  57.750  1.00  0.00     0.167 HD
ENDBRANCH   7   8
ENDBRANCH   6   7
ENDBRANCH   5   6
ENDBRANCH   1   5
BRANCH   2  18
HETATM   18  C   UNL     1       7.629  30.933  58.760  1.00  0.00     0.152 A 
HETATM   19  N   UNL     1       6.708  31.737  58.180  1.00  0.00    -0.169 NA
HETATM   20  N   UNL     1       6.190  32.439  59.196  1.00  0.00    -0.281 N 
HETATM   21  H   UNL     1       5.470  33.124  58.988  1.00  0.00     0.189 HD
HETATM   22  C   UNL     1       6.733  32.138  60.410  1.00  0.00     0.036 A 
HETATM   23  C   UNL     1       7.669  31.149  60.172  1.00  0.00     0.002 A 
HETATM   24  C   UNL     1       6.323  32.851  61.652  1.00  0.00     0.059 C 
HETATM   25  C   UNL     1       8.506  30.480  61.207  1.00  0.00     0.043 C 
HETATM   26  C   UNL     1       9.382  31.447  62.006  1.00  0.00     0.005 C 
HETATM   27  C   UNL     1       8.698  32.688  62.606  1.00  0.00     0.001 C 
HETATM   28  C   UNL     1       7.197  32.549  62.876  1.00  0.00     0.006 C 
ENDBRANCH   2  18
TORSDOF 5
ENDMDL
MODEL 5
REMARK VINA RESULT:      -9.0      2.440     10.515
REMARK  5 active torsions:
REMARK  status: ('A' for Active; 'I' for Inactive)
REMARK    1  A    between atoms: C_6  and  C_7 
REMARK    2  A    between atoms: C_7  and  C_8 
REMARK    3  A    between atoms: C_8  and  C_9 
REMARK    4  A    between atoms: C_9  and  N_10 
REMARK       I    between atoms: N_10  and  C_11 
REMARK    5  A    between atoms: C_11  and  C_12 
ROOT
HETATM    1  N   UNL     1       7.158  30.549  58.841  1.00  0.00    -0.356 N 
HETATM    2  C   UNL     1       7.558  31.751  59.387  1.00  0.00     0.272 C 
HETATM    3  O   UNL     1       8.645  32.268  59.143  1.00  0.00    -0.266 OA
HETATM    4  H   UNL     1       6.210  30.265  59.076  1.00  0.00     0.162 HD
ENDROOT
BRANCH   1   5
HETATM    5  C   UNL     1       7.952  29.803  57.899  1.00  0.00     0.123 C 
BRANCH   5   6
HETATM    6  C   UNL     1       7.197  28.595  57.350  1.00  0.00     0.027 C 
BRANCH   6   7
HETATM    7  C   UNL     1       6.952  28.746  55.852  1.00  0.00     0.080 C 
BRANCH   7   8
HETATM    8  C   UNL     1       7.183  27.467  55.125  1.00  0.00     0.105 A 
HETATM    9  N   UNL     1       7.533  27.335  53.863  1.00  0.00    -0.233 NA
HETATM   10  C   UNL     1       7.600  25.982  53.637  1.00  0.00     0.085 A 
HETATM   11  C   UNL     1       7.288  25.269  54.790  1.00  0.00     0.062 A 
HETATM   12  C   UNL     1       7.922  25.282  52.465  1.00  0.00     0.034 A 
HETATM   13  C   UNL     1       7.271  23.874  54.848  1.00  0.00     0.032 A 
HETATM   14  N   UNL     1       7.033  26.239  55.724  1.00  0.00    -0.343 N 
HETATM   15  C   UNL     1       7.590  23.192  53.667  1.00  0.00     0.002 A 
HETATM   16  C   UNL     1       7.912  23.881  52.495  1.00  0.00     0.002 A 
HETATM   17  H   UNL     1       6.774  26.080  56.688  1.00  0.00     0.167 HD
ENDBRANCH   7   8
ENDBRANCH   6   7
ENDBRANCH   5   6
ENDBRANCH   1   5
BRANCH   2  18
HETATM   18  C   UNL     1       6.539  32.343  60.277  1.00  0.00     0.152 A 
HETATM   19  N   UNL     1       5.468  32.986  59.756  1.00  0.00    -0.169 NA
HETATM   20  N   UNL     1       4.773  33.397  60.824  1.00  0.00    -0.281 N 
HETATM   21  H   UNL     1       3.917  33.919  60.668  1.00  0.00     0.189 HD
HETATM   22  C   UNL     1       5.342  33.061  62.017  1.00  0.00     0.036 A 
HETATM   23  C   UNL     1       6.492  32.360  61.705  1.00  0.00     0.002 A 
HETATM   24  C   UNL     1       4.744  33.476  63.317  1.00  0.00     0.059 C 
HETATM   25  C   UNL     1       7.437  31.763  62.689  1.00  0.00     0.043 C 
HETATM   26  C   UNL     1       8.039  32.783  63.658  1.00  0.00     0.005 C 
HETATM   27  C   UNL     1       7.066  33.734  64.376  1.00  0.00     0.001 C 
HETATM   28  C   UNL     1       5.635  33.214  64.539  1.00  0.00     0.006 C 
ENDBRANCH   2  18
TORSDOF 5
ENDMDL
MODEL 6
REMARK VINA RESULT:      -9.0      4.902      8.684
REMARK  5 active torsions:
REMARK  status: ('A' for Active; 'I' for Inactive)
REMARK    1  A    between atoms: C_6  and  C_7 
REMARK    2  A    between atoms: C_7  and  C_8 
REMARK    3  A    between atoms: C_8  and  C_9 
REMARK    4  A    between atoms: C_9  and  N_10 
REMARK       I    between atoms: N_10  and  C_11 
REMARK    5  A    between atoms: C_11  and  C_12 
ROOT
HETATM    1  N   UNL     1       7.472  26.524  54.247  1.00  0.00    -0.356 N 
HETATM    2  C   UNL     1       7.230  26.317  55.590  1.00  0.00     0.272 C 
HETATM    3  O   UNL     1       6.748  27.176  56.323  1.00  0.00    -0.266 OA
HETATM    4  H   UNL     1       7.814  25.709  53.742  1.00  0.00     0.162 HD
ENDROOT
BRANCH   1   5
HETATM    5  C   UNL     1       7.144  27.748  53.562  1.00  0.00     0.123 C 
BRANCH   5   6
HETATM    6  C   UNL     1       5.791  27.662  52.862  1.00  0.00     0.027 C 
BRANCH   6   7
HETATM    7  C   UNL     1       5.725  28.639  51.692  1.00  0.00     0.080 C 
BRANCH   7   8
HETATM    8  C   UNL     1       4.840  28.137  50.605  1.00  0.00     0.105 A 
HETATM    9  N   UNL     1       3.618  28.547  50.337  1.00  0.00    -0.233 NA
HETATM   10  C   UNL     1       3.195  27.784  49.277  1.00  0.00     0.085 A 
HETATM   11  C   UNL     1       4.183  26.888  48.884  1.00  0.00     0.062 A 
HETATM   12  C   UNL     1       1.971  27.797  48.592  1.00  0.00     0.034 A 
HETATM   13  C   UNL     1       4.024  25.983  47.833  1.00  0.00     0.032 A 
HETATM   14  N   UNL     1       5.223  27.139  49.742  1.00  0.00    -0.343 N 
HETATM   15  C   UNL     1       2.794  26.007  47.163  1.00  0.00     0.002 A 
HETATM   16  C   UNL     1       1.784  26.899  47.533  1.00  0.00     0.002 A 
HETATM   17  H   UNL     1       6.116  26.667  49.743  1.00  0.00     0.167 HD
ENDBRANCH   7   8
ENDBRANCH   6   7
ENDBRANCH   5   6
ENDBRANCH   1   5
BRANCH   2  18
HETATM   18  C   UNL     1       7.601  24.958  56.036  1.00  0.00     0.152 A 
HETATM   19  N   UNL     1       8.138  24.765  57.262  1.00  0.00    -0.169 NA
HETATM   20  N   UNL     1       8.357  23.446  57.327  1.00  0.00    -0.281 N 
HETATM   21  H   UNL     1       8.772  23.069  58.173  1.00  0.00     0.189 HD
HETATM   22  C   UNL     1       7.995  22.769  56.199  1.00  0.00     0.036 A 
HETATM   23  C   UNL     1       7.484  23.719  55.334  1.00  0.00     0.002 A 
HETATM   24  C   UNL     1       8.210  21.302  56.061  1.00  0.00     0.059 C 
HETATM   25  C   UNL     1       6.934  23.448  53.977  1.00  0.00     0.043 C 
HETATM   26  C   UNL     1       7.936  22.783  53.031  1.00  0.00     0.005 C 
HETATM   27  C   UNL     1       8.681  21.542  53.551  1.00  0.00     0.001 C 
HETATM   28  C   UNL     1       7.962  20.753  54.650  1.00  0.00     0.006 C 
ENDBRANCH   2  18
TORSDOF 5
ENDMDL
MODEL 7
REMARK VINA RESULT:      -8.9      1.964      9.153
REMARK  5 active torsions:
REMARK  status: ('A' for Active; 'I' for Inactive)
REMARK    1  A    between atoms: C_6  and  C_7 
REMARK    2  A    between atoms: C_7  and  C_8 
REMARK    3  A    between atoms: C_8  and  C_9 
REMARK    4  A    between atoms: C_9  and  N_10 
REMARK       I    between atoms: N_10  and  C_11 
REMARK    5  A    between atoms: C_11  and  C_12 
ROOT
HETATM    1  N   UNL     1       6.324  28.962  54.862  1.00  0.00    -0.356 N 
HETATM    2  C   UNL     1       5.460  29.074  55.932  1.00  0.00     0.272 C 
HETATM    3  O   UNL     1       4.404  28.450  56.007  1.00  0.00    -0.266 OA
HETATM    4  H   UNL     1       7.192  29.486  54.956  1.00  0.00     0.162 HD
ENDROOT
BRANCH   1   5
HETATM    5  C   UNL     1       6.100  28.075  53.751  1.00  0.00     0.123 C 
BRANCH   5   6
HETATM    6  C   UNL     1       7.158  26.978  53.677  1.00  0.00     0.027 C 
BRANCH   6   7
HETATM    7  C   UNL     1       7.299  26.271  55.021  1.00  0.00     0.080 C 
BRANCH   7   8
HETATM    8  C   UNL     1       7.464  24.800  54.854  1.00  0.00     0.105 A 
HETATM    9  N   UNL     1       7.491  23.901  55.816  1.00  0.00    -0.233 NA
HETATM   10  C   UNL     1       7.687  22.695  55.189  1.00  0.00     0.085 A 
HETATM   11  C   UNL     1       7.778  22.860  53.811  1.00  0.00     0.062 A 
HETATM   12  C   UNL     1       7.801  21.408  55.734  1.00  0.00     0.034 A 
HETATM   13  C   UNL     1       7.983  21.801  52.924  1.00  0.00     0.032 A 
HETATM   14  N   UNL     1       7.625  24.209  53.625  1.00  0.00    -0.343 N 
HETATM   15  C   UNL     1       8.099  20.524  53.486  1.00  0.00     0.002 A 
HETATM   16  C   UNL     1       8.008  20.327  54.867  1.00  0.00     0.002 A 
HETATM   17  H   UNL     1       7.635  24.689  52.735  1.00  0.00     0.167 HD
ENDBRANCH   7   8
ENDBRANCH   6   7
ENDBRANCH   5   6
ENDBRANCH   1   5
BRANCH   2  18
HETATM   18  C   UNL     1       5.948  30.006  56.969  1.00  0.00     0.152 A 
HETATM   19  N   UNL     1       5.227  31.103  57.295  1.00  0.00    -0.169 NA
HETATM   20  N   UNL     1       5.955  31.713  58.239  1.00  0.00    -0.281 N 
HETATM   21  H   UNL     1       5.602  32.579  58.632  1.00  0.00     0.189 HD
HETATM   22  C   UNL     1       7.121  31.072  58.538  1.00  0.00     0.036 A 
HETATM   23  C   UNL     1       7.150  29.944  57.739  1.00  0.00     0.002 A 
HETATM   24  C   UNL     1       8.090  31.625  59.525  1.00  0.00     0.059 C 
HETATM   25  C   UNL     1       8.226  28.914  57.733  1.00  0.00     0.043 C 
HETATM   26  C   UNL     1       9.610  29.474  57.400  1.00  0.00     0.005 C 
HETATM   27  C   UNL     1      10.076  30.714  58.182  1.00  0.00     0.001 C 
HETATM   28  C   UNL     1       9.442  30.900  59.563  1.00  0.00     0.006 C 
ENDBRANCH   2  18
TORSDOF 5
ENDMDL
MODEL 8
REMARK VINA RESULT:      -8.9      1.814     10.299
REMARK  5 active torsions:
REMARK  status: ('A' for Active; 'I' for Inactive)
REMARK    1  A    between atoms: C_6  and  C_7 
REMARK    2  A    between atoms: C_7  and  C_8 
REMARK    3  A    between atoms: C_8  and  C_9 
REMARK    4  A    between atoms: C_9  and  N_10 
REMARK       I    between atoms: N_10  and  C_11 
REMARK    5  A    between atoms: C_11  and  C_12 
ROOT
HETATM    1  N   UNL     1       7.833  28.999  58.677  1.00  0.00    -0.356 N 
HETATM    2  C   UNL     1       8.604  30.122  58.891  1.00  0.00     0.272 C 
HETATM    3  O   UNL     1       9.269  30.656  58.007  1.00  0.00    -0.266 OA
HETATM    4  H   UNL     1       7.283  28.696  59.478  1.00  0.00     0.162 HD
ENDROOT
BRANCH   1   5
HETATM    5  C   UNL     1       7.694  28.366  57.390  1.00  0.00     0.123 C 
BRANCH   5   6
HETATM    6  C   UNL     1       7.737  26.844  57.498  1.00  0.00     0.027 C 
BRANCH   6   7
HETATM    7  C   UNL     1       6.513  26.220  56.835  1.00  0.00     0.080 C 
BRANCH   7   8
HETATM    8  C   UNL     1       6.864  24.980  56.089  1.00  0.00     0.105 A 
HETATM    9  N   UNL     1       7.127  23.800  56.612  1.00  0.00    -0.233 NA
HETATM   10  C   UNL     1       7.419  22.982  55.548  1.00  0.00     0.085 A 
HETATM   11  C   UNL     1       7.329  23.676  54.347  1.00  0.00     0.062 A 
HETATM   12  C   UNL     1       7.775  21.625  55.530  1.00  0.00     0.034 A 
HETATM   13  C   UNL     1       7.580  23.093  53.103  1.00  0.00     0.032 A 
HETATM   14  N   UNL     1       6.966  24.944  54.720  1.00  0.00    -0.343 N 
HETATM   15  C   UNL     1       7.937  21.739  53.105  1.00  0.00     0.002 A 
HETATM   16  C   UNL     1       8.033  21.014  54.296  1.00  0.00     0.002 A 
HETATM   17  H   UNL     1       6.807  25.722  54.095  1.00  0.00     0.167 HD
ENDBRANCH   7   8
ENDBRANCH   6   7
ENDBRANCH   5   6
ENDBRANCH   1   5
BRANCH   2  18
HETATM   18  C   UNL     1       8.530  30.611  60.283  1.00  0.00     0.152 A 
HETATM   19  N   UNL     1       9.308  30.059  61.242  1.00  0.00    -0.169 NA
HETATM   20  N   UNL     1       8.981  30.721  62.359  1.00  0.00    -0.281 N 
HETATM   21  H   UNL     1       9.445  30.463  63.224  1.00  0.00     0.189 HD
HETATM   22  C   UNL     1       8.021  31.672  62.177  1.00  0.00     0.036 A 
HETATM   23  C   UNL     1       7.707  31.643  60.831  1.00  0.00     0.002 A 
HETATM   24  C   UNL     1       7.487  32.477  63.312  1.00  0.00     0.059 C 
HETATM   25  C   UNL     1       6.721  32.527  60.151  1.00  0.00     0.043 C 
HETATM   26  C   UNL     1       5.306  32.424  60.725  1.00  0.00     0.005 C 
HETATM   27  C   UNL     1       5.153  32.544  62.251  1.00  0.00     0.001 C 
HETATM   28  C   UNL     1       6.258  33.328  62.965  1.00  0.00     0.006 C 
ENDBRANCH   2  18
TORSDOF 5
ENDMDL
MODEL 9
REMARK VINA RESULT:      -8.5      1.988      9.999
REMARK  5 active torsions:
REMARK  status: ('A' for Active; 'I' for Inactive)
REMARK    1  A    between atoms: C_6  and  C_7 
REMARK    2  A    between atoms: C_7  and  C_8 
REMARK    3  A    between atoms: C_8  and  C_9 
REMARK    4  A    between atoms: C_9  and  N_10 
REMARK       I    between atoms: N_10  and  C_11 
REMARK    5  A    between atoms: C_11  and  C_12 
ROOT
HETATM    1  N   UNL     1       7.036  28.320  57.041  1.00  0.00    -0.356 N 
HETATM    2  C   UNL     1       8.070  29.184  57.334  1.00  0.00     0.272 C 
HETATM    3  O   UNL     1       9.116  29.218  56.690  1.00  0.00    -0.266 OA
HETATM    4  H   UNL     1       6.202  28.439  57.613  1.00  0.00     0.162 HD
ENDROOT
BRANCH   1   5
HETATM    5  C   UNL     1       7.058  27.404  55.930  1.00  0.00     0.123 C 
BRANCH   5   6
HETATM    6  C   UNL     1       6.324  26.105  56.250  1.00  0.00     0.027 C 
BRANCH   6   7
HETATM    7  C   UNL     1       7.257  25.112  56.938  1.00  0.00     0.080 C 
BRANCH   7   8
HETATM    8  C   UNL     1       7.569  23.952  56.058  1.00  0.00     0.105 A 
HETATM    9  N   UNL     1       7.398  23.889  54.754  1.00  0.00    -0.233 NA
HETATM   10  C   UNL     1       7.797  22.627  54.389  1.00  0.00     0.085 A 
HETATM   11  C   UNL     1       8.226  21.902  55.494  1.00  0.00     0.062 A 
HETATM   12  C   UNL     1       7.820  22.024  53.123  1.00  0.00     0.034 A 
HETATM   13  C   UNL     1       8.682  20.584  55.418  1.00  0.00     0.032 A 
HETATM   14  N   UNL     1       8.077  22.771  56.544  1.00  0.00    -0.343 N 
HETATM   15  C   UNL     1       8.694  19.997  54.147  1.00  0.00     0.002 A 
HETATM   16  C   UNL     1       8.272  20.702  53.016  1.00  0.00     0.002 A 
HETATM   17  H   UNL     1       8.298  22.577  57.510  1.00  0.00     0.167 HD
ENDBRANCH   7   8
ENDBRANCH   6   7
ENDBRANCH   5   6
ENDBRANCH   1   5
BRANCH   2  18
HETATM   18  C   UNL     1       7.776  30.062  58.485  1.00  0.00     0.152 A 
HETATM   19  N   UNL     1       8.480  29.940  59.634  1.00  0.00    -0.169 NA
HETATM   20  N   UNL     1       7.952  30.862  60.448  1.00  0.00    -0.281 N 
HETATM   21  H   UNL     1       8.329  30.946  61.387  1.00  0.00     0.189 HD
HETATM   22  C   UNL     1       6.933  31.575  59.890  1.00  0.00     0.036 A 
HETATM   23  C   UNL     1       6.793  31.093  58.601  1.00  0.00     0.002 A 
HETATM   24  C   UNL     1       6.185  32.610  60.657  1.00  0.00     0.059 C 
HETATM   25  C   UNL     1       5.816  31.587  57.592  1.00  0.00     0.043 C 
HETATM   26  C   UNL     1       4.358  31.477  58.044  1.00  0.00     0.005 C 
HETATM   27  C   UNL     1       4.006  32.038  59.432  1.00  0.00     0.001 C 
HETATM   28  C   UNL     1       4.931  33.143  59.952  1.00  0.00     0.006 C 
ENDBRANCH   2  18
TORSDOF 5
ENDMDL
MODEL 10
REMARK VINA RESULT:      -8.5      4.444      8.548
REMARK  5 active torsions:
REMARK  status: ('A' for Active; 'I' for Inactive)
REMARK    1  A    between atoms: C_6  and  C_7 
REMARK    2  A    between atoms: C_7  and  C_8 
REMARK    3  A    between atoms: C_8  and  C_9 
REMARK    4  A    between atoms: C_9  and  N_10 
REMARK       I    between atoms: N_10  and  C_11 
REMARK    5  A    between atoms: C_11  and  C_12 
ROOT
HETATM    1  N   UNL     1       5.165  26.556  55.121  1.00  0.00    -0.356 N 
HETATM    2  C   UNL     1       5.052  26.225  53.786  1.00  0.00     0.272 C 
HETATM    3  O   UNL     1       5.418  25.145  53.331  1.00  0.00    -0.266 OA
HETATM    4  H   UNL     1       4.765  27.457  55.375  1.00  0.00     0.162 HD
ENDROOT
BRANCH   1   5
HETATM    5  C   UNL     1       5.680  25.656  56.120  1.00  0.00     0.123 C 
BRANCH   5   6
HETATM    6  C   UNL     1       6.660  26.352  57.060  1.00  0.00     0.027 C 
BRANCH   6   7
HETATM    7  C   UNL     1       8.017  25.654  57.040  1.00  0.00     0.080 C 
BRANCH   7   8
HETATM    8  C   UNL     1       7.985  24.413  56.217  1.00  0.00     0.105 A 
HETATM    9  N   UNL     1       7.908  23.177  56.664  1.00  0.00    -0.233 NA
HETATM   10  C   UNL     1       7.935  22.378  55.548  1.00  0.00     0.085 A 
HETATM   11  C   UNL     1       8.026  23.142  54.391  1.00  0.00     0.062 A 
HETATM   12  C   UNL     1       7.887  20.980  55.444  1.00  0.00     0.034 A 
HETATM   13  C   UNL     1       8.078  22.590  53.109  1.00  0.00     0.032 A 
HETATM   14  N   UNL     1       8.049  24.436  54.844  1.00  0.00    -0.343 N 
HETATM   15  C   UNL     1       8.033  21.193  53.024  1.00  0.00     0.002 A 
HETATM   16  C   UNL     1       7.939  20.399  54.171  1.00  0.00     0.002 A 
HETATM   17  H   UNL     1       8.108  25.264  54.269  1.00  0.00     0.167 HD
ENDBRANCH   7   8
ENDBRANCH   6   7
ENDBRANCH   5   6
ENDBRANCH   1   5
BRANCH   2  18
HETATM   18  C   UNL     1       4.437  27.300  52.980  1.00  0.00     0.152 A 
HETATM   19  N   UNL     1       3.650  28.230  53.567  1.00  0.00    -0.169 NA
HETATM   20  N   UNL     1       3.263  29.023  52.561  1.00  0.00    -0.281 N 
HETATM   21  H   UNL     1       2.647  29.802  52.773  1.00  0.00     0.189 HD
HETATM   22  C   UNL     1       3.752  28.652  51.344  1.00  0.00     0.036 A 
HETATM   23  C   UNL     1       4.536  27.537  51.574  1.00  0.00     0.002 A 
HETATM   24  C   UNL     1       3.390  29.381  50.096  1.00  0.00     0.059 C 
HETATM   25  C   UNL     1       5.303  26.789  50.540  1.00  0.00     0.043 C 
HETATM   26  C   UNL     1       4.433  26.236  49.409  1.00  0.00     0.005 C 
HETATM   27  C   UNL     1       3.454  27.210  48.732  1.00  0.00     0.001 C 
HETATM   28  C   UNL     1       3.841  28.690  48.802  1.00  0.00     0.006 C 
ENDBRANCH   2  18
TORSDOF 5
ENDMDL
