MODEL 1
REMARK VINA RESULT:      -8.8      0.000      0.000
REMARK  13 active torsions:
REMARK  status: ('A' for Active; 'I' for Inactive)
REMARK    1  A    between atoms: C_2  and  O_3 
REMARK    2  A    between atoms: O_3  and  C_4 
REMARK    3  A    between atoms: C_5  and  O_6 
REMARK    4  A    between atoms: C_9  and  C_10 
REMARK    5  A    between atoms: N_11  and  C_12 
REMARK    6  A    between atoms: C_12  and  C_13 
REMARK    7  A    between atoms: C_13  and  N_14 
REMARK    8  A    between atoms: C_20  and  O_21 
REMARK    9  A    between atoms: C_22  and  C_23 
REMARK   10  A    between atoms: C_23  and  C_24 
REMARK   11  A    between atoms: C_28  and  O_29 
REMARK   12  A    between atoms: O_29  and  C_30 
REMARK   13  A    between atoms: C_30  and  C_31 
ROOT
HETATM    1  C   UNL     1       4.244  29.028  55.808  1.00  0.00     0.161 A 
HETATM    2  N   UNL     1       3.970  30.216  56.626  1.00  0.00    -0.332 N 
HETATM    3  C   UNL     1       4.111  31.363  55.882  1.00  0.00     0.278 A 
HETATM    4  O   UNL     1       3.819  32.498  56.218  1.00  0.00    -0.265 OA
HETATM    5  C   UNL     1       4.617  30.983  54.549  1.00  0.00     0.146 A 
HETATM    6  C   UNL     1       4.664  29.646  54.508  1.00  0.00     0.059 A 
ENDROOT
BRANCH   6   7
HETATM    7  C   UNL     1       4.821  28.918  53.223  1.00  0.00     0.194 C 
HETATM    8  O   UNL     1       4.483  29.417  52.156  1.00  0.00    -0.287 OA
BRANCH   7   9
HETATM    9  C   UNL     1       5.273  27.513  53.246  1.00  0.00     0.021 A 
HETATM   10  C   UNL     1       6.627  27.194  53.449  1.00  0.00    -0.045 A 
HETATM   11  C   UNL     1       7.665  28.240  53.748  1.00  0.00     0.049 C 
HETATM   12  C   UNL     1       7.004  25.843  53.427  1.00  0.00     0.044 A 
HETATM   13  C   UNL     1       6.068  24.831  53.194  1.00  0.00     0.069 A 
HETATM   14  C   UNL     1       4.721  25.157  53.060  1.00  0.00     0.038 A 
HETATM   15  C   UNL     1       4.322  26.495  53.106  1.00  0.00     0.019 A 
BRANCH  13  16
HETATM   16  O   UNL     1       6.583  23.568  53.165  1.00  0.00    -0.347 OA
BRANCH  16  17
HETATM   17  C   UNL     1       8.001  23.461  53.295  1.00  0.00     0.214 C 
BRANCH  17  18
HETATM   18  C   UNL     1       8.288  22.358  54.282  1.00  0.00    -0.034 A 
HETATM   19  C   UNL     1       8.562  21.057  53.837  1.00  0.00     0.009 A 
HETATM   20  C   UNL     1       8.802  20.032  54.754  1.00  0.00     0.001 A 
HETATM   21  C   UNL     1       8.762  20.294  56.121  1.00  0.00     0.000 A 
HETATM   22  C   UNL     1       8.478  21.581  56.576  1.00  0.00     0.001 A 
HETATM   23  C   UNL     1       8.239  22.609  55.661  1.00  0.00     0.009 A 
ENDBRANCH  17  18
ENDBRANCH  16  17
ENDBRANCH  13  16
ENDBRANCH   7   9
ENDBRANCH   6   7
BRANCH   1  24
HETATM   24  C   UNL     1       5.229  28.122  56.519  1.00  0.00    -0.028 A 
HETATM   25  C   UNL     1       4.967  26.754  56.721  1.00  0.00     0.012 A 
HETATM   26  C   UNL     1       5.923  25.932  57.314  1.00  0.00     0.040 A 
HETATM   27  C   UNL     1       7.156  26.465  57.669  1.00  0.00     0.099 A 
HETATM   28  C   UNL     1       7.462  27.808  57.444  1.00  0.00     0.102 A 
HETATM   29  C   UNL     1       6.486  28.640  56.897  1.00  0.00     0.049 A 
BRANCH  27  30
HETATM   30  O   UNL     1       8.081  25.628  58.226  1.00  0.00    -0.358 OA
HETATM   31  H   UNL     1       8.737  25.451  57.523  1.00  0.00     0.218 HD
ENDBRANCH  27  30
BRANCH  28  32
HETATM   32  O   UNL     1       8.733  28.187  57.788  1.00  0.00    -0.349 OA
BRANCH  32  33
HETATM   33  C   UNL     1       9.075  29.554  57.543  1.00  0.00     0.171 C 
HETATM   34  C   UNL     1      10.466  29.595  56.938  1.00  0.00     0.034 C 
ENDBRANCH  32  33
ENDBRANCH  28  32
ENDBRANCH   1  24
BRANCH   5  35
HETATM   35  O   UNL     1       4.856  31.887  53.559  1.00  0.00    -0.355 OA
HETATM   36  H   UNL     1       4.001  32.259  53.276  1.00  0.00     0.218 HD
ENDBRANCH   5  35
BRANCH   2  37
HETATM   37  C   UNL     1       3.515  30.108  58.019  1.00  0.00     0.155 C 
BRANCH  37  38
HETATM   38  C   UNL     1       3.536  31.389  58.883  1.00  0.00     0.254 C 
BRANCH  38  39
HETATM   39  N   UNL     1       4.778  31.518  59.738  1.00  0.00    -0.077 N 
HETATM   40  H   UNL     1       4.952  30.560  60.104  1.00  0.00     0.279 HD
HETATM   41  C   UNL     1       5.994  31.990  59.006  1.00  0.00     0.269 C 
HETATM   42  C   UNL     1       4.520  32.339  60.971  1.00  0.00     0.269 C 
ENDBRANCH  38  39
ENDBRANCH  37  38
ENDBRANCH   2  37
TORSDOF 13
ENDMDL
MODEL 2
REMARK VINA RESULT:      -8.4      3.598     10.432
REMARK  13 active torsions:
REMARK  status: ('A' for Active; 'I' for Inactive)
REMARK    1  A    between atoms: C_2  and  O_3 
REMARK    2  A    between atoms: O_3  and  C_4 
REMARK    3  A    between atoms: C_5  and  O_6 
REMARK    4  A    between atoms: C_9  and  C_10 
REMARK    5  A    between atoms: N_11  and  C_12 
REMARK    6  A    between atoms: C_12  and  C_13 
REMARK    7  A    between atoms: C_13  and  N_14 
REMARK    8  A    between atoms: C_20  and  O_21 
REMARK    9  A    between atoms: C_22  and  C_23 
REMARK   10  A    between atoms: C_23  and  C_24 
REMARK   11  A    between atoms: C_28  and  O_29 
REMARK   12  A    between atoms: O_29  and  C_30 
REMARK   13  A    between atoms: C_30  and  C_31 
ROOT
HETATM    1  C   UNL     1       6.988  30.226  58.460  1.00  0.00     0.161 A 
HETATM    2  N   UNL     1       7.031  29.022  57.622  1.00  0.00    -0.332 N 
HETATM    3  C   UNL     1       8.307  28.790  57.166  1.00  0.00     0.278 A 
HETATM    4  O   UNL     1       8.709  27.806  56.570  1.00  0.00    -0.265 OA
HETATM    5  C   UNL     1       9.154  29.923  57.587  1.00  0.00     0.146 A 
HETATM    6  C   UNL     1       8.398  30.724  58.348  1.00  0.00     0.059 A 
ENDROOT
BRANCH   6   7
HETATM    7  C   UNL     1       9.005  31.781  59.195  1.00  0.00     0.194 C 
HETATM    8  O   UNL     1      10.036  32.356  58.867  1.00  0.00    -0.287 OA
BRANCH   7   9
HETATM    9  C   UNL     1       8.424  32.055  60.525  1.00  0.00     0.021 A 
HETATM   10  C   UNL     1       8.801  31.297  61.647  1.00  0.00    -0.045 A 
HETATM   11  C   UNL     1       9.873  30.244  61.584  1.00  0.00     0.049 C 
HETATM   12  C   UNL     1       8.191  31.580  62.878  1.00  0.00     0.044 A 
HETATM   13  C   UNL     1       7.219  32.578  62.995  1.00  0.00     0.069 A 
HETATM   14  C   UNL     1       6.903  33.364  61.890  1.00  0.00     0.038 A 
HETATM   15  C   UNL     1       7.520  33.116  60.661  1.00  0.00     0.019 A 
BRANCH  13  16
HETATM   16  O   UNL     1       6.687  32.718  64.244  1.00  0.00    -0.347 OA
BRANCH  16  17
HETATM   17  C   UNL     1       7.141  33.840  65.000  1.00  0.00     0.214 C 
BRANCH  17  18
HETATM   18  C   UNL     1       5.927  34.522  65.580  1.00  0.00    -0.034 A 
HETATM   19  C   UNL     1       5.663  34.458  66.956  1.00  0.00     0.009 A 
HETATM   20  C   UNL     1       4.524  35.067  67.486  1.00  0.00     0.001 A 
HETATM   21  C   UNL     1       3.636  35.737  66.648  1.00  0.00     0.000 A 
HETATM   22  C   UNL     1       3.882  35.797  65.278  1.00  0.00     0.001 A 
HETATM   23  C   UNL     1       5.020  35.190  64.744  1.00  0.00     0.009 A 
ENDBRANCH  17  18
ENDBRANCH  16  17
ENDBRANCH  13  16
ENDBRANCH   7   9
ENDBRANCH   6   7
BRANCH   1  24
HETATM   24  C   UNL     1       5.870  31.140  58.002  1.00  0.00    -0.028 A 
HETATM   25  C   UNL     1       5.677  31.455  56.643  1.00  0.00     0.012 A 
HETATM   26  C   UNL     1       4.597  32.241  56.248  1.00  0.00     0.040 A 
HETATM   27  C   UNL     1       3.687  32.681  57.200  1.00  0.00     0.099 A 
HETATM   28  C   UNL     1       3.827  32.352  58.550  1.00  0.00     0.102 A 
HETATM   29  C   UNL     1       4.936  31.608  58.951  1.00  0.00     0.049 A 
BRANCH  27  30
HETATM   30  O   UNL     1       2.625  33.429  56.777  1.00  0.00    -0.358 OA
HETATM   31  H   UNL     1       2.192  32.904  56.075  1.00  0.00     0.218 HD
ENDBRANCH  27  30
BRANCH  28  32
HETATM   32  O   UNL     1       2.828  32.802  59.372  1.00  0.00    -0.349 OA
BRANCH  32  33
HETATM   33  C   UNL     1       3.145  33.925  60.199  1.00  0.00     0.171 C 
HETATM   34  C   UNL     1       3.147  33.465  61.645  1.00  0.00     0.034 C 
ENDBRANCH  32  33
ENDBRANCH  28  32
ENDBRANCH   1  24
BRANCH   5  35
HETATM   35  O   UNL     1      10.484  30.001  57.306  1.00  0.00    -0.355 OA
HETATM   36  H   UNL     1      10.965  29.468  57.965  1.00  0.00     0.218 HD
ENDBRANCH   5  35
BRANCH   2  37
HETATM   37  C   UNL     1       5.848  28.175  57.423  1.00  0.00     0.155 C 
BRANCH  37  38
HETATM   38  C   UNL     1       5.408  27.883  55.970  1.00  0.00     0.254 C 
BRANCH  38  39
HETATM   39  N   UNL     1       5.081  26.426  55.722  1.00  0.00    -0.077 N 
HETATM   40  H   UNL     1       4.047  26.399  55.604  1.00  0.00     0.279 HD
HETATM   41  C   UNL     1       5.726  25.838  54.507  1.00  0.00     0.269 C 
HETATM   42  C   UNL     1       5.331  25.585  56.943  1.00  0.00     0.269 C 
ENDBRANCH  38  39
ENDBRANCH  37  38
ENDBRANCH   2  37
TORSDOF 13
ENDMDL
MODEL 3
REMARK VINA RESULT:      -8.4      5.543      9.833
REMARK  13 active torsions:
REMARK  status: ('A' for Active; 'I' for Inactive)
REMARK    1  A    between atoms: C_2  and  O_3 
REMARK    2  A    between atoms: O_3  and  C_4 
REMARK    3  A    between atoms: C_5  and  O_6 
REMARK    4  A    between atoms: C_9  and  C_10 
REMARK    5  A    between atoms: N_11  and  C_12 
REMARK    6  A    between atoms: C_12  and  C_13 
REMARK    7  A    between atoms: C_13  and  N_14 
REMARK    8  A    between atoms: C_20  and  O_21 
REMARK    9  A    between atoms: C_22  and  C_23 
REMARK   10  A    between atoms: C_23  and  C_24 
REMARK   11  A    between atoms: C_28  and  O_29 
REMARK   12  A    between atoms: O_29  and  C_30 
REMARK   13  A    between atoms: C_30  and  C_31 
ROOT
HETATM    1  C   UNL     1       4.397  35.003  62.621  1.00  0.00     0.161 A 
HETATM    2  N   UNL     1       4.203  36.044  63.637  1.00  0.00    -0.332 N 
HETATM    3  C   UNL     1       4.360  35.527  64.901  1.00  0.00     0.278 A 
HETATM    4  O   UNL     1       4.405  36.147  65.950  1.00  0.00    -0.265 OA
HETATM    5  C   UNL     1       4.543  34.068  64.777  1.00  0.00     0.146 A 
HETATM    6  C   UNL     1       4.589  33.782  63.470  1.00  0.00     0.059 A 
ENDROOT
BRANCH   6   7
HETATM    7  C   UNL     1       5.078  32.467  62.984  1.00  0.00     0.194 C 
HETATM    8  O   UNL     1       4.686  31.414  63.473  1.00  0.00    -0.287 OA
BRANCH   7   9
HETATM    9  C   UNL     1       6.159  32.432  61.978  1.00  0.00     0.021 A 
HETATM   10  C   UNL     1       7.505  32.557  62.362  1.00  0.00    -0.045 A 
HETATM   11  C   UNL     1       7.929  32.635  63.802  1.00  0.00     0.049 C 
HETATM   12  C   UNL     1       8.487  32.550  61.359  1.00  0.00     0.044 A 
HETATM   13  C   UNL     1       8.145  32.438  60.009  1.00  0.00     0.069 A 
HETATM   14  C   UNL     1       6.813  32.249  59.648  1.00  0.00     0.038 A 
HETATM   15  C   UNL     1       5.824  32.226  60.635  1.00  0.00     0.019 A 
BRANCH  13  16
HETATM   16  O   UNL     1       9.200  32.482  59.144  1.00  0.00    -0.347 OA
BRANCH  16  17
HETATM   17  C   UNL     1      10.103  31.377  59.193  1.00  0.00     0.214 C 
BRANCH  17  18
HETATM   18  C   UNL     1       9.733  30.434  58.077  1.00  0.00    -0.034 A 
HETATM   19  C   UNL     1      10.432  30.459  56.862  1.00  0.00     0.009 A 
HETATM   20  C   UNL     1      10.071  29.602  55.819  1.00  0.00     0.001 A 
HETATM   21  C   UNL     1       9.004  28.721  55.978  1.00  0.00     0.000 A 
HETATM   22  C   UNL     1       8.293  28.696  57.177  1.00  0.00     0.001 A 
HETATM   23  C   UNL     1       8.653  29.550  58.221  1.00  0.00     0.009 A 
ENDBRANCH  17  18
ENDBRANCH  16  17
ENDBRANCH  13  16
ENDBRANCH   7   9
ENDBRANCH   6   7
BRANCH   1  24
HETATM   24  C   UNL     1       3.244  35.013  61.637  1.00  0.00    -0.028 A 
HETATM   25  C   UNL     1       1.942  34.634  62.015  1.00  0.00     0.012 A 
HETATM   26  C   UNL     1       0.889  34.723  61.106  1.00  0.00     0.040 A 
HETATM   27  C   UNL     1       1.126  35.226  59.834  1.00  0.00     0.099 A 
HETATM   28  C   UNL     1       2.398  35.649  59.441  1.00  0.00     0.102 A 
HETATM   29  C   UNL     1       3.460  35.513  60.335  1.00  0.00     0.049 A 
BRANCH  27  30
HETATM   30  O   UNL     1       0.069  35.324  58.974  1.00  0.00    -0.358 OA
HETATM   31  H   UNL     1      -0.088  34.418  58.641  1.00  0.00     0.218 HD
ENDBRANCH  27  30
BRANCH  28  32
HETATM   32  O   UNL     1       2.479  36.179  58.180  1.00  0.00    -0.349 OA
BRANCH  32  33
HETATM   33  C   UNL     1       3.419  37.241  57.998  1.00  0.00     0.171 C 
HETATM   34  C   UNL     1       2.654  38.489  57.597  1.00  0.00     0.034 C 
ENDBRANCH  32  33
ENDBRANCH  28  32
ENDBRANCH   1  24
BRANCH   5  35
HETATM   35  O   UNL     1       4.739  33.250  65.847  1.00  0.00    -0.355 OA
HETATM   36  H   UNL     1       3.874  32.886  66.112  1.00  0.00     0.218 HD
ENDBRANCH   5  35
BRANCH   2  37
HETATM   37  C   UNL     1       3.972  37.448  63.272  1.00  0.00     0.155 C 
BRANCH  37  38
HETATM   38  C   UNL     1       5.147  38.230  62.642  1.00  0.00     0.254 C 
BRANCH  38  39
HETATM   39  N   UNL     1       4.707  39.259  61.623  1.00  0.00    -0.077 N 
HETATM   40  H   UNL     1       4.785  40.174  62.114  1.00  0.00     0.279 HD
HETATM   41  C   UNL     1       5.536  39.301  60.379  1.00  0.00     0.269 C 
HETATM   42  C   UNL     1       3.242  39.137  61.309  1.00  0.00     0.269 C 
ENDBRANCH  38  39
ENDBRANCH  37  38
ENDBRANCH   2  37
TORSDOF 13
ENDMDL
MODEL 4
REMARK VINA RESULT:      -8.4      4.358      7.529
REMARK  13 active torsions:
REMARK  status: ('A' for Active; 'I' for Inactive)
REMARK    1  A    between atoms: C_2  and  O_3 
REMARK    2  A    between atoms: O_3  and  C_4 
REMARK    3  A    between atoms: C_5  and  O_6 
REMARK    4  A    between atoms: C_9  and  C_10 
REMARK    5  A    between atoms: N_11  and  C_12 
REMARK    6  A    between atoms: C_12  and  C_13 
REMARK    7  A    between atoms: C_13  and  N_14 
REMARK    8  A    between atoms: C_20  and  O_21 
REMARK    9  A    between atoms: C_22  and  C_23 
REMARK   10  A    between atoms: C_23  and  C_24 
REMARK   11  A    between atoms: C_28  and  O_29 
REMARK   12  A    between atoms: O_29  and  C_30 
REMARK   13  A    between atoms: C_30  and  C_31 
ROOT
HETATM    1  C   UNL     1       4.880  29.204  50.556  1.00  0.00     0.161 A 
HETATM    2  N   UNL     1       4.857  30.617  50.157  1.00  0.00    -0.332 N 
HETATM    3  C   UNL     1       4.219  31.381  51.105  1.00  0.00     0.278 A 
HETATM    4  O   UNL     1       4.154  32.597  51.148  1.00  0.00    -0.265 OA
HETATM    5  C   UNL     1       3.673  30.473  52.131  1.00  0.00     0.146 A 
HETATM    6  C   UNL     1       4.078  29.234  51.823  1.00  0.00     0.059 A 
ENDROOT
BRANCH   6   7
HETATM    7  C   UNL     1       3.981  28.124  52.804  1.00  0.00     0.194 C 
HETATM    8  O   UNL     1       3.080  28.076  53.634  1.00  0.00    -0.287 OA
BRANCH   7   9
HETATM    9  C   UNL     1       5.066  27.125  52.865  1.00  0.00     0.021 A 
HETATM   10  C   UNL     1       6.223  27.362  53.628  1.00  0.00    -0.045 A 
HETATM   11  C   UNL     1       6.382  28.583  54.491  1.00  0.00     0.049 C 
HETATM   12  C   UNL     1       7.236  26.392  53.621  1.00  0.00     0.044 A 
HETATM   13  C   UNL     1       7.117  25.222  52.866  1.00  0.00     0.069 A 
HETATM   14  C   UNL     1       5.938  24.970  52.168  1.00  0.00     0.038 A 
HETATM   15  C   UNL     1       4.906  25.912  52.185  1.00  0.00     0.019 A 
BRANCH  13  16
HETATM   16  O   UNL     1       8.194  24.386  52.927  1.00  0.00    -0.347 OA
BRANCH  16  17
HETATM   17  C   UNL     1       7.921  22.993  52.779  1.00  0.00     0.214 C 
BRANCH  17  18
HETATM   18  C   UNL     1       8.094  22.346  54.129  1.00  0.00    -0.034 A 
HETATM   19  C   UNL     1       8.000  20.954  54.270  1.00  0.00     0.009 A 
HETATM   20  C   UNL     1       8.134  20.359  55.526  1.00  0.00     0.001 A 
HETATM   21  C   UNL     1       8.354  21.148  56.653  1.00  0.00     0.000 A 
HETATM   22  C   UNL     1       8.436  22.534  56.527  1.00  0.00     0.001 A 
HETATM   23  C   UNL     1       8.304  23.132  55.272  1.00  0.00     0.009 A 
ENDBRANCH  17  18
ENDBRANCH  16  17
ENDBRANCH  13  16
ENDBRANCH   7   9
ENDBRANCH   6   7
BRANCH   1  24
HETATM   24  C   UNL     1       4.387  28.333  49.420  1.00  0.00    -0.028 A 
HETATM   25  C   UNL     1       5.259  27.512  48.681  1.00  0.00     0.012 A 
HETATM   26  C   UNL     1       4.764  26.668  47.688  1.00  0.00     0.040 A 
HETATM   27  C   UNL     1       3.395  26.613  47.460  1.00  0.00     0.099 A 
HETATM   28  C   UNL     1       2.499  27.384  48.204  1.00  0.00     0.102 A 
HETATM   29  C   UNL     1       3.001  28.264  49.161  1.00  0.00     0.049 A 
BRANCH  27  30
HETATM   30  O   UNL     1       2.938  25.757  46.498  1.00  0.00    -0.358 OA
HETATM   31  H   UNL     1       3.498  25.916  45.712  1.00  0.00     0.218 HD
ENDBRANCH  27  30
BRANCH  28  32
HETATM   32  O   UNL     1       1.174  27.188  47.915  1.00  0.00    -0.349 OA
BRANCH  32  33
HETATM   33  C   UNL     1       0.547  28.190  47.110  1.00  0.00     0.171 C 
HETATM   34  C   UNL     1      -0.101  27.507  45.920  1.00  0.00     0.034 C 
ENDBRANCH  32  33
ENDBRANCH  28  32
ENDBRANCH   1  24
BRANCH   5  35
HETATM   35  O   UNL     1       2.988  30.911  53.224  1.00  0.00    -0.355 OA
HETATM   36  H   UNL     1       2.430  30.179  53.545  1.00  0.00     0.218 HD
ENDBRANCH   5  35
BRANCH   2  37
HETATM   37  C   UNL     1       5.532  31.087  48.940  1.00  0.00     0.155 C 
BRANCH  37  38
HETATM   38  C   UNL     1       4.689  31.871  47.908  1.00  0.00     0.254 C 
BRANCH  38  39
HETATM   39  N   UNL     1       4.599  31.186  46.561  1.00  0.00    -0.077 N 
HETATM   40  H   UNL     1       5.362  30.479  46.568  1.00  0.00     0.279 HD
HETATM   41  C   UNL     1       3.297  30.498  46.296  1.00  0.00     0.269 C 
HETATM   42  C   UNL     1       4.972  32.116  45.440  1.00  0.00     0.269 C 
ENDBRANCH  38  39
ENDBRANCH  37  38
ENDBRANCH   2  37
TORSDOF 13
ENDMDL
MODEL 5
REMARK VINA RESULT:      -8.3      2.298      4.936
REMARK  13 active torsions:
REMARK  status: ('A' for Active; 'I' for Inactive)
REMARK    1  A    between atoms: C_2  and  O_3 
REMARK    2  A    between atoms: O_3  and  C_4 
REMARK    3  A    between atoms: C_5  and  O_6 
REMARK    4  A    between atoms: C_9  and  C_10 
REMARK    5  A    between atoms: N_11  and  C_12 
REMARK    6  A    between atoms: C_12  and  C_13 
REMARK    7  A    between atoms: C_13  and  N_14 
REMARK    8  A    between atoms: C_20  and  O_21 
REMARK    9  A    between atoms: C_22  and  C_23 
REMARK   10  A    between atoms: C_23  and  C_24 
REMARK   11  A    between atoms: C_28  and  O_29 
REMARK   12  A    between atoms: O_29  and  C_30 
REMARK   13  A    between atoms: C_30  and  C_31 
ROOT
HETATM    1  C   UNL     1       4.603  30.382  54.618  1.00  0.00     0.161 A 
HETATM    2  N   UNL     1       3.389  31.177  54.399  1.00  0.00    -0.332 N 
HETATM    3  C   UNL     1       2.688  31.330  55.571  1.00  0.00     0.278 A 
HETATM    4  O   UNL     1       1.721  32.046  55.763  1.00  0.00    -0.265 OA
HETATM    5  C   UNL     1       3.355  30.521  56.610  1.00  0.00     0.146 A 
HETATM    6  C   UNL     1       4.462  30.005  56.063  1.00  0.00     0.059 A 
ENDROOT
BRANCH   6   7
HETATM    7  C   UNL     1       5.531  29.406  56.901  1.00  0.00     0.194 C 
HETATM    8  O   UNL     1       6.151  30.069  57.725  1.00  0.00    -0.287 OA
BRANCH   7   9
HETATM    9  C   UNL     1       5.944  28.011  56.647  1.00  0.00     0.021 A 
HETATM   10  C   UNL     1       7.130  27.726  55.948  1.00  0.00    -0.045 A 
HETATM   11  C   UNL     1       8.083  28.803  55.507  1.00  0.00     0.049 C 
HETATM   12  C   UNL     1       7.455  26.383  55.706  1.00  0.00     0.044 A 
HETATM   13  C   UNL     1       6.620  25.346  56.132  1.00  0.00     0.069 A 
HETATM   14  C   UNL     1       5.484  25.640  56.881  1.00  0.00     0.038 A 
HETATM   15  C   UNL     1       5.158  26.971  57.156  1.00  0.00     0.019 A 
BRANCH  13  16
HETATM   16  O   UNL     1       7.045  24.093  55.797  1.00  0.00    -0.347 OA
BRANCH  16  17
HETATM   17  C   UNL     1       6.997  23.761  54.409  1.00  0.00     0.214 C 
BRANCH  17  18
HETATM   18  C   UNL     1       7.601  22.390  54.245  1.00  0.00    -0.034 A 
HETATM   19  C   UNL     1       7.924  21.614  55.368  1.00  0.00     0.009 A 
HETATM   20  C   UNL     1       8.508  20.355  55.215  1.00  0.00     0.001 A 
HETATM   21  C   UNL     1       8.783  19.864  53.941  1.00  0.00     0.000 A 
HETATM   22  C   UNL     1       8.478  20.631  52.817  1.00  0.00     0.001 A 
HETATM   23  C   UNL     1       7.893  21.890  52.968  1.00  0.00     0.009 A 
ENDBRANCH  17  18
ENDBRANCH  16  17
ENDBRANCH  13  16
ENDBRANCH   7   9
ENDBRANCH   6   7
BRANCH   1  24
HETATM   24  C   UNL     1       4.689  29.267  53.595  1.00  0.00    -0.028 A 
HETATM   25  C   UNL     1       4.062  28.023  53.799  1.00  0.00     0.012 A 
HETATM   26  C   UNL     1       4.100  27.044  52.807  1.00  0.00     0.040 A 
HETATM   27  C   UNL     1       4.726  27.319  51.599  1.00  0.00     0.099 A 
HETATM   28  C   UNL     1       5.321  28.558  51.350  1.00  0.00     0.102 A 
HETATM   29  C   UNL     1       5.326  29.518  52.361  1.00  0.00     0.049 A 
BRANCH  27  30
HETATM   30  O   UNL     1       4.724  26.348  50.638  1.00  0.00    -0.358 OA
HETATM   31  H   UNL     1       5.154  26.745  49.856  1.00  0.00     0.218 HD
ENDBRANCH  27  30
BRANCH  28  32
HETATM   32  O   UNL     1       5.851  28.715  50.097  1.00  0.00    -0.349 OA
BRANCH  32  33
HETATM   33  C   UNL     1       5.326  29.793  49.318  1.00  0.00     0.171 C 
HETATM   34  C   UNL     1       3.976  29.370  48.770  1.00  0.00     0.034 C 
ENDBRANCH  32  33
ENDBRANCH  28  32
ENDBRANCH   1  24
BRANCH   5  35
HETATM   35  O   UNL     1       2.919  30.459  57.898  1.00  0.00    -0.355 OA
HETATM   36  H   UNL     1       2.762  29.523  58.120  1.00  0.00     0.218 HD
ENDBRANCH   5  35
BRANCH   2  37
HETATM   37  C   UNL     1       3.083  31.778  53.094  1.00  0.00     0.155 C 
BRANCH  37  38
HETATM   38  C   UNL     1       3.600  33.209  52.822  1.00  0.00     0.254 C 
BRANCH  38  39
HETATM   39  N   UNL     1       5.073  33.261  52.477  1.00  0.00    -0.077 N 
HETATM   40  H   UNL     1       5.505  32.490  53.028  1.00  0.00     0.279 HD
HETATM   41  C   UNL     1       5.383  33.057  51.028  1.00  0.00     0.269 C 
HETATM   42  C   UNL     1       5.725  34.504  53.014  1.00  0.00     0.269 C 
ENDBRANCH  38  39
ENDBRANCH  37  38
ENDBRANCH   2  37
TORSDOF 13
ENDMDL
MODEL 6
REMARK VINA RESULT:      -8.3      3.564     10.078
REMARK  13 active torsions:
REMARK  status: ('A' for Active; 'I' for Inactive)
REMARK    1  A    between atoms: C_2  and  O_3 
REMARK    2  A    between atoms: O_3  and  C_4 
REMARK    3  A    between atoms: C_5  and  O_6 
REMARK    4  A    between atoms: C_9  and  C_10 
REMARK    5  A    between atoms: N_11  and  C_12 
REMARK    6  A    between atoms: C_12  and  C_13 
REMARK    7  A    between atoms: C_13  and  N_14 
REMARK    8  A    between atoms: C_20  and  O_21 
REMARK    9  A    between atoms: C_22  and  C_23 
REMARK   10  A    between atoms: C_23  and  C_24 
REMARK   11  A    between atoms: C_28  and  O_29 
REMARK   12  A    between atoms: O_29  and  C_30 
REMARK   13  A    between atoms: C_30  and  C_31 
ROOT
HETATM    1  C   UNL     1       6.772  29.759  58.273  1.00  0.00     0.161 A 
HETATM    2  N   UNL     1       7.207  28.579  57.518  1.00  0.00    -0.332 N 
HETATM    3  C   UNL     1       8.562  28.618  57.288  1.00  0.00     0.278 A 
HETATM    4  O   UNL     1       9.255  27.732  56.818  1.00  0.00    -0.265 OA
HETATM    5  C   UNL     1       9.070  29.912  57.781  1.00  0.00     0.146 A 
HETATM    6  C   UNL     1       8.046  30.546  58.365  1.00  0.00     0.059 A 
ENDROOT
BRANCH   6   7
HETATM    7  C   UNL     1       8.266  31.723  59.243  1.00  0.00     0.194 C 
HETATM    8  O   UNL     1       9.187  32.508  59.048  1.00  0.00    -0.287 OA
BRANCH   7   9
HETATM    9  C   UNL     1       7.435  31.879  60.454  1.00  0.00     0.021 A 
HETATM   10  C   UNL     1       7.810  31.277  61.668  1.00  0.00    -0.045 A 
HETATM   11  C   UNL     1       9.105  30.531  61.831  1.00  0.00     0.049 C 
HETATM   12  C   UNL     1       6.964  31.431  62.777  1.00  0.00     0.044 A 
HETATM   13  C   UNL     1       5.769  32.150  62.685  1.00  0.00     0.069 A 
HETATM   14  C   UNL     1       5.444  32.796  61.495  1.00  0.00     0.038 A 
HETATM   15  C   UNL     1       6.287  32.677  60.387  1.00  0.00     0.019 A 
BRANCH  13  16
HETATM   16  O   UNL     1       5.031  32.187  63.832  1.00  0.00    -0.347 OA
BRANCH  16  17
HETATM   17  C   UNL     1       4.525  33.466  64.216  1.00  0.00     0.214 C 
BRANCH  17  18
HETATM   18  C   UNL     1       5.131  33.816  65.551  1.00  0.00    -0.034 A 
HETATM   19  C   UNL     1       6.523  33.876  65.709  1.00  0.00     0.009 A 
HETATM   20  C   UNL     1       7.082  34.175  66.953  1.00  0.00     0.001 A 
HETATM   21  C   UNL     1       6.257  34.407  68.051  1.00  0.00     0.000 A 
HETATM   22  C   UNL     1       4.872  34.338  67.910  1.00  0.00     0.001 A 
HETATM   23  C   UNL     1       4.310  34.041  66.666  1.00  0.00     0.009 A 
ENDBRANCH  17  18
ENDBRANCH  16  17
ENDBRANCH  13  16
ENDBRANCH   7   9
ENDBRANCH   6   7
BRANCH   1  24
HETATM   24  C   UNL     1       5.583  30.405  57.592  1.00  0.00    -0.028 A 
HETATM   25  C   UNL     1       4.283  30.311  58.123  1.00  0.00     0.012 A 
HETATM   26  C   UNL     1       3.221  30.976  57.511  1.00  0.00     0.040 A 
HETATM   27  C   UNL     1       3.463  31.767  56.395  1.00  0.00     0.099 A 
HETATM   28  C   UNL     1       4.748  31.914  55.869  1.00  0.00     0.102 A 
HETATM   29  C   UNL     1       5.800  31.208  56.452  1.00  0.00     0.049 A 
BRANCH  27  30
HETATM   30  O   UNL     1       2.406  32.426  55.834  1.00  0.00    -0.358 OA
HETATM   31  H   UNL     1       2.789  33.016  55.155  1.00  0.00     0.218 HD
ENDBRANCH  27  30
BRANCH  28  32
HETATM   32  O   UNL     1       4.853  32.769  54.804  1.00  0.00    -0.349 OA
BRANCH  32  33
HETATM   33  C   UNL     1       5.229  34.115  55.106  1.00  0.00     0.171 C 
HETATM   34  C   UNL     1       5.738  34.764  53.832  1.00  0.00     0.034 C 
ENDBRANCH  32  33
ENDBRANCH  28  32
ENDBRANCH   1  24
BRANCH   5  35
HETATM   35  O   UNL     1      10.383  30.269  57.716  1.00  0.00    -0.355 OA
HETATM   36  H   UNL     1      10.903  29.473  57.500  1.00  0.00     0.218 HD
ENDBRANCH   5  35
BRANCH   2  37
HETATM   37  C   UNL     1       6.277  27.494  57.174  1.00  0.00     0.155 C 
BRANCH  37  38
HETATM   38  C   UNL     1       5.926  27.294  55.683  1.00  0.00     0.254 C 
BRANCH  38  39
HETATM   39  N   UNL     1       6.969  26.504  54.920  1.00  0.00    -0.077 N 
HETATM   40  H   UNL     1       7.779  26.434  55.569  1.00  0.00     0.279 HD
HETATM   41  C   UNL     1       6.542  25.127  54.522  1.00  0.00     0.269 C 
HETATM   42  C   UNL     1       7.504  27.279  53.749  1.00  0.00     0.269 C 
ENDBRANCH  38  39
ENDBRANCH  37  38
ENDBRANCH   2  37
TORSDOF 13
ENDMDL
MODEL 7
REMARK VINA RESULT:      -8.2      2.829      8.323
REMARK  13 active torsions:
REMARK  status: ('A' for Active; 'I' for Inactive)
REMARK    1  A    between atoms: C_2  and  O_3 
REMARK    2  A    between atoms: O_3  and  C_4 
REMARK    3  A    between atoms: C_5  and  O_6 
REMARK    4  A    between atoms: C_9  and  C_10 
REMARK    5  A    between atoms: N_11  and  C_12 
REMARK    6  A    between atoms: C_12  and  C_13 
REMARK    7  A    between atoms: C_13  and  N_14 
REMARK    8  A    between atoms: C_20  and  O_21 
REMARK    9  A    between atoms: C_22  and  C_23 
REMARK   10  A    between atoms: C_23  and  C_24 
REMARK   11  A    between atoms: C_28  and  O_29 
REMARK   12  A    between atoms: O_29  and  C_30 
REMARK   13  A    between atoms: C_30  and  C_31 
ROOT
HETATM    1  C   UNL     1       6.410  27.323  54.132  1.00  0.00     0.161 A 
HETATM    2  N   UNL     1       5.454  27.755  53.106  1.00  0.00    -0.332 N 
HETATM    3  C   UNL     1       4.306  28.244  53.683  1.00  0.00     0.278 A 
HETATM    4  O   UNL     1       3.383  28.808  53.123  1.00  0.00    -0.265 OA
HETATM    5  C   UNL     1       4.404  28.034  55.140  1.00  0.00     0.146 A 
HETATM    6  C   UNL     1       5.620  27.532  55.389  1.00  0.00     0.059 A 
ENDROOT
BRANCH   6   7
HETATM    7  C   UNL     1       6.175  27.499  56.766  1.00  0.00     0.194 C 
HETATM    8  O   UNL     1       6.060  26.510  57.482  1.00  0.00    -0.287 OA
BRANCH   7   9
HETATM    9  C   UNL     1       6.763  28.729  57.332  1.00  0.00     0.021 A 
HETATM   10  C   UNL     1       8.155  28.861  57.478  1.00  0.00    -0.045 A 
HETATM   11  C   UNL     1       9.120  27.818  56.986  1.00  0.00     0.049 C 
HETATM   12  C   UNL     1       8.656  30.039  58.053  1.00  0.00     0.044 A 
HETATM   13  C   UNL     1       7.801  31.055  58.488  1.00  0.00     0.069 A 
HETATM   14  C   UNL     1       6.429  30.939  58.277  1.00  0.00     0.038 A 
HETATM   15  C   UNL     1       5.913  29.785  57.681  1.00  0.00     0.019 A 
BRANCH  13  16
HETATM   16  O   UNL     1       8.425  32.126  59.059  1.00  0.00    -0.347 OA
BRANCH  16  17
HETATM   17  C   UNL     1       9.113  31.875  60.285  1.00  0.00     0.214 C 
BRANCH  17  18
HETATM   18  C   UNL     1       8.269  32.429  61.404  1.00  0.00    -0.034 A 
HETATM   19  C   UNL     1       7.155  33.233  61.127  1.00  0.00     0.009 A 
HETATM   20  C   UNL     1       6.390  33.767  62.166  1.00  0.00     0.001 A 
HETATM   21  C   UNL     1       6.735  33.509  63.491  1.00  0.00     0.000 A 
HETATM   22  C   UNL     1       7.848  32.721  63.779  1.00  0.00     0.001 A 
HETATM   23  C   UNL     1       8.614  32.185  62.742  1.00  0.00     0.009 A 
ENDBRANCH  17  18
ENDBRANCH  16  17
ENDBRANCH  13  16
ENDBRANCH   7   9
ENDBRANCH   6   7
BRANCH   1  24
HETATM   24  C   UNL     1       6.907  25.925  53.826  1.00  0.00    -0.028 A 
HETATM   25  C   UNL     1       7.623  25.632  52.650  1.00  0.00     0.012 A 
HETATM   26  C   UNL     1       8.128  24.352  52.431  1.00  0.00     0.040 A 
HETATM   27  C   UNL     1       7.954  23.374  53.402  1.00  0.00     0.099 A 
HETATM   28  C   UNL     1       7.284  23.643  54.597  1.00  0.00     0.102 A 
HETATM   29  C   UNL     1       6.736  24.911  54.792  1.00  0.00     0.049 A 
BRANCH  27  30
HETATM   30  O   UNL     1       8.483  22.136  53.169  1.00  0.00    -0.358 OA
HETATM   31  H   UNL     1       7.726  21.563  52.936  1.00  0.00     0.218 HD
ENDBRANCH  27  30
BRANCH  28  32
HETATM   32  O   UNL     1       7.236  22.606  55.491  1.00  0.00    -0.349 OA
BRANCH  32  33
HETATM   33  C   UNL     1       8.366  22.461  56.355  1.00  0.00     0.171 C 
HETATM   34  C   UNL     1       8.500  23.728  57.179  1.00  0.00     0.034 C 
ENDBRANCH  32  33
ENDBRANCH  28  32
ENDBRANCH   1  24
BRANCH   5  35
HETATM   35  O   UNL     1       3.433  28.418  56.014  1.00  0.00    -0.355 OA
HETATM   36  H   UNL     1       3.845  28.544  56.888  1.00  0.00     0.218 HD
ENDBRANCH   5  35
BRANCH   2  37
HETATM   37  C   UNL     1       5.790  27.731  51.676  1.00  0.00     0.155 C 
BRANCH  37  38
HETATM   38  C   UNL     1       4.837  26.968  50.726  1.00  0.00     0.254 C 
BRANCH  38  39
HETATM   39  N   UNL     1       5.217  27.093  49.266  1.00  0.00    -0.077 N 
HETATM   40  H   UNL     1       6.159  26.657  49.196  1.00  0.00     0.279 HD
HETATM   41  C   UNL     1       4.288  26.403  48.318  1.00  0.00     0.269 C 
HETATM   42  C   UNL     1       5.446  28.526  48.873  1.00  0.00     0.269 C 
ENDBRANCH  38  39
ENDBRANCH  37  38
ENDBRANCH   2  37
TORSDOF 13
ENDMDL
MODEL 8
REMARK VINA RESULT:      -7.8      5.786     10.258
REMARK  13 active torsions:
REMARK  status: ('A' for Active; 'I' for Inactive)
REMARK    1  A    between atoms: C_2  and  O_3 
REMARK    2  A    between atoms: O_3  and  C_4 
REMARK    3  A    between atoms: C_5  and  O_6 
REMARK    4  A    between atoms: C_9  and  C_10 
REMARK    5  A    between atoms: N_11  and  C_12 
REMARK    6  A    between atoms: C_12  and  C_13 
REMARK    7  A    between atoms: C_13  and  N_14 
REMARK    8  A    between atoms: C_20  and  O_21 
REMARK    9  A    between atoms: C_22  and  C_23 
REMARK   10  A    between atoms: C_23  and  C_24 
REMARK   11  A    between atoms: C_28  and  O_29 
REMARK   12  A    between atoms: O_29  and  C_30 
REMARK   13  A    between atoms: C_30  and  C_31 
ROOT
HETATM    1  C   UNL     1       4.624  35.695  62.405  1.00  0.00     0.161 A 
HETATM    2  N   UNL     1       4.700  37.098  62.830  1.00  0.00    -0.332 N 
HETATM    3  C   UNL     1       5.016  37.187  64.165  1.00  0.00     0.278 A 
HETATM    4  O   UNL     1       5.293  38.196  64.790  1.00  0.00    -0.265 OA
HETATM    5  C   UNL     1       5.040  35.820  64.720  1.00  0.00     0.146 A 
HETATM    6  C   UNL     1       4.841  34.974  63.702  1.00  0.00     0.059 A 
ENDROOT
BRANCH   6   7
HETATM    7  C   UNL     1       5.119  33.521  63.840  1.00  0.00     0.194 C 
HETATM    8  O   UNL     1       4.533  32.830  64.666  1.00  0.00    -0.287 OA
BRANCH   7   9
HETATM    9  C   UNL     1       6.216  32.923  63.054  1.00  0.00     0.021 A 
HETATM   10  C   UNL     1       5.970  32.344  61.797  1.00  0.00    -0.045 A 
HETATM   11  C   UNL     1       4.616  32.383  61.143  1.00  0.00     0.049 C 
HETATM   12  C   UNL     1       7.045  31.761  61.110  1.00  0.00     0.044 A 
HETATM   13  C   UNL     1       8.330  31.736  61.659  1.00  0.00     0.069 A 
HETATM   14  C   UNL     1       8.572  32.372  62.874  1.00  0.00     0.038 A 
HETATM   15  C   UNL     1       7.519  32.982  63.560  1.00  0.00     0.019 A 
BRANCH  13  16
HETATM   16  O   UNL     1       9.269  31.105  60.895  1.00  0.00    -0.347 OA
BRANCH  16  17
HETATM   17  C   UNL     1       9.648  31.766  59.687  1.00  0.00     0.214 C 
BRANCH  17  18
HETATM   18  C   UNL     1       9.630  30.742  58.581  1.00  0.00    -0.034 A 
HETATM   19  C   UNL     1      10.637  30.730  57.604  1.00  0.00     0.009 A 
HETATM   20  C   UNL     1      10.604  29.797  56.566  1.00  0.00     0.001 A 
HETATM   21  C   UNL     1       9.563  28.875  56.488  1.00  0.00     0.000 A 
HETATM   22  C   UNL     1       8.551  28.885  57.446  1.00  0.00     0.001 A 
HETATM   23  C   UNL     1       8.581  29.815  58.487  1.00  0.00     0.009 A 
ENDBRANCH  17  18
ENDBRANCH  16  17
ENDBRANCH  13  16
ENDBRANCH   7   9
ENDBRANCH   6   7
BRANCH   1  24
HETATM   24  C   UNL     1       3.331  35.445  61.658  1.00  0.00    -0.028 A 
HETATM   25  C   UNL     1       2.158  35.035  62.320  1.00  0.00     0.012 A 
HETATM   26  C   UNL     1       0.966  34.883  61.614  1.00  0.00     0.040 A 
HETATM   27  C   UNL     1       0.933  35.178  60.257  1.00  0.00     0.099 A 
HETATM   28  C   UNL     1       2.068  35.626  59.580  1.00  0.00     0.102 A 
HETATM   29  C   UNL     1       3.272  35.730  60.277  1.00  0.00     0.049 A 
BRANCH  27  30
HETATM   30  O   UNL     1      -0.257  35.043  59.599  1.00  0.00    -0.358 OA
HETATM   31  H   UNL     1      -0.216  35.663  58.844  1.00  0.00     0.218 HD
ENDBRANCH  27  30
BRANCH  28  32
HETATM   32  O   UNL     1       1.881  35.936  58.259  1.00  0.00    -0.349 OA
BRANCH  32  33
HETATM   33  C   UNL     1       2.497  35.061  57.310  1.00  0.00     0.171 C 
HETATM   34  C   UNL     1       3.055  35.904  56.178  1.00  0.00     0.034 C 
ENDBRANCH  32  33
ENDBRANCH  28  32
ENDBRANCH   1  24
BRANCH   5  35
HETATM   35  O   UNL     1       5.334  35.551  66.022  1.00  0.00    -0.355 OA
HETATM   36  H   UNL     1       6.304  35.556  66.121  1.00  0.00     0.218 HD
ENDBRANCH   5  35
BRANCH   2  37
HETATM   37  C   UNL     1       4.543  38.205  61.877  1.00  0.00     0.155 C 
BRANCH  37  38
HETATM   38  C   UNL     1       5.822  38.781  61.227  1.00  0.00     0.254 C 
BRANCH  38  39
HETATM   39  N   UNL     1       6.187  40.158  61.737  1.00  0.00    -0.077 N 
HETATM   40  H   UNL     1       6.498  40.683  60.894  1.00  0.00     0.279 HD
HETATM   41  C   UNL     1       5.064  40.902  62.388  1.00  0.00     0.269 C 
HETATM   42  C   UNL     1       7.407  40.120  62.614  1.00  0.00     0.269 C 
ENDBRANCH  38  39
ENDBRANCH  37  38
ENDBRANCH   2  37
TORSDOF 13
ENDMDL
MODEL 9
REMARK VINA RESULT:      -7.8      3.983      6.931
REMARK  13 active torsions:
REMARK  status: ('A' for Active; 'I' for Inactive)
REMARK    1  A    between atoms: C_2  and  O_3 
REMARK    2  A    between atoms: O_3  and  C_4 
REMARK    3  A    between atoms: C_5  and  O_6 
REMARK    4  A    between atoms: C_9  and  C_10 
REMARK    5  A    between atoms: N_11  and  C_12 
REMARK    6  A    between atoms: C_12  and  C_13 
REMARK    7  A    between atoms: C_13  and  N_14 
REMARK    8  A    between atoms: C_20  and  O_21 
REMARK    9  A    between atoms: C_22  and  C_23 
REMARK   10  A    between atoms: C_23  and  C_24 
REMARK   11  A    between atoms: C_28  and  O_29 
REMARK   12  A    between atoms: O_29  and  C_30 
REMARK   13  A    between atoms: C_30  and  C_31 
ROOT
HETATM    1  C   UNL     1       5.066  30.036  51.377  1.00  0.00     0.161 A 
HETATM    2  N   UNL     1       5.229  31.303  50.654  1.00  0.00    -0.332 N 
HETATM    3  C   UNL     1       4.626  32.334  51.334  1.00  0.00     0.278 A 
HETATM    4  O   UNL     1       4.698  33.524  51.081  1.00  0.00    -0.265 OA
HETATM    5  C   UNL     1       3.916  31.762  52.494  1.00  0.00     0.146 A 
HETATM    6  C   UNL     1       4.195  30.453  52.525  1.00  0.00     0.059 A 
ENDROOT
BRANCH   6   7
HETATM    7  C   UNL     1       3.912  29.631  53.729  1.00  0.00     0.194 C 
HETATM    8  O   UNL     1       3.086  29.979  54.565  1.00  0.00    -0.287 OA
BRANCH   7   9
HETATM    9  C   UNL     1       4.736  28.434  53.990  1.00  0.00     0.021 A 
HETATM   10  C   UNL     1       5.847  28.497  54.849  1.00  0.00    -0.045 A 
HETATM   11  C   UNL     1       6.203  29.740  55.616  1.00  0.00     0.049 C 
HETATM   12  C   UNL     1       6.613  27.336  55.033  1.00  0.00     0.044 A 
HETATM   13  C   UNL     1       6.298  26.145  54.373  1.00  0.00     0.069 A 
HETATM   14  C   UNL     1       5.157  26.080  53.577  1.00  0.00     0.038 A 
HETATM   15  C   UNL     1       4.365  27.218  53.403  1.00  0.00     0.019 A 
BRANCH  13  16
HETATM   16  O   UNL     1       7.151  25.108  54.619  1.00  0.00    -0.347 OA
BRANCH  16  17
HETATM   17  C   UNL     1       7.581  24.362  53.481  1.00  0.00     0.214 C 
BRANCH  17  18
HETATM   18  C   UNL     1       7.771  22.931  53.918  1.00  0.00    -0.034 A 
HETATM   19  C   UNL     1       7.994  21.921  52.972  1.00  0.00     0.009 A 
HETATM   20  C   UNL     1       8.143  20.593  53.376  1.00  0.00     0.001 A 
HETATM   21  C   UNL     1       8.061  20.261  54.727  1.00  0.00     0.000 A 
HETATM   22  C   UNL     1       7.827  21.255  55.675  1.00  0.00     0.001 A 
HETATM   23  C   UNL     1       7.679  22.584  55.274  1.00  0.00     0.009 A 
ENDBRANCH  17  18
ENDBRANCH  16  17
ENDBRANCH  13  16
ENDBRANCH   7   9
ENDBRANCH   6   7
BRANCH   1  24
HETATM   24  C   UNL     1       4.548  28.964  50.441  1.00  0.00    -0.028 A 
HETATM   25  C   UNL     1       5.322  27.839  50.099  1.00  0.00     0.012 A 
HETATM   26  C   UNL     1       4.790  26.835  49.292  1.00  0.00     0.040 A 
HETATM   27  C   UNL     1       3.473  26.932  48.860  1.00  0.00     0.099 A 
HETATM   28  C   UNL     1       2.666  28.014  49.216  1.00  0.00     0.102 A 
HETATM   29  C   UNL     1       3.216  29.042  49.981  1.00  0.00     0.049 A 
BRANCH  27  30
HETATM   30  O   UNL     1       2.973  25.920  48.091  1.00  0.00    -0.358 OA
HETATM   31  H   UNL     1       2.252  26.316  47.564  1.00  0.00     0.218 HD
ENDBRANCH  27  30
BRANCH  28  32
HETATM   32  O   UNL     1       1.372  27.955  48.770  1.00  0.00    -0.349 OA
BRANCH  32  33
HETATM   33  C   UNL     1       1.071  28.716  47.597  1.00  0.00     0.171 C 
HETATM   34  C   UNL     1       0.363  27.806  46.609  1.00  0.00     0.034 C 
ENDBRANCH  32  33
ENDBRANCH  28  32
ENDBRANCH   1  24
BRANCH   5  35
HETATM   35  O   UNL     1       3.220  32.518  53.387  1.00  0.00    -0.355 OA
HETATM   36  H   UNL     1       3.303  33.452  53.123  1.00  0.00     0.218 HD
ENDBRANCH   5  35
BRANCH   2  37
HETATM   37  C   UNL     1       6.027  31.394  49.424  1.00  0.00     0.155 C 
BRANCH  37  38
HETATM   38  C   UNL     1       5.323  31.902  48.146  1.00  0.00     0.254 C 
BRANCH  38  39
HETATM   39  N   UNL     1       5.364  33.407  47.994  1.00  0.00    -0.077 N 
HETATM   40  H   UNL     1       4.826  33.774  48.806  1.00  0.00     0.279 HD
HETATM   41  C   UNL     1       6.737  34.000  48.011  1.00  0.00     0.269 C 
HETATM   42  C   UNL     1       4.577  33.866  46.797  1.00  0.00     0.269 C 
ENDBRANCH  38  39
ENDBRANCH  37  38
ENDBRANCH   2  37
TORSDOF 13
ENDMDL
MODEL 10
REMARK VINA RESULT:      -7.7      2.386      4.974
REMARK  13 active torsions:
REMARK  status: ('A' for Active; 'I' for Inactive)
REMARK    1  A    between atoms: C_2  and  O_3 
REMARK    2  A    between atoms: O_3  and  C_4 
REMARK    3  A    between atoms: C_5  and  O_6 
REMARK    4  A    between atoms: C_9  and  C_10 
REMARK    5  A    between atoms: N_11  and  C_12 
REMARK    6  A    between atoms: C_12  and  C_13 
REMARK    7  A    between atoms: C_13  and  N_14 
REMARK    8  A    between atoms: C_20  and  O_21 
REMARK    9  A    between atoms: C_22  and  C_23 
REMARK   10  A    between atoms: C_23  and  C_24 
REMARK   11  A    between atoms: C_28  and  O_29 
REMARK   12  A    between atoms: O_29  and  C_30 
REMARK   13  A    between atoms: C_30  and  C_31 
ROOT
HETATM    1  C   UNL     1       4.777  30.696  54.734  1.00  0.00     0.161 A 
HETATM    2  N   UNL     1       3.730  31.541  55.320  1.00  0.00    -0.332 N 
HETATM    3  C   UNL     1       3.615  31.309  56.670  1.00  0.00     0.278 A 
HETATM    4  O   UNL     1       2.946  31.939  57.471  1.00  0.00    -0.265 OA
HETATM    5  C   UNL     1       4.509  30.188  57.017  1.00  0.00     0.146 A 
HETATM    6  C   UNL     1       5.188  29.863  55.910  1.00  0.00     0.059 A 
ENDROOT
BRANCH   6   7
HETATM    7  C   UNL     1       6.394  28.999  55.970  1.00  0.00     0.194 C 
HETATM    8  O   UNL     1       7.395  29.334  56.593  1.00  0.00    -0.287 OA
BRANCH   7   9
HETATM    9  C   UNL     1       6.436  27.769  55.155  1.00  0.00     0.021 A 
HETATM   10  C   UNL     1       5.826  26.585  55.604  1.00  0.00    -0.045 A 
HETATM   11  C   UNL     1       5.023  26.524  56.874  1.00  0.00     0.049 C 
HETATM   12  C   UNL     1       5.926  25.438  54.802  1.00  0.00     0.044 A 
HETATM   13  C   UNL     1       6.627  25.456  53.593  1.00  0.00     0.069 A 
HETATM   14  C   UNL     1       7.170  26.651  53.129  1.00  0.00     0.038 A 
HETATM   15  C   UNL     1       7.057  27.811  53.901  1.00  0.00     0.019 A 
BRANCH  13  16
HETATM   16  O   UNL     1       6.672  24.260  52.937  1.00  0.00    -0.347 OA
BRANCH  16  17
HETATM   17  C   UNL     1       7.973  23.746  52.651  1.00  0.00     0.214 C 
BRANCH  17  18
HETATM   18  C   UNL     1       8.215  22.576  53.571  1.00  0.00    -0.034 A 
HETATM   19  C   UNL     1       8.558  22.784  54.915  1.00  0.00     0.009 A 
HETATM   20  C   UNL     1       8.808  21.699  55.758  1.00  0.00     0.001 A 
HETATM   21  C   UNL     1       8.726  20.399  55.265  1.00  0.00     0.000 A 
HETATM   22  C   UNL     1       8.398  20.180  53.929  1.00  0.00     0.001 A 
HETATM   23  C   UNL     1       8.147  21.262  53.083  1.00  0.00     0.009 A 
ENDBRANCH  17  18
ENDBRANCH  16  17
ENDBRANCH  13  16
ENDBRANCH   7   9
ENDBRANCH   6   7
BRANCH   1  24
HETATM   24  C   UNL     1       4.246  29.985  53.506  1.00  0.00    -0.028 A 
HETATM   25  C   UNL     1       3.465  28.818  53.605  1.00  0.00     0.012 A 
HETATM   26  C   UNL     1       2.932  28.227  52.460  1.00  0.00     0.040 A 
HETATM   27  C   UNL     1       3.143  28.821  51.223  1.00  0.00     0.099 A 
HETATM   28  C   UNL     1       3.878  30.002  51.096  1.00  0.00     0.102 A 
HETATM   29  C   UNL     1       4.453  30.563  52.236  1.00  0.00     0.049 A 
BRANCH  27  30
HETATM   30  O   UNL     1       2.586  28.232  50.124  1.00  0.00    -0.358 OA
HETATM   31  H   UNL     1       2.082  28.936  49.670  1.00  0.00     0.218 HD
ENDBRANCH  27  30
BRANCH  28  32
HETATM   32  O   UNL     1       3.959  30.511  49.827  1.00  0.00    -0.349 OA
BRANCH  32  33
HETATM   33  C   UNL     1       5.164  30.232  49.109  1.00  0.00     0.171 C 
HETATM   34  C   UNL     1       4.788  29.635  47.765  1.00  0.00     0.034 C 
ENDBRANCH  32  33
ENDBRANCH  28  32
ENDBRANCH   1  24
BRANCH   5  35
HETATM   35  O   UNL     1       4.644  29.709  58.285  1.00  0.00    -0.355 OA
HETATM   36  H   UNL     1       4.109  30.267  58.878  1.00  0.00     0.218 HD
ENDBRANCH   5  35
BRANCH   2  37
HETATM   37  C   UNL     1       3.013  32.548  54.526  1.00  0.00     0.155 C 
BRANCH  37  38
HETATM   38  C   UNL     1       3.748  33.870  54.208  1.00  0.00     0.254 C 
BRANCH  38  39
HETATM   39  N   UNL     1       2.954  35.104  54.582  1.00  0.00    -0.077 N 
HETATM   40  H   UNL     1       2.126  35.091  53.952  1.00  0.00     0.279 HD
HETATM   41  C   UNL     1       2.486  35.140  56.002  1.00  0.00     0.269 C 
HETATM   42  C   UNL     1       3.680  36.366  54.205  1.00  0.00     0.269 C 
ENDBRANCH  38  39
ENDBRANCH  37  38
ENDBRANCH   2  37
TORSDOF 13
ENDMDL
