MODEL 1
REMARK VINA RESULT:      -9.9      0.000      0.000
REMARK  5 active torsions:
REMARK  status: ('A' for Active; 'I' for Inactive)
REMARK    1  A    between atoms: C_5  and  C_6 
REMARK    2  A    between atoms: C_11  and  C_12 
REMARK    3  A    between atoms: C_12  and  N_13 
REMARK    4  A    between atoms: N_13  and  C_15 
REMARK    5  A    between atoms: N_18  and  C_19 
ROOT
HETATM    1  N   UNL     1       6.390  29.511  56.990  1.00  0.00    -0.067 N 
HETATM    2  H   UNL     1       6.884  30.144  56.346  1.00  0.00     0.280 HD
HETATM    3  C   UNL     1       5.415  30.385  57.720  1.00  0.00     0.270 C 
ENDROOT
BRANCH   1   4
HETATM    4  C   UNL     1       7.519  29.029  57.912  1.00  0.00     0.277 C 
BRANCH   4   5
HETATM    5  C   UNL     1       8.795  29.759  57.678  1.00  0.00     0.016 A 
HETATM    6  C   UNL     1       9.422  30.710  58.544  1.00  0.00     0.096 A 
HETATM    7  N   UNL     1      10.584  31.128  58.034  1.00  0.00    -0.174 NA
HETATM    8  N   UNL     1      10.730  30.463  56.888  1.00  0.00    -0.288 N 
HETATM    9  H   UNL     1      11.579  30.616  56.348  1.00  0.00     0.188 HD
HETATM   10  C   UNL     1       9.676  29.636  56.617  1.00  0.00     0.120 A 
BRANCH   6  11
HETATM   11  C   UNL     1       8.971  31.207  59.839  1.00  0.00    -0.005 A 
HETATM   12  C   UNL     1       8.131  32.322  59.930  1.00  0.00     0.014 A 
HETATM   13  C   UNL     1       7.723  32.793  61.182  1.00  0.00     0.007 A 
HETATM   14  C   UNL     1       8.165  32.168  62.355  1.00  0.00    -0.062 A 
HETATM   15  C   UNL     1       7.735  32.672  63.702  1.00  0.00     0.048 C 
HETATM   16  C   UNL     1       8.999  31.048  62.259  1.00  0.00     0.007 A 
HETATM   17  C   UNL     1       9.406  30.576  61.010  1.00  0.00     0.014 A 
ENDBRANCH   6  11
ENDBRANCH   4   5
ENDBRANCH   1   4
BRANCH   1  18
HETATM   18  C   UNL     1       5.802  28.391  56.123  1.00  0.00     0.190 C 
HETATM   19  C   UNL     1       6.683  28.021  54.921  1.00  0.00     0.048 C 
HETATM   20  C   UNL     1       7.562  26.792  55.126  1.00  0.00     0.099 C 
HETATM   21  N   UNL     1       6.745  25.721  55.702  1.00  0.00    -0.268 NA
HETATM   22  C   UNL     1       6.265  26.024  57.053  1.00  0.00     0.099 C 
HETATM   23  C   UNL     1       5.314  27.215  56.981  1.00  0.00     0.048 C 
BRANCH  21  24
HETATM   24  C   UNL     1       7.278  24.431  55.549  1.00  0.00     0.109 A 
HETATM   25  N   UNL     1       7.621  23.713  56.633  1.00  0.00    -0.224 NA
HETATM   26  C   UNL     1       8.058  22.442  56.445  1.00  0.00     0.102 A 
HETATM   27  C   UNL     1       8.420  21.623  57.643  1.00  0.00     0.091 C 
HETATM   28  N   UNL     1       8.157  21.869  55.238  1.00  0.00    -0.348 N 
HETATM   29  H   UNL     1       8.477  20.904  55.169  1.00  0.00     0.167 HD
HETATM   30  C   UNL     1       7.821  22.559  54.137  1.00  0.00     0.009 A 
HETATM   31  C   UNL     1       7.913  21.892  52.803  1.00  0.00     0.068 C 
HETATM   32  C   UNL     1       7.370  23.873  54.278  1.00  0.00     0.069 A 
ENDBRANCH  21  24
ENDBRANCH   1  18
TORSDOF 5
ENDMDL
MODEL 2
REMARK VINA RESULT:      -9.7      2.074      8.904
REMARK  5 active torsions:
REMARK  status: ('A' for Active; 'I' for Inactive)
REMARK    1  A    between atoms: C_5  and  C_6 
REMARK    2  A    between atoms: C_11  and  C_12 
REMARK    3  A    between atoms: C_12  and  N_13 
REMARK    4  A    between atoms: N_13  and  C_15 
REMARK    5  A    between atoms: N_18  and  C_19 
ROOT
HETATM    1  N   UNL     1       5.883  25.695  55.812  1.00  0.00    -0.067 N 
HETATM    2  H   UNL     1       6.632  24.998  55.927  1.00  0.00     0.280 HD
HETATM    3  C   UNL     1       5.041  25.566  57.046  1.00  0.00     0.270 C 
ENDROOT
BRANCH   1   4
HETATM    4  C   UNL     1       5.143  25.186  54.567  1.00  0.00     0.277 C 
BRANCH   4   5
HETATM    5  C   UNL     1       5.972  25.281  53.335  1.00  0.00     0.016 A 
HETATM    6  C   UNL     1       7.093  24.465  52.979  1.00  0.00     0.096 A 
HETATM    7  N   UNL     1       7.566  24.801  51.775  1.00  0.00    -0.174 NA
HETATM    8  N   UNL     1       6.775  25.783  51.343  1.00  0.00    -0.288 N 
HETATM    9  H   UNL     1       6.949  26.168  50.417  1.00  0.00     0.188 HD
HETATM   10  C   UNL     1       5.808  26.122  52.248  1.00  0.00     0.120 A 
BRANCH   6  11
HETATM   11  C   UNL     1       7.704  23.371  53.724  1.00  0.00    -0.005 A 
HETATM   12  C   UNL     1       7.616  22.051  53.269  1.00  0.00     0.014 A 
HETATM   13  C   UNL     1       8.195  21.013  54.008  1.00  0.00     0.007 A 
HETATM   14  C   UNL     1       8.850  21.281  55.216  1.00  0.00    -0.062 A 
HETATM   15  C   UNL     1       9.469  20.172  56.016  1.00  0.00     0.048 C 
HETATM   16  C   UNL     1       8.942  22.604  55.663  1.00  0.00     0.007 A 
HETATM   17  C   UNL     1       8.366  23.641  54.927  1.00  0.00     0.014 A 
ENDBRANCH   6  11
ENDBRANCH   4   5
ENDBRANCH   1   4
BRANCH   1  18
HETATM   18  C   UNL     1       6.582  27.042  55.588  1.00  0.00     0.190 C 
HETATM   19  C   UNL     1       5.624  28.241  55.616  1.00  0.00     0.048 C 
HETATM   20  C   UNL     1       5.578  28.993  56.943  1.00  0.00     0.099 C 
HETATM   21  N   UNL     1       6.950  29.231  57.395  1.00  0.00    -0.268 NA
HETATM   22  C   UNL     1       7.671  27.999  57.728  1.00  0.00     0.099 C 
HETATM   23  C   UNL     1       7.841  27.170  56.458  1.00  0.00     0.048 C 
BRANCH  21  24
HETATM   24  C   UNL     1       7.084  30.258  58.344  1.00  0.00     0.109 A 
HETATM   25  N   UNL     1       6.140  31.210  58.441  1.00  0.00    -0.224 NA
HETATM   26  C   UNL     1       6.268  32.138  59.423  1.00  0.00     0.102 A 
HETATM   27  C   UNL     1       5.212  33.190  59.559  1.00  0.00     0.091 C 
HETATM   28  N   UNL     1       7.282  32.147  60.299  1.00  0.00    -0.348 N 
HETATM   29  H   UNL     1       7.308  32.864  61.023  1.00  0.00     0.167 HD
HETATM   30  C   UNL     1       8.239  31.210  60.228  1.00  0.00     0.009 A 
HETATM   31  C   UNL     1       9.346  31.222  61.233  1.00  0.00     0.068 C 
HETATM   32  C   UNL     1       8.155  30.235  59.232  1.00  0.00     0.069 A 
ENDBRANCH  21  24
ENDBRANCH   1  18
TORSDOF 5
ENDMDL
MODEL 3
REMARK VINA RESULT:      -9.7      4.545      8.798
REMARK  5 active torsions:
REMARK  status: ('A' for Active; 'I' for Inactive)
REMARK    1  A    between atoms: C_5  and  C_6 
REMARK    2  A    between atoms: C_11  and  C_12 
REMARK    3  A    between atoms: C_12  and  N_13 
REMARK    4  A    between atoms: N_13  and  C_15 
REMARK    5  A    between atoms: N_18  and  C_19 
ROOT
HETATM    1  N   UNL     1       5.797  27.236  54.711  1.00  0.00    -0.067 N 
HETATM    2  H   UNL     1       6.463  27.664  55.371  1.00  0.00     0.280 HD
HETATM    3  C   UNL     1       4.526  28.012  54.887  1.00  0.00     0.270 C 
ENDROOT
BRANCH   1   4
HETATM    4  C   UNL     1       5.666  25.806  55.253  1.00  0.00     0.277 C 
BRANCH   4   5
HETATM    5  C   UNL     1       6.647  25.516  56.335  1.00  0.00     0.016 A 
HETATM    6  C   UNL     1       7.575  24.428  56.396  1.00  0.00     0.096 A 
HETATM    7  N   UNL     1       8.336  24.509  57.491  1.00  0.00    -0.174 NA
HETATM    8  N   UNL     1       7.943  25.620  58.116  1.00  0.00    -0.288 N 
HETATM    9  H   UNL     1       8.425  25.885  58.972  1.00  0.00     0.188 HD
HETATM   10  C   UNL     1       6.920  26.258  57.472  1.00  0.00     0.120 A 
BRANCH   6  11
HETATM   11  C   UNL     1       7.777  23.341  55.446  1.00  0.00    -0.005 A 
HETATM   12  C   UNL     1       7.625  22.006  55.834  1.00  0.00     0.014 A 
HETATM   13  C   UNL     1       7.840  20.977  54.911  1.00  0.00     0.007 A 
HETATM   14  C   UNL     1       8.226  21.271  53.597  1.00  0.00    -0.062 A 
HETATM   15  C   UNL     1       8.463  20.171  52.603  1.00  0.00     0.048 C 
HETATM   16  C   UNL     1       8.368  22.608  53.210  1.00  0.00     0.007 A 
HETATM   17  C   UNL     1       8.153  23.636  54.130  1.00  0.00     0.014 A 
ENDBRANCH   6  11
ENDBRANCH   4   5
ENDBRANCH   1   4
BRANCH   1  18
HETATM   18  C   UNL     1       6.462  27.299  53.331  1.00  0.00     0.190 C 
HETATM   19  C   UNL     1       6.277  26.018  52.504  1.00  0.00     0.048 C 
HETATM   20  C   UNL     1       5.154  26.079  51.472  1.00  0.00     0.099 C 
HETATM   21  N   UNL     1       5.267  27.336  50.729  1.00  0.00    -0.268 NA
HETATM   22  C   UNL     1       5.030  28.521  51.559  1.00  0.00     0.099 C 
HETATM   23  C   UNL     1       6.132  28.614  52.610  1.00  0.00     0.048 C 
BRANCH  21  24
HETATM   24  C   UNL     1       4.600  27.347  49.493  1.00  0.00     0.109 A 
HETATM   25  N   UNL     1       4.137  26.200  48.969  1.00  0.00    -0.224 NA
HETATM   26  C   UNL     1       3.429  26.266  47.813  1.00  0.00     0.102 A 
HETATM   27  C   UNL     1       2.885  24.999  47.230  1.00  0.00     0.091 C 
HETATM   28  N   UNL     1       3.166  27.415  47.176  1.00  0.00    -0.348 N 
HETATM   29  H   UNL     1       2.614  27.395  46.320  1.00  0.00     0.167 HD
HETATM   30  C   UNL     1       3.614  28.577  47.675  1.00  0.00     0.009 A 
HETATM   31  C   UNL     1       3.286  29.849  46.962  1.00  0.00     0.068 C 
HETATM   32  C   UNL     1       4.352  28.561  48.860  1.00  0.00     0.069 A 
ENDBRANCH  21  24
ENDBRANCH   1  18
TORSDOF 5
ENDMDL
MODEL 4
REMARK VINA RESULT:      -9.7      0.514      1.553
REMARK  5 active torsions:
REMARK  status: ('A' for Active; 'I' for Inactive)
REMARK    1  A    between atoms: C_5  and  C_6 
REMARK    2  A    between atoms: C_11  and  C_12 
REMARK    3  A    between atoms: C_12  and  N_13 
REMARK    4  A    between atoms: N_13  and  C_15 
REMARK    5  A    between atoms: N_18  and  C_19 
ROOT
HETATM    1  N   UNL     1       6.474  29.526  56.992  1.00  0.00    -0.067 N 
HETATM    2  H   UNL     1       6.961  30.194  56.378  1.00  0.00     0.280 HD
HETATM    3  C   UNL     1       5.526  30.362  57.798  1.00  0.00     0.270 C 
ENDROOT
BRANCH   1   4
HETATM    4  C   UNL     1       7.617  28.975  57.856  1.00  0.00     0.277 C 
BRANCH   4   5
HETATM    5  C   UNL     1       8.893  29.713  57.647  1.00  0.00     0.016 A 
HETATM    6  C   UNL     1       9.493  30.672  58.523  1.00  0.00     0.096 A 
HETATM    7  N   UNL     1      10.664  31.096  58.039  1.00  0.00    -0.174 NA
HETATM    8  N   UNL     1      10.841  30.427  56.900  1.00  0.00    -0.288 N 
HETATM    9  H   UNL     1      11.701  30.584  56.379  1.00  0.00     0.188 HD
HETATM   10  C   UNL     1       9.800  29.590  56.608  1.00  0.00     0.120 A 
BRANCH   6  11
HETATM   11  C   UNL     1       9.009  31.173  59.804  1.00  0.00    -0.005 A 
HETATM   12  C   UNL     1       8.174  32.293  59.871  1.00  0.00     0.014 A 
HETATM   13  C   UNL     1       7.733  32.767  61.111  1.00  0.00     0.007 A 
HETATM   14  C   UNL     1       8.136  32.139  62.296  1.00  0.00    -0.062 A 
HETATM   15  C   UNL     1       7.671  32.646  63.631  1.00  0.00     0.048 C 
HETATM   16  C   UNL     1       8.965  31.014  62.224  1.00  0.00     0.007 A 
HETATM   17  C   UNL     1       9.405  30.539  60.987  1.00  0.00     0.014 A 
ENDBRANCH   6  11
ENDBRANCH   4   5
ENDBRANCH   1   4
BRANCH   1  18
HETATM   18  C   UNL     1       5.853  28.469  56.070  1.00  0.00     0.190 C 
HETATM   19  C   UNL     1       6.767  28.061  54.906  1.00  0.00     0.048 C 
HETATM   20  C   UNL     1       7.544  26.767  55.125  1.00  0.00     0.099 C 
HETATM   21  N   UNL     1       6.623  25.747  55.633  1.00  0.00    -0.268 NA
HETATM   22  C   UNL     1       6.096  26.057  56.966  1.00  0.00     0.099 C 
HETATM   23  C   UNL     1       5.238  27.315  56.874  1.00  0.00     0.048 C 
BRANCH  21  24
HETATM   24  C   UNL     1       7.070  24.425  55.477  1.00  0.00     0.109 A 
HETATM   25  N   UNL     1       7.188  23.896  54.246  1.00  0.00    -0.224 NA
HETATM   26  C   UNL     1       7.698  22.644  54.136  1.00  0.00     0.102 A 
HETATM   27  C   UNL     1       7.859  22.051  52.771  1.00  0.00     0.091 C 
HETATM   28  N   UNL     1       8.093  21.915  55.189  1.00  0.00    -0.348 N 
HETATM   29  H   UNL     1       8.483  20.986  55.034  1.00  0.00     0.167 HD
HETATM   30  C   UNL     1       7.988  22.415  56.429  1.00  0.00     0.009 A 
HETATM   31  C   UNL     1       8.460  21.595  57.587  1.00  0.00     0.068 C 
HETATM   32  C   UNL     1       7.465  23.698  56.596  1.00  0.00     0.069 A 
ENDBRANCH  21  24
ENDBRANCH   1  18
TORSDOF 5
ENDMDL
MODEL 5
REMARK VINA RESULT:      -9.6      2.173      9.372
REMARK  5 active torsions:
REMARK  status: ('A' for Active; 'I' for Inactive)
REMARK    1  A    between atoms: C_5  and  C_6 
REMARK    2  A    between atoms: C_11  and  C_12 
REMARK    3  A    between atoms: C_12  and  N_13 
REMARK    4  A    between atoms: N_13  and  C_15 
REMARK    5  A    between atoms: N_18  and  C_19 
ROOT
HETATM    1  N   UNL     1       7.467  27.616  55.925  1.00  0.00    -0.067 N 
HETATM    2  H   UNL     1       8.289  27.207  56.393  1.00  0.00     0.280 HD
HETATM    3  C   UNL     1       6.285  27.015  56.623  1.00  0.00     0.270 C 
ENDROOT
BRANCH   1   4
HETATM    4  C   UNL     1       7.606  27.087  54.490  1.00  0.00     0.277 C 
BRANCH   4   5
HETATM    5  C   UNL     1       6.317  26.582  53.944  1.00  0.00     0.016 A 
HETATM    6  C   UNL     1       5.940  25.217  53.732  1.00  0.00     0.096 A 
HETATM    7  N   UNL     1       4.688  25.132  53.274  1.00  0.00    -0.174 NA
HETATM    8  N   UNL     1       4.247  26.389  53.207  1.00  0.00    -0.288 N 
HETATM    9  H   UNL     1       3.288  26.546  52.905  1.00  0.00     0.188 HD
HETATM   10  C   UNL     1       5.191  27.303  53.585  1.00  0.00     0.120 A 
BRANCH   6  11
HETATM   11  C   UNL     1       6.713  24.005  53.975  1.00  0.00    -0.005 A 
HETATM   12  C   UNL     1       7.267  23.279  52.915  1.00  0.00     0.014 A 
HETATM   13  C   UNL     1       7.991  22.109  53.168  1.00  0.00     0.007 A 
HETATM   14  C   UNL     1       8.153  21.644  54.478  1.00  0.00    -0.062 A 
HETATM   15  C   UNL     1       8.925  20.386  54.756  1.00  0.00     0.048 C 
HETATM   16  C   UNL     1       7.605  22.377  55.536  1.00  0.00     0.007 A 
HETATM   17  C   UNL     1       6.882  23.545  55.286  1.00  0.00     0.014 A 
ENDBRANCH   6  11
ENDBRANCH   4   5
ENDBRANCH   1   4
BRANCH   1  18
HETATM   18  C   UNL     1       7.631  29.138  56.024  1.00  0.00     0.190 C 
HETATM   19  C   UNL     1       6.301  29.886  56.190  1.00  0.00     0.048 C 
HETATM   20  C   UNL     1       5.961  30.278  57.625  1.00  0.00     0.099 C 
HETATM   21  N   UNL     1       7.144  30.886  58.238  1.00  0.00    -0.268 NA
HETATM   22  C   UNL     1       8.259  29.947  58.397  1.00  0.00     0.099 C 
HETATM   23  C   UNL     1       8.741  29.518  57.014  1.00  0.00     0.048 C 
BRANCH  21  24
HETATM   24  C   UNL     1       6.878  31.671  59.372  1.00  0.00     0.109 A 
HETATM   25  N   UNL     1       5.777  32.441  59.412  1.00  0.00    -0.224 NA
HETATM   26  C   UNL     1       5.516  33.122  60.556  1.00  0.00     0.102 A 
HETATM   27  C   UNL     1       4.281  33.965  60.625  1.00  0.00     0.091 C 
HETATM   28  N   UNL     1       6.296  33.059  61.644  1.00  0.00    -0.348 N 
HETATM   29  H   UNL     1       6.032  33.584  62.477  1.00  0.00     0.167 HD
HETATM   30  C   UNL     1       7.401  32.298  61.635  1.00  0.00     0.009 A 
HETATM   31  C   UNL     1       8.241  32.221  62.869  1.00  0.00     0.068 C 
HETATM   32  C   UNL     1       7.715  31.582  60.479  1.00  0.00     0.069 A 
ENDBRANCH  21  24
ENDBRANCH   1  18
TORSDOF 5
ENDMDL
MODEL 6
REMARK VINA RESULT:      -9.5      2.830      8.584
REMARK  5 active torsions:
REMARK  status: ('A' for Active; 'I' for Inactive)
REMARK    1  A    between atoms: C_5  and  C_6 
REMARK    2  A    between atoms: C_11  and  C_12 
REMARK    3  A    between atoms: C_12  and  N_13 
REMARK    4  A    between atoms: N_13  and  C_15 
REMARK    5  A    between atoms: N_18  and  C_19 
ROOT
HETATM    1  N   UNL     1       4.102  28.870  53.660  1.00  0.00    -0.067 N 
HETATM    2  H   UNL     1       3.421  28.155  53.368  1.00  0.00     0.280 HD
HETATM    3  C   UNL     1       3.445  30.180  53.347  1.00  0.00     0.270 C 
ENDROOT
BRANCH   1   4
HETATM    4  C   UNL     1       5.290  28.596  52.726  1.00  0.00     0.277 C 
BRANCH   4   5
HETATM    5  C   UNL     1       4.914  27.748  51.562  1.00  0.00     0.016 A 
HETATM    6  C   UNL     1       5.246  26.372  51.348  1.00  0.00     0.096 A 
HETATM    7  N   UNL     1       4.699  25.918  50.217  1.00  0.00    -0.174 NA
HETATM    8  N   UNL     1       4.014  26.946  49.716  1.00  0.00    -0.288 N 
HETATM    9  H   UNL     1       3.489  26.799  48.856  1.00  0.00     0.188 HD
HETATM   10  C   UNL     1       4.120  28.077  50.476  1.00  0.00     0.120 A 
BRANCH   6  11
HETATM   11  C   UNL     1       6.035  25.479  52.188  1.00  0.00    -0.005 A 
HETATM   12  C   UNL     1       5.496  24.922  53.353  1.00  0.00     0.014 A 
HETATM   13  C   UNL     1       6.274  24.081  54.155  1.00  0.00     0.007 A 
HETATM   14  C   UNL     1       7.602  23.801  53.811  1.00  0.00    -0.062 A 
HETATM   15  C   UNL     1       8.445  22.903  54.669  1.00  0.00     0.048 C 
HETATM   16  C   UNL     1       8.135  24.353  52.640  1.00  0.00     0.007 A 
HETATM   17  C   UNL     1       7.360  25.193  51.839  1.00  0.00     0.014 A 
ENDBRANCH   6  11
ENDBRANCH   4   5
ENDBRANCH   1   4
BRANCH   1  18
HETATM   18  C   UNL     1       4.417  28.586  55.133  1.00  0.00     0.190 C 
HETATM   19  C   UNL     1       5.686  27.746  55.337  1.00  0.00     0.048 C 
HETATM   20  C   UNL     1       6.936  28.548  55.687  1.00  0.00     0.099 C 
HETATM   21  N   UNL     1       6.599  29.505  56.744  1.00  0.00    -0.268 NA
HETATM   22  C   UNL     1       5.646  30.532  56.311  1.00  0.00     0.099 C 
HETATM   23  C   UNL     1       4.315  29.861  55.983  1.00  0.00     0.048 C 
BRANCH  21  24
HETATM   24  C   UNL     1       7.701  29.998  57.461  1.00  0.00     0.109 A 
HETATM   25  N   UNL     1       8.949  29.680  57.076  1.00  0.00    -0.224 NA
HETATM   26  C   UNL     1       9.986  30.242  57.747  1.00  0.00     0.102 A 
HETATM   27  C   UNL     1      11.382  29.917  57.315  1.00  0.00     0.091 C 
HETATM   28  N   UNL     1       9.826  31.099  58.765  1.00  0.00    -0.348 N 
HETATM   29  H   UNL     1      10.649  31.497  59.215  1.00  0.00     0.167 HD
HETATM   30  C   UNL     1       8.593  31.436  59.171  1.00  0.00     0.009 A 
HETATM   31  C   UNL     1       8.438  32.415  60.291  1.00  0.00     0.068 C 
HETATM   32  C   UNL     1       7.493  30.881  58.516  1.00  0.00     0.069 A 
ENDBRANCH  21  24
ENDBRANCH   1  18
TORSDOF 5
ENDMDL
MODEL 7
REMARK VINA RESULT:      -9.4      2.831      8.413
REMARK  5 active torsions:
REMARK  status: ('A' for Active; 'I' for Inactive)
REMARK    1  A    between atoms: C_5  and  C_6 
REMARK    2  A    between atoms: C_11  and  C_12 
REMARK    3  A    between atoms: C_12  and  N_13 
REMARK    4  A    between atoms: N_13  and  C_15 
REMARK    5  A    between atoms: N_18  and  C_19 
ROOT
HETATM    1  N   UNL     1       3.959  28.811  53.665  1.00  0.00    -0.067 N 
HETATM    2  H   UNL     1       3.291  28.086  53.368  1.00  0.00     0.280 HD
HETATM    3  C   UNL     1       3.321  30.109  53.271  1.00  0.00     0.270 C 
ENDROOT
BRANCH   1   4
HETATM    4  C   UNL     1       5.190  28.501  52.801  1.00  0.00     0.277 C 
BRANCH   4   5
HETATM    5  C   UNL     1       4.857  27.664  51.617  1.00  0.00     0.016 A 
HETATM    6  C   UNL     1       5.262  26.313  51.368  1.00  0.00     0.096 A 
HETATM    7  N   UNL     1       4.737  25.859  50.227  1.00  0.00    -0.174 NA
HETATM    8  N   UNL     1       3.996  26.861  49.752  1.00  0.00    -0.288 N 
HETATM    9  H   UNL     1       3.478  26.708  48.890  1.00  0.00     0.188 HD
HETATM   10  C   UNL     1       4.044  27.977  50.541  1.00  0.00     0.120 A 
BRANCH   6  11
HETATM   11  C   UNL     1       6.099  25.442  52.185  1.00  0.00    -0.005 A 
HETATM   12  C   UNL     1       7.417  25.155  51.814  1.00  0.00     0.014 A 
HETATM   13  C   UNL     1       8.198  24.303  52.602  1.00  0.00     0.007 A 
HETATM   14  C   UNL     1       7.666  23.717  53.757  1.00  0.00    -0.062 A 
HETATM   15  C   UNL     1       8.497  22.798  54.605  1.00  0.00     0.048 C 
HETATM   16  C   UNL     1       6.350  24.014  54.128  1.00  0.00     0.007 A 
HETATM   17  C   UNL     1       5.569  24.863  53.343  1.00  0.00     0.014 A 
ENDBRANCH   6  11
ENDBRANCH   4   5
ENDBRANCH   1   4
BRANCH   1  18
HETATM   18  C   UNL     1       4.201  28.584  55.162  1.00  0.00     0.190 C 
HETATM   19  C   UNL     1       5.375  27.639  55.455  1.00  0.00     0.048 C 
HETATM   20  C   UNL     1       6.686  28.336  55.805  1.00  0.00     0.099 C 
HETATM   21  N   UNL     1       6.413  29.380  56.796  1.00  0.00    -0.268 NA
HETATM   22  C   UNL     1       5.579  30.467  56.274  1.00  0.00     0.099 C 
HETATM   23  C   UNL     1       4.199  29.909  55.937  1.00  0.00     0.048 C 
BRANCH  21  24
HETATM   24  C   UNL     1       7.537  29.806  57.523  1.00  0.00     0.109 A 
HETATM   25  N   UNL     1       7.386  30.305  58.762  1.00  0.00    -0.224 NA
HETATM   26  C   UNL     1       8.503  30.631  59.459  1.00  0.00     0.102 A 
HETATM   27  C   UNL     1       8.352  31.165  60.849  1.00  0.00     0.091 C 
HETATM   28  N   UNL     1       9.743  30.473  58.977  1.00  0.00    -0.348 N 
HETATM   29  H   UNL     1      10.540  30.723  59.561  1.00  0.00     0.167 HD
HETATM   30  C   UNL     1       9.927  29.977  57.744  1.00  0.00     0.009 A 
HETATM   31  C   UNL     1      11.319  29.784  57.237  1.00  0.00     0.068 C 
HETATM   32  C   UNL     1       8.808  29.631  56.985  1.00  0.00     0.069 A 
ENDBRANCH  21  24
ENDBRANCH   1  18
TORSDOF 5
ENDMDL
MODEL 8
REMARK VINA RESULT:      -9.2      5.195      8.430
REMARK  5 active torsions:
REMARK  status: ('A' for Active; 'I' for Inactive)
REMARK    1  A    between atoms: C_5  and  C_6 
REMARK    2  A    between atoms: C_11  and  C_12 
REMARK    3  A    between atoms: C_12  and  N_13 
REMARK    4  A    between atoms: N_13  and  C_15 
REMARK    5  A    between atoms: N_18  and  C_19 
ROOT
HETATM    1  N   UNL     1       4.000  27.840  53.917  1.00  0.00    -0.067 N 
HETATM    2  H   UNL     1       3.416  27.029  54.165  1.00  0.00     0.280 HD
HETATM    3  C   UNL     1       4.136  28.621  55.189  1.00  0.00     0.270 C 
ENDROOT
BRANCH   1   4
HETATM    4  C   UNL     1       3.127  28.577  52.891  1.00  0.00     0.277 C 
BRANCH   4   5
HETATM    5  C   UNL     1       3.907  29.542  52.070  1.00  0.00     0.016 A 
HETATM    6  C   UNL     1       4.215  29.443  50.675  1.00  0.00     0.096 A 
HETATM    7  N   UNL     1       4.893  30.516  50.258  1.00  0.00    -0.174 NA
HETATM    8  N   UNL     1       5.007  31.304  51.328  1.00  0.00    -0.288 N 
HETATM    9  H   UNL     1       5.473  32.202  51.216  1.00  0.00     0.188 HD
HETATM   10  C   UNL     1       4.445  30.761  52.449  1.00  0.00     0.120 A 
BRANCH   6  11
HETATM   11  C   UNL     1       3.867  28.387  49.733  1.00  0.00    -0.005 A 
HETATM   12  C   UNL     1       4.837  27.498  49.256  1.00  0.00     0.014 A 
HETATM   13  C   UNL     1       4.485  26.502  48.339  1.00  0.00     0.007 A 
HETATM   14  C   UNL     1       3.168  26.396  47.875  1.00  0.00    -0.062 A 
HETATM   15  C   UNL     1       2.786  25.332  46.887  1.00  0.00     0.048 C 
HETATM   16  C   UNL     1       2.200  27.282  48.361  1.00  0.00     0.007 A 
HETATM   17  C   UNL     1       2.549  28.276  49.276  1.00  0.00     0.014 A 
ENDBRANCH   6  11
ENDBRANCH   4   5
ENDBRANCH   1   4
BRANCH   1  18
HETATM   18  C   UNL     1       5.289  27.271  53.312  1.00  0.00     0.190 C 
HETATM   19  C   UNL     1       6.462  27.228  54.302  1.00  0.00     0.048 C 
HETATM   20  C   UNL     1       6.698  25.870  54.955  1.00  0.00     0.099 C 
HETATM   21  N   UNL     1       6.670  24.838  53.916  1.00  0.00    -0.268 NA
HETATM   22  C   UNL     1       5.354  24.687  53.287  1.00  0.00     0.099 C 
HETATM   23  C   UNL     1       5.018  25.974  52.537  1.00  0.00     0.048 C 
BRANCH  21  24
HETATM   24  C   UNL     1       7.285  23.627  54.276  1.00  0.00     0.109 A 
HETATM   25  N   UNL     1       7.520  23.352  55.570  1.00  0.00    -0.224 NA
HETATM   26  C   UNL     1       8.043  22.139  55.880  1.00  0.00     0.102 A 
HETATM   27  C   UNL     1       8.288  21.809  57.319  1.00  0.00     0.091 C 
HETATM   28  N   UNL     1       8.328  21.205  54.963  1.00  0.00    -0.348 N 
HETATM   29  H   UNL     1       8.704  20.307  55.266  1.00  0.00     0.167 HD
HETATM   30  C   UNL     1       8.104  21.449  53.663  1.00  0.00     0.009 A 
HETATM   31  C   UNL     1       8.403  20.382  52.660  1.00  0.00     0.068 C 
HETATM   32  C   UNL     1       7.571  22.685  53.293  1.00  0.00     0.069 A 
ENDBRANCH  21  24
ENDBRANCH   1  18
TORSDOF 5
ENDMDL
MODEL 9
REMARK VINA RESULT:      -9.0      3.173      4.832
REMARK  5 active torsions:
REMARK  status: ('A' for Active; 'I' for Inactive)
REMARK    1  A    between atoms: C_5  and  C_6 
REMARK    2  A    between atoms: C_11  and  C_12 
REMARK    3  A    between atoms: C_12  and  N_13 
REMARK    4  A    between atoms: N_13  and  C_15 
REMARK    5  A    between atoms: N_18  and  C_19 
ROOT
HETATM    1  N   UNL     1       6.512  29.377  57.022  1.00  0.00    -0.067 N 
HETATM    2  H   UNL     1       7.005  29.981  56.348  1.00  0.00     0.280 HD
HETATM    3  C   UNL     1       5.474  30.261  57.645  1.00  0.00     0.270 C 
ENDROOT
BRANCH   1   4
HETATM    4  C   UNL     1       7.623  29.019  58.020  1.00  0.00     0.277 C 
BRANCH   4   5
HETATM    5  C   UNL     1       8.880  29.774  57.766  1.00  0.00     0.016 A 
HETATM    6  C   UNL     1       9.501  30.738  58.623  1.00  0.00     0.096 A 
HETATM    7  N   UNL     1      10.646  31.179  58.096  1.00  0.00    -0.174 NA
HETATM    8  N   UNL     1      10.789  30.516  56.948  1.00  0.00    -0.288 N 
HETATM    9  H   UNL     1      11.626  30.686  56.395  1.00  0.00     0.188 HD
HETATM   10  C   UNL     1       9.748  29.667  56.692  1.00  0.00     0.120 A 
BRANCH   6  11
HETATM   11  C   UNL     1       9.060  31.227  59.923  1.00  0.00    -0.005 A 
HETATM   12  C   UNL     1       9.436  30.576  61.103  1.00  0.00     0.014 A 
HETATM   13  C   UNL     1       8.988  31.051  62.341  1.00  0.00     0.007 A 
HETATM   14  C   UNL     1       8.146  32.169  62.410  1.00  0.00    -0.062 A 
HETATM   15  C   UNL     1       7.658  32.681  63.735  1.00  0.00     0.048 C 
HETATM   16  C   UNL     1       7.780  32.822  61.228  1.00  0.00     0.007 A 
HETATM   17  C   UNL     1       8.226  32.349  59.993  1.00  0.00     0.014 A 
ENDBRANCH   6  11
ENDBRANCH   4   5
ENDBRANCH   1   4
BRANCH   1  18
HETATM   18  C   UNL     1       6.006  28.169  56.225  1.00  0.00     0.190 C 
HETATM   19  C   UNL     1       4.491  28.187  55.982  1.00  0.00     0.048 C 
HETATM   20  C   UNL     1       4.068  28.704  54.610  1.00  0.00     0.099 C 
HETATM   21  N   UNL     1       4.894  28.055  53.589  1.00  0.00    -0.268 NA
HETATM   22  C   UNL     1       6.311  28.426  53.671  1.00  0.00     0.099 C 
HETATM   23  C   UNL     1       6.879  27.908  54.989  1.00  0.00     0.048 C 
BRANCH  21  24
HETATM   24  C   UNL     1       4.357  28.090  52.292  1.00  0.00     0.109 A 
HETATM   25  N   UNL     1       4.859  27.290  51.335  1.00  0.00    -0.224 NA
HETATM   26  C   UNL     1       4.260  27.298  50.118  1.00  0.00     0.102 A 
HETATM   27  C   UNL     1       4.792  26.395  49.050  1.00  0.00     0.091 C 
HETATM   28  N   UNL     1       3.194  28.056  49.827  1.00  0.00    -0.348 N 
HETATM   29  H   UNL     1       2.783  28.001  48.897  1.00  0.00     0.167 HD
HETATM   30  C   UNL     1       2.670  28.864  50.761  1.00  0.00     0.009 A 
HETATM   31  C   UNL     1       1.464  29.680  50.424  1.00  0.00     0.068 C 
HETATM   32  C   UNL     1       3.254  28.896  52.029  1.00  0.00     0.069 A 
ENDBRANCH  21  24
ENDBRANCH   1  18
TORSDOF 5
ENDMDL
MODEL 10
REMARK VINA RESULT:      -9.0      4.504      9.153
REMARK  5 active torsions:
REMARK  status: ('A' for Active; 'I' for Inactive)
REMARK    1  A    between atoms: C_5  and  C_6 
REMARK    2  A    between atoms: C_11  and  C_12 
REMARK    3  A    between atoms: C_12  and  N_13 
REMARK    4  A    between atoms: N_13  and  C_15 
REMARK    5  A    between atoms: N_18  and  C_19 
ROOT
HETATM    1  N   UNL     1       6.020  26.095  54.410  1.00  0.00    -0.067 N 
HETATM    2  H   UNL     1       6.597  25.338  54.016  1.00  0.00     0.280 HD
HETATM    3  C   UNL     1       6.965  27.243  54.597  1.00  0.00     0.270 C 
ENDROOT
BRANCH   1   4
HETATM    4  C   UNL     1       5.572  25.505  55.755  1.00  0.00     0.277 C 
BRANCH   4   5
HETATM    5  C   UNL     1       6.716  25.251  56.673  1.00  0.00     0.016 A 
HETATM    6  C   UNL     1       7.716  24.234  56.551  1.00  0.00     0.096 A 
HETATM    7  N   UNL     1       8.619  24.333  57.531  1.00  0.00    -0.174 NA
HETATM    8  N   UNL     1       8.245  25.386  58.256  1.00  0.00    -0.288 N 
HETATM    9  H   UNL     1       8.826  25.656  59.047  1.00  0.00     0.188 HD
HETATM   10  C   UNL     1       7.097  25.969  57.794  1.00  0.00     0.120 A 
BRANCH   6  11
HETATM   11  C   UNL     1       7.854  23.202  55.531  1.00  0.00    -0.005 A 
HETATM   12  C   UNL     1       7.714  21.848  55.853  1.00  0.00     0.014 A 
HETATM   13  C   UNL     1       7.867  20.871  54.863  1.00  0.00     0.007 A 
HETATM   14  C   UNL     1       8.178  21.237  53.547  1.00  0.00    -0.062 A 
HETATM   15  C   UNL     1       8.349  20.193  52.481  1.00  0.00     0.048 C 
HETATM   16  C   UNL     1       8.310  22.593  53.228  1.00  0.00     0.007 A 
HETATM   17  C   UNL     1       8.157  23.568  54.215  1.00  0.00     0.014 A 
ENDBRANCH   6  11
ENDBRANCH   4   5
ENDBRANCH   1   4
BRANCH   1  18
HETATM   18  C   UNL     1       4.861  26.304  53.428  1.00  0.00     0.190 C 
HETATM   19  C   UNL     1       4.214  27.693  53.533  1.00  0.00     0.048 C 
HETATM   20  C   UNL     1       4.690  28.701  52.491  1.00  0.00     0.099 C 
HETATM   21  N   UNL     1       4.671  28.059  51.174  1.00  0.00    -0.268 NA
HETATM   22  C   UNL     1       5.637  26.963  51.052  1.00  0.00     0.099 C 
HETATM   23  C   UNL     1       5.237  25.846  52.012  1.00  0.00     0.048 C 
BRANCH  21  24
HETATM   24  C   UNL     1       4.661  28.950  50.089  1.00  0.00     0.109 A 
HETATM   25  N   UNL     1       3.800  28.763  49.073  1.00  0.00    -0.224 NA
HETATM   26  C   UNL     1       3.770  29.691  48.083  1.00  0.00     0.102 A 
HETATM   27  C   UNL     1       2.799  29.509  46.959  1.00  0.00     0.091 C 
HETATM   28  N   UNL     1       4.547  30.782  48.073  1.00  0.00    -0.348 N 
HETATM   29  H   UNL     1       4.461  31.447  47.306  1.00  0.00     0.167 HD
HETATM   30  C   UNL     1       5.416  30.997  49.073  1.00  0.00     0.009 A 
HETATM   31  C   UNL     1       6.254  32.234  49.055  1.00  0.00     0.068 C 
HETATM   32  C   UNL     1       5.489  30.068  50.113  1.00  0.00     0.069 A 
ENDBRANCH  21  24
ENDBRANCH   1  18
TORSDOF 5
ENDMDL
