MODEL 1
REMARK VINA RESULT:      -9.4      0.000      0.000
REMARK  7 active torsions:
REMARK  status: ('A' for Active; 'I' for Inactive)
REMARK    1  A    between atoms: C_6  and  O_7 
REMARK    2  A    between atoms: O_7  and  C_8 
REMARK    3  A    between atoms: C_11  and  C_12 
REMARK       I    between atoms: C_12  and  N_13 
REMARK    4  A    between atoms: N_13  and  C_14 
REMARK    5  A    between atoms: N_22  and  C_23 
REMARK    6  A    between atoms: C_23  and  C_24 
REMARK    7  A    between atoms: C_24  and  O_25 
ROOT
HETATM    1  C           1       6.548  29.440  57.764  0.00  0.00     0.113 A 
HETATM    2  C           1       6.741  30.650  58.340  0.00  0.00     0.102 A 
HETATM    3  C           1       5.321  29.094  57.321  0.00  0.00     0.002 A 
HETATM    4  C           1       5.109  27.762  56.645  0.00  0.00     0.138 C 
HETATM    5  C           1       6.231  26.786  57.026  0.00  0.00     0.161 C 
HETATM    6  C           1       7.534  27.547  56.700  0.00  0.00     0.155 C 
HETATM    7  C           1       8.747  26.645  56.984  0.00  0.00     0.072 C 
HETATM    8  N           1       7.535  28.062  55.312  0.00  0.00    -0.323 N 
HETATM    9  C           1       6.372  28.125  54.557  0.00  0.00     0.172 C 
HETATM   10  S           1       6.325  28.465  53.013  0.00  0.00    -0.041 SA
HETATM   11  N           1       5.170  27.998  55.207  0.00  0.00    -0.357 N 
HETATM   12  O           1       7.635  28.615  57.612  0.00  0.00    -0.316 OA
HETATM   13  C           1       4.281  29.930  57.462  0.00  0.00     0.012 A 
HETATM   14  C           1       4.457  31.122  58.043  0.00  0.00     0.003 A 
HETATM   15  C           1       5.679  31.470  58.471  0.00  0.00     0.040 A 
HETATM   16  H           1       4.302  28.137  54.689  0.00  0.00     0.162 HD
ENDROOT
BRANCH   5  17
HETATM   17  C           1       6.043  25.403  56.386  0.00  0.00     0.233 C 
HETATM   18  N           1       7.185  24.873  55.860  0.00  0.00    -0.326 N 
HETATM   19  H           1       8.030  25.411  55.981  0.00  0.00     0.169 HD
HETATM   20  O           1       4.980  24.836  56.399  0.00  0.00    -0.273 OA
BRANCH  18  21
HETATM   21  C           1       7.465  23.732  55.194  0.00  0.00     0.040 A 
HETATM   22  C           1       7.769  23.853  53.884  0.00  0.00    -0.035 A 
HETATM   23  C           1       7.806  25.202  53.194  0.00  0.00     0.050 C 
HETATM   24  C           1       8.055  22.751  53.165  0.00  0.00     0.015 A 
HETATM   25  C           1       8.045  21.521  53.702  0.00  0.00    -0.061 A 
HETATM   26  C           1       8.373  20.311  52.860  0.00  0.00     0.048 C 
HETATM   27  C           1       7.741  21.412  55.005  0.00  0.00     0.009 A 
HETATM   28  C           1       7.455  22.500  55.734  0.00  0.00     0.030 A 
ENDBRANCH  18  21
ENDBRANCH   5  17
BRANCH   8  29
HETATM   29  C           1       8.792  28.659  54.843  0.00  0.00     0.154 C 
BRANCH  29  30
HETATM   30  C           1       9.356  29.707  55.808  0.00  0.00     0.187 C 
BRANCH  30  31
HETATM   31  O           1      10.675  29.347  56.142  0.00  0.00    -0.394 OA
HETATM   32  C           1      11.124  29.992  57.315  0.00  0.00     0.201 C 
ENDBRANCH  30  31
ENDBRANCH  29  30
ENDBRANCH   8  29
BRANCH   2  33
HETATM   33  O           1       8.018  30.961  58.754  0.00  0.00    -0.349 OA
BRANCH  33  34
HETATM   34  C           1       8.300  31.038  60.126  0.00  0.00     0.171 C 
HETATM   35  C           1       9.468  32.002  60.326  0.00  0.00     0.034 C 
ENDBRANCH  33  34
ENDBRANCH   2  33
TORSDOF 7
ENDMDL
MODEL 2
REMARK VINA RESULT:      -8.8      2.023      2.927
REMARK  7 active torsions:
REMARK  status: ('A' for Active; 'I' for Inactive)
REMARK    1  A    between atoms: C_6  and  O_7 
REMARK    2  A    between atoms: O_7  and  C_8 
REMARK    3  A    between atoms: C_11  and  C_12 
REMARK       I    between atoms: C_12  and  N_13 
REMARK    4  A    between atoms: N_13  and  C_14 
REMARK    5  A    between atoms: N_22  and  C_23 
REMARK    6  A    between atoms: C_23  and  C_24 
REMARK    7  A    between atoms: C_24  and  O_25 
ROOT
HETATM    1  C           1       4.263  29.808  56.184  0.00  0.00     0.113 A 
HETATM    2  C           1       3.821  30.865  56.908  0.00  0.00     0.102 A 
HETATM    3  C           1       4.543  29.962  54.873  0.00  0.00     0.002 A 
HETATM    4  C           1       5.071  28.797  54.072  0.00  0.00     0.138 C 
HETATM    5  C           1       4.724  27.472  54.764  0.00  0.00     0.161 C 
HETATM    6  C           1       5.251  27.638  56.205  0.00  0.00     0.155 C 
HETATM    7  C           1       5.016  26.340  56.996  0.00  0.00     0.072 C 
HETATM    8  N           1       6.672  28.053  56.225  0.00  0.00    -0.323 N 
HETATM    9  C           1       7.305  28.543  55.090  0.00  0.00     0.172 C 
HETATM   10  S           1       8.858  28.809  54.977  0.00  0.00    -0.041 SA
HETATM   11  N           1       6.523  28.931  54.030  0.00  0.00    -0.357 N 
HETATM   12  O           1       4.454  28.614  56.834  0.00  0.00    -0.316 OA
HETATM   13  C           1       4.370  31.147  54.270  0.00  0.00     0.012 A 
HETATM   14  C           1       3.919  32.194  54.971  0.00  0.00     0.003 A 
HETATM   15  C           1       3.654  32.044  56.277  0.00  0.00     0.040 A 
HETATM   16  H           1       6.958  29.383  53.226  0.00  0.00     0.162 HD
ENDROOT
BRANCH   5  17
HETATM   17  C           1       5.214  26.254  53.970  0.00  0.00     0.233 C 
HETATM   18  N           1       6.113  25.476  54.640  0.00  0.00    -0.326 N 
HETATM   19  H           1       6.327  25.749  55.587  0.00  0.00     0.169 HD
HETATM   20  O           1       4.794  26.002  52.868  0.00  0.00    -0.273 OA
BRANCH  18  21
HETATM   21  C           1       6.807  24.363  54.320  0.00  0.00     0.040 A 
HETATM   22  C           1       7.503  23.774  55.317  0.00  0.00    -0.035 A 
HETATM   23  C           1       7.500  24.328  56.728  0.00  0.00     0.050 C 
HETATM   24  C           1       8.217  22.662  55.060  0.00  0.00     0.015 A 
HETATM   25  C           1       8.270  22.109  53.839  0.00  0.00    -0.061 A 
HETATM   26  C           1       9.082  20.860  53.593  0.00  0.00     0.048 C 
HETATM   27  C           1       7.576  22.702  52.855  0.00  0.00     0.009 A 
HETATM   28  C           1       6.859  23.810  53.095  0.00  0.00     0.030 A 
ENDBRANCH  18  21
ENDBRANCH   5  17
BRANCH   8  29
HETATM   29  C           1       7.321  28.080  57.541  0.00  0.00     0.154 C 
BRANCH  29  30
HETATM   30  C           1       7.397  29.487  58.144  0.00  0.00     0.187 C 
BRANCH  30  31
HETATM   31  O           1       8.527  29.558  58.979  0.00  0.00    -0.394 OA
HETATM   32  C           1       9.515  30.429  58.469  0.00  0.00     0.201 C 
ENDBRANCH  30  31
ENDBRANCH  29  30
ENDBRANCH   8  29
BRANCH   2  33
HETATM   33  O           1       3.573  30.659  58.247  0.00  0.00    -0.349 OA
BRANCH  33  34
HETATM   34  C           1       3.588  31.750  59.129  0.00  0.00     0.171 C 
HETATM   35  C           1       5.041  32.097  59.445  0.00  0.00     0.034 C 
ENDBRANCH  33  34
ENDBRANCH   2  33
TORSDOF 7
ENDMDL
MODEL 3
REMARK VINA RESULT:      -8.7      2.264      3.678
REMARK  7 active torsions:
REMARK  status: ('A' for Active; 'I' for Inactive)
REMARK    1  A    between atoms: C_6  and  O_7 
REMARK    2  A    between atoms: O_7  and  C_8 
REMARK    3  A    between atoms: C_11  and  C_12 
REMARK       I    between atoms: C_12  and  N_13 
REMARK    4  A    between atoms: N_13  and  C_14 
REMARK    5  A    between atoms: N_22  and  C_23 
REMARK    6  A    between atoms: C_23  and  C_24 
REMARK    7  A    between atoms: C_24  and  O_25 
ROOT
HETATM    1  C           1       4.707  29.381  54.302  0.00  0.00     0.113 A 
HETATM    2  C           1       3.928  30.444  53.989  0.00  0.00     0.102 A 
HETATM    3  C           1       5.482  28.813  53.355  0.00  0.00     0.002 A 
HETATM    4  C           1       6.378  27.652  53.709  0.00  0.00     0.138 C 
HETATM    5  C           1       5.884  26.967  54.990  0.00  0.00     0.161 C 
HETATM    6  C           1       5.765  28.110  56.020  0.00  0.00     0.155 C 
HETATM    7  C           1       5.331  27.541  57.381  0.00  0.00     0.072 C 
HETATM    8  N           1       7.019  28.891  56.118  0.00  0.00    -0.323 N 
HETATM    9  C           1       8.018  28.791  55.159  0.00  0.00     0.172 C 
HETATM   10  S           1       9.458  29.428  55.298  0.00  0.00    -0.041 SA
HETATM   11  N           1       7.707  28.199  53.960  0.00  0.00    -0.357 N 
HETATM   12  O           1       4.709  28.943  55.604  0.00  0.00    -0.316 OA
HETATM   13  C           1       5.477  29.278  52.097  0.00  0.00     0.012 A 
HETATM   14  C           1       4.701  30.318  51.772  0.00  0.00     0.003 A 
HETATM   15  C           1       3.941  30.890  52.717  0.00  0.00     0.040 A 
HETATM   16  H           1       8.395  28.201  53.207  0.00  0.00     0.162 HD
ENDROOT
BRANCH   5  17
HETATM   17  C           1       6.747  25.758  55.375  0.00  0.00     0.233 C 
HETATM   18  N           1       6.664  24.713  54.501  0.00  0.00    -0.326 N 
HETATM   19  H           1       6.091  24.854  53.683  0.00  0.00     0.169 HD
HETATM   20  O           1       7.462  25.770  56.346  0.00  0.00    -0.273 OA
BRANCH  18  21
HETATM   21  C           1       7.209  23.478  54.467  0.00  0.00     0.040 A 
HETATM   22  C           1       7.769  23.093  53.300  0.00  0.00    -0.035 A 
HETATM   23  C           1       7.794  24.004  52.089  0.00  0.00     0.050 C 
HETATM   24  C           1       8.326  21.872  53.202  0.00  0.00     0.015 A 
HETATM   25  C           1       8.345  21.007  54.229  0.00  0.00    -0.061 A 
HETATM   26  C           1       8.983  19.646  54.077  0.00  0.00     0.048 C 
HETATM   27  C           1       7.786  21.399  55.384  0.00  0.00     0.009 A 
HETATM   28  C           1       7.227  22.612  55.497  0.00  0.00     0.030 A 
ENDBRANCH  18  21
ENDBRANCH   5  17
BRANCH   8  29
HETATM   29  C           1       7.074  29.899  57.185  0.00  0.00     0.154 C 
BRANCH  29  30
HETATM   30  C           1       7.978  29.490  58.352  0.00  0.00     0.187 C 
BRANCH  30  31
HETATM   31  O           1       7.795  30.404  59.405  0.00  0.00    -0.394 OA
HETATM   32  C           1       7.209  31.613  58.969  0.00  0.00     0.201 C 
ENDBRANCH  30  31
ENDBRANCH  29  30
ENDBRANCH   8  29
BRANCH   2  33
HETATM   33  O           1       3.175  31.000  54.999  0.00  0.00    -0.349 OA
BRANCH  33  34
HETATM   34  C           1       3.310  32.366  55.290  0.00  0.00     0.171 C 
HETATM   35  C           1       4.644  32.580  56.000  0.00  0.00     0.034 C 
ENDBRANCH  33  34
ENDBRANCH   2  33
TORSDOF 7
ENDMDL
MODEL 4
REMARK VINA RESULT:      -8.5      6.562      8.654
REMARK  7 active torsions:
REMARK  status: ('A' for Active; 'I' for Inactive)
REMARK    1  A    between atoms: C_6  and  O_7 
REMARK    2  A    between atoms: O_7  and  C_8 
REMARK    3  A    between atoms: C_11  and  C_12 
REMARK       I    between atoms: C_12  and  N_13 
REMARK    4  A    between atoms: N_13  and  C_14 
REMARK    5  A    between atoms: N_22  and  C_23 
REMARK    6  A    between atoms: C_23  and  C_24 
REMARK    7  A    between atoms: C_24  and  O_25 
ROOT
HETATM    1  C           1       5.212  30.802  48.591  0.00  0.00     0.113 A 
HETATM    2  C           1       5.279  31.993  47.949  0.00  0.00     0.102 A 
HETATM    3  C           1       5.205  30.765  49.940  0.00  0.00     0.002 A 
HETATM    4  C           1       5.094  29.442  50.658  0.00  0.00     0.138 C 
HETATM    5  C           1       5.519  28.294  49.733  0.00  0.00     0.161 C 
HETATM    6  C           1       4.665  28.485  48.461  0.00  0.00     0.155 C 
HETATM    7  C           1       4.956  27.349  47.465  0.00  0.00     0.072 C 
HETATM    8  N           1       3.223  28.591  48.780  0.00  0.00    -0.323 N 
HETATM    9  C           1       2.777  28.822  50.075  0.00  0.00     0.172 C 
HETATM   10  S           1       1.265  28.743  50.528  0.00  0.00    -0.041 SA
HETATM   11  N           1       3.688  29.262  51.003  0.00  0.00    -0.357 N 
HETATM   12  O           1       5.107  29.664  47.831  0.00  0.00    -0.316 OA
HETATM   13  C           1       5.285  31.896  50.657  0.00  0.00     0.012 A 
HETATM   14  C           1       5.367  33.077  50.034  0.00  0.00     0.003 A 
HETATM   15  C           1       5.360  33.114  48.694  0.00  0.00     0.040 A 
HETATM   16  H           1       3.366  29.531  51.933  0.00  0.00     0.162 HD
ENDROOT
BRANCH   5  17
HETATM   17  C           1       5.451  26.928  50.429  0.00  0.00     0.233 C 
HETATM   18  N           1       6.396  26.750  51.398  0.00  0.00    -0.326 N 
HETATM   19  H           1       7.002  27.533  51.587  0.00  0.00     0.169 HD
HETATM   20  O           1       4.601  26.118  50.158  0.00  0.00    -0.273 OA
BRANCH  18  21
HETATM   21  C           1       6.714  25.722  52.214  0.00  0.00     0.040 A 
HETATM   22  C           1       6.076  25.670  53.403  0.00  0.00    -0.035 A 
HETATM   23  C           1       5.044  26.707  53.801  0.00  0.00     0.050 C 
HETATM   24  C           1       6.352  24.671  54.261  0.00  0.00     0.015 A 
HETATM   25  C           1       7.251  23.714  53.983  0.00  0.00    -0.061 A 
HETATM   26  C           1       7.530  22.609  54.974  0.00  0.00     0.048 C 
HETATM   27  C           1       7.881  23.774  52.799  0.00  0.00     0.009 A 
HETATM   28  C           1       7.616  24.763  51.934  0.00  0.00     0.030 A 
ENDBRANCH  18  21
ENDBRANCH   5  17
BRANCH   8  29
HETATM   29  C           1       2.305  28.609  47.634  0.00  0.00     0.154 C 
BRANCH  29  30
HETATM   30  C           1       1.793  27.216  47.253  0.00  0.00     0.187 C 
BRANCH  30  31
HETATM   31  O           1       0.393  27.198  47.391  0.00  0.00    -0.394 OA
HETATM   32  C           1      -0.259  27.827  46.309  0.00  0.00     0.201 C 
ENDBRANCH  30  31
ENDBRANCH  29  30
ENDBRANCH   8  29
BRANCH   2  33
HETATM   33  O           1       5.259  31.976  46.572  0.00  0.00    -0.349 OA
BRANCH  33  34
HETATM   34  C           1       5.339  33.185  45.865  0.00  0.00     0.171 C 
HETATM   35  C           1       6.765  33.347  45.343  0.00  0.00     0.034 C 
ENDBRANCH  33  34
ENDBRANCH   2  33
TORSDOF 7
ENDMDL
MODEL 5
REMARK VINA RESULT:      -7.6      8.364     11.292
REMARK  7 active torsions:
REMARK  status: ('A' for Active; 'I' for Inactive)
REMARK    1  A    between atoms: C_6  and  O_7 
REMARK    2  A    between atoms: O_7  and  C_8 
REMARK    3  A    between atoms: C_11  and  C_12 
REMARK       I    between atoms: C_12  and  N_13 
REMARK    4  A    between atoms: N_13  and  C_14 
REMARK    5  A    between atoms: N_22  and  C_23 
REMARK    6  A    between atoms: C_23  and  C_24 
REMARK    7  A    between atoms: C_24  and  O_25 
ROOT
HETATM    1  C           1       4.507  28.052  48.867  0.00  0.00     0.113 A 
HETATM    2  C           1       4.617  26.842  49.467  0.00  0.00     0.102 A 
HETATM    3  C           1       3.702  28.199  47.794  0.00  0.00     0.002 A 
HETATM    4  C           1       3.548  29.553  47.146  0.00  0.00     0.138 C 
HETATM    5  C           1       4.737  30.455  47.504  0.00  0.00     0.161 C 
HETATM    6  C           1       4.806  30.411  49.046  0.00  0.00     0.155 C 
HETATM    7  C           1       5.933  31.333  49.542  0.00  0.00     0.072 C 
HETATM    8  N           1       3.502  30.743  49.662  0.00  0.00    -0.323 N 
HETATM    9  C           1       2.327  30.752  48.923  0.00  0.00     0.172 C 
HETATM   10  S           1       0.940  31.292  49.455  0.00  0.00    -0.041 SA
HETATM   11  N           1       2.334  30.150  47.689  0.00  0.00    -0.357 N 
HETATM   12  O           1       5.195  29.108  49.411  0.00  0.00    -0.316 OA
HETATM   13  C           1       3.023  27.154  47.298  0.00  0.00     0.012 A 
HETATM   14  C           1       3.136  25.951  47.873  0.00  0.00     0.003 A 
HETATM   15  C           1       3.925  25.808  48.948  0.00  0.00     0.040 A 
HETATM   16  H           1       1.460  30.060  47.171  0.00  0.00     0.162 HD
ENDROOT
BRANCH   5  17
HETATM   17  C           1       4.641  31.837  46.842  0.00  0.00     0.233 C 
HETATM   18  N           1       5.730  32.171  46.091  0.00  0.00    -0.326 N 
HETATM   19  H           1       6.454  31.473  46.010  0.00  0.00     0.169 HD
HETATM   20  O           1       3.661  32.529  46.955  0.00  0.00    -0.273 OA
BRANCH  18  21
HETATM   21  C           1       6.075  33.267  45.382  0.00  0.00     0.040 A 
HETATM   22  C           1       6.966  34.105  45.955  0.00  0.00    -0.035 A 
HETATM   23  C           1       7.560  33.825  47.321  0.00  0.00     0.050 C 
HETATM   24  C           1       7.348  35.217  45.299  0.00  0.00     0.015 A 
HETATM   25  C           1       6.870  35.534  44.086  0.00  0.00    -0.061 A 
HETATM   26  C           1       7.325  36.792  43.384  0.00  0.00     0.048 C 
HETATM   27  C           1       5.983  34.696  43.525  0.00  0.00     0.009 A 
HETATM   28  C           1       5.594  33.584  44.166  0.00  0.00     0.030 A 
ENDBRANCH  18  21
ENDBRANCH   5  17
BRANCH   8  29
HETATM   29  C           1       3.495  30.892  51.123  0.00  0.00     0.154 C 
BRANCH  29  30
HETATM   30  C           1       3.117  29.601  51.856  0.00  0.00     0.187 C 
BRANCH  30  31
HETATM   31  O           1       4.238  29.147  52.576  0.00  0.00    -0.394 OA
HETATM   32  C           1       3.882  28.268  53.621  0.00  0.00     0.201 C 
ENDBRANCH  30  31
ENDBRANCH  29  30
ENDBRANCH   8  29
BRANCH   2  33
HETATM   33  O           1       5.433  26.752  50.573  0.00  0.00    -0.349 OA
BRANCH  33  34
HETATM   34  C           1       5.355  25.622  51.400  0.00  0.00     0.171 C 
HETATM   35  C           1       6.744  25.340  51.967  0.00  0.00     0.034 C 
ENDBRANCH  33  34
ENDBRANCH   2  33
TORSDOF 7
ENDMDL
MODEL 6
REMARK VINA RESULT:      -7.5      7.092     10.830
REMARK  7 active torsions:
REMARK  status: ('A' for Active; 'I' for Inactive)
REMARK    1  A    between atoms: C_6  and  O_7 
REMARK    2  A    between atoms: O_7  and  C_8 
REMARK    3  A    between atoms: C_11  and  C_12 
REMARK       I    between atoms: C_12  and  N_13 
REMARK    4  A    between atoms: N_13  and  C_14 
REMARK    5  A    between atoms: N_22  and  C_23 
REMARK    6  A    between atoms: C_23  and  C_24 
REMARK    7  A    between atoms: C_24  and  O_25 
ROOT
HETATM    1  C           1       2.277  27.793  48.736  0.00  0.00     0.113 A 
HETATM    2  C           1       1.786  26.901  47.841  0.00  0.00     0.102 A 
HETATM    3  C           1       3.556  27.691  49.154  0.00  0.00     0.002 A 
HETATM    4  C           1       4.117  28.704  50.122  0.00  0.00     0.138 C 
HETATM    5  C           1       2.981  29.405  50.879  0.00  0.00     0.161 C 
HETATM    6  C           1       2.041  29.928  49.771  0.00  0.00     0.155 C 
HETATM    7  C           1       0.879  30.712  50.403  0.00  0.00     0.072 C 
HETATM    8  N           1       2.774  30.731  48.766  0.00  0.00    -0.323 N 
HETATM    9  C           1       4.160  30.708  48.683  0.00  0.00     0.172 C 
HETATM   10  S           1       5.019  31.684  47.784  0.00  0.00    -0.041 SA
HETATM   11  N           1       4.830  29.700  49.332  0.00  0.00    -0.357 N 
HETATM   12  O           1       1.452  28.807  49.157  0.00  0.00    -0.316 OA
HETATM   13  C           1       4.346  26.703  48.708  0.00  0.00     0.012 A 
HETATM   14  C           1       3.868  25.809  47.836  0.00  0.00     0.003 A 
HETATM   15  C           1       2.601  25.918  47.410  0.00  0.00     0.040 A 
HETATM   16  H           1       5.838  29.606  49.205  0.00  0.00     0.162 HD
ENDROOT
BRANCH   5  17
HETATM   17  C           1       3.503  30.425  51.900  0.00  0.00     0.233 C 
HETATM   18  N           1       3.016  30.248  53.163  0.00  0.00    -0.326 N 
HETATM   19  H           1       2.409  29.455  53.305  0.00  0.00     0.169 HD
HETATM   20  O           1       4.307  31.271  51.600  0.00  0.00    -0.273 OA
BRANCH  18  21
HETATM   21  C           1       3.176  30.913  54.327  0.00  0.00     0.040 A 
HETATM   22  C           1       3.770  30.238  55.335  0.00  0.00    -0.035 A 
HETATM   23  C           1       4.244  28.807  55.167  0.00  0.00     0.050 C 
HETATM   24  C           1       3.955  30.845  56.522  0.00  0.00     0.015 A 
HETATM   25  C           1       3.566  32.109  56.750  0.00  0.00    -0.061 A 
HETATM   26  C           1       3.794  32.754  58.096  0.00  0.00     0.048 C 
HETATM   27  C           1       2.975  32.771  55.742  0.00  0.00     0.009 A 
HETATM   28  C           1       2.784  32.180  54.554  0.00  0.00     0.030 A 
ENDBRANCH  18  21
ENDBRANCH   5  17
BRANCH   8  29
HETATM   29  C           1       1.953  31.415  47.759  0.00  0.00     0.154 C 
BRANCH  29  30
HETATM   30  C           1       1.853  30.640  46.441  0.00  0.00     0.187 C 
BRANCH  30  31
HETATM   31  O           1       0.881  31.256  45.630  0.00  0.00    -0.394 OA
HETATM   32  C           1      -0.212  31.740  46.381  0.00  0.00     0.201 C 
ENDBRANCH  30  31
ENDBRANCH  29  30
ENDBRANCH   8  29
BRANCH   2  33
HETATM   33  O           1       0.482  27.065  47.431  0.00  0.00    -0.349 OA
BRANCH  33  34
HETATM   34  C           1       0.213  27.373  46.088  0.00  0.00     0.171 C 
HETATM   35  C           1      -1.095  28.159  46.025  0.00  0.00     0.034 C 
ENDBRANCH  33  34
ENDBRANCH   2  33
TORSDOF 7
ENDMDL
MODEL 7
REMARK VINA RESULT:      -7.4      6.058      7.508
REMARK  7 active torsions:
REMARK  status: ('A' for Active; 'I' for Inactive)
REMARK    1  A    between atoms: C_6  and  O_7 
REMARK    2  A    between atoms: O_7  and  C_8 
REMARK    3  A    between atoms: C_11  and  C_12 
REMARK       I    between atoms: C_12  and  N_13 
REMARK    4  A    between atoms: N_13  and  C_14 
REMARK    5  A    between atoms: N_22  and  C_23 
REMARK    6  A    between atoms: C_23  and  C_24 
REMARK    7  A    between atoms: C_24  and  O_25 
ROOT
HETATM    1  C           1       4.210  31.439  50.567  0.00  0.00     0.113 A 
HETATM    2  C           1       4.020  32.773  50.432  0.00  0.00     0.102 A 
HETATM    3  C           1       3.512  30.751  51.496  0.00  0.00     0.002 A 
HETATM    4  C           1       3.694  29.259  51.625  0.00  0.00     0.138 C 
HETATM    5  C           1       5.034  28.829  51.012  0.00  0.00     0.161 C 
HETATM    6  C           1       5.016  29.420  49.586  0.00  0.00     0.155 C 
HETATM    7  C           1       6.292  29.006  48.835  0.00  0.00     0.072 C 
HETATM    8  N           1       3.788  29.039  48.851  0.00  0.00    -0.323 N 
HETATM    9  C           1       2.682  28.509  49.503  0.00  0.00     0.172 C 
HETATM   10  S           1       1.425  27.891  48.772  0.00  0.00    -0.041 SA
HETATM   11  N           1       2.617  28.631  50.869  0.00  0.00    -0.357 N 
HETATM   12  O           1       5.088  30.820  49.711  0.00  0.00    -0.316 OA
HETATM   13  C           1       2.644  31.378  52.303  0.00  0.00     0.012 A 
HETATM   14  C           1       2.459  32.698  52.188  0.00  0.00     0.003 A 
HETATM   15  C           1       3.142  33.379  51.257  0.00  0.00     0.040 A 
HETATM   16  H           1       1.771  28.337  51.358  0.00  0.00     0.162 HD
ENDROOT
BRANCH   5  17
HETATM   17  C           1       5.279  27.320  51.147  0.00  0.00     0.233 C 
HETATM   18  N           1       6.110  26.980  52.174  0.00  0.00    -0.326 N 
HETATM   19  H           1       6.437  27.735  52.758  0.00  0.00     0.169 HD
HETATM   20  O           1       4.739  26.521  50.424  0.00  0.00    -0.273 OA
BRANCH  18  21
HETATM   21  C           1       6.610  25.809  52.623  0.00  0.00     0.040 A 
HETATM   22  C           1       6.216  25.412  53.852  0.00  0.00    -0.035 A 
HETATM   23  C           1       5.252  26.233  54.685  0.00  0.00     0.050 C 
HETATM   24  C           1       6.682  24.254  54.357  0.00  0.00     0.015 A 
HETATM   25  C           1       7.537  23.470  53.682  0.00  0.00    -0.061 A 
HETATM   26  C           1       8.035  22.177  54.284  0.00  0.00     0.048 C 
HETATM   27  C           1       7.924  23.874  52.462  0.00  0.00     0.009 A 
HETATM   28  C           1       7.468  25.024  51.946  0.00  0.00     0.030 A 
ENDBRANCH  18  21
ENDBRANCH   5  17
BRANCH   8  29
HETATM   29  C           1       3.742  29.409  47.431  0.00  0.00     0.154 C 
BRANCH  29  30
HETATM   30  C           1       2.908  30.666  47.165  0.00  0.00     0.187 C 
BRANCH  30  31
HETATM   31  O           1       2.010  30.397  46.115  0.00  0.00    -0.394 OA
HETATM   32  C           1       0.756  31.014  46.314  0.00  0.00     0.201 C 
ENDBRANCH  30  31
ENDBRANCH  29  30
ENDBRANCH   8  29
BRANCH   2  33
HETATM   33  O           1       4.740  33.422  49.453  0.00  0.00    -0.349 OA
BRANCH  33  34
HETATM   34  C           1       6.065  33.806  49.710  0.00  0.00     0.171 C 
HETATM   35  C           1       6.061  34.829  50.843  0.00  0.00     0.034 C 
ENDBRANCH  33  34
ENDBRANCH   2  33
TORSDOF 7
ENDMDL
MODEL 8
REMARK VINA RESULT:      -7.2      6.313      8.027
REMARK  7 active torsions:
REMARK  status: ('A' for Active; 'I' for Inactive)
REMARK    1  A    between atoms: C_6  and  O_7 
REMARK    2  A    between atoms: O_7  and  C_8 
REMARK    3  A    between atoms: C_11  and  C_12 
REMARK       I    between atoms: C_12  and  N_13 
REMARK    4  A    between atoms: N_13  and  C_14 
REMARK    5  A    between atoms: N_22  and  C_23 
REMARK    6  A    between atoms: C_23  and  C_24 
REMARK    7  A    between atoms: C_24  and  O_25 
ROOT
HETATM    1  C           1       1.501  30.636  50.101  0.00  0.00     0.113 A 
HETATM    2  C           1       0.410  31.357  49.747  0.00  0.00     0.102 A 
HETATM    3  C           1       2.116  29.857  49.187  0.00  0.00     0.002 A 
HETATM    4  C           1       3.353  29.081  49.568  0.00  0.00     0.138 C 
HETATM    5  C           1       3.426  28.903  51.090  0.00  0.00     0.161 C 
HETATM    6  C           1       3.284  30.333  51.655  0.00  0.00     0.155 C 
HETATM    7  C           1       3.402  30.300  53.188  0.00  0.00     0.072 C 
HETATM    8  N           1       4.259  31.262  51.041  0.00  0.00    -0.323 N 
HETATM    9  C           1       4.952  30.934  49.883  0.00  0.00     0.172 C 
HETATM   10  S           1       6.149  31.777  49.288  0.00  0.00    -0.041 SA
HETATM   11  N           1       4.501  29.872  49.139  0.00  0.00    -0.357 N 
HETATM   12  O           1       1.971  30.763  51.385  0.00  0.00    -0.316 OA
HETATM   13  C           1       1.648  29.771  47.933  0.00  0.00     0.012 A 
HETATM   14  C           1       0.563  30.467  47.577  0.00  0.00     0.003 A 
HETATM   15  C           1      -0.041  31.252  48.481  0.00  0.00     0.040 A 
HETATM   16  H           1       4.935  29.672  48.238  0.00  0.00     0.162 HD
ENDROOT
BRANCH   5  17
HETATM   17  C           1       4.653  28.091  51.525  0.00  0.00     0.233 C 
HETATM   18  N           1       4.361  27.026  52.326  0.00  0.00    -0.326 N 
HETATM   19  H           1       3.385  26.855  52.511  0.00  0.00     0.169 HD
HETATM   20  O           1       5.764  28.364  51.143  0.00  0.00    -0.273 OA
BRANCH  18  21
HETATM   21  C           1       5.112  26.091  52.948  0.00  0.00     0.040 A 
HETATM   22  C           1       5.415  26.319  54.244  0.00  0.00    -0.035 A 
HETATM   23  C           1       4.930  27.557  54.971  0.00  0.00     0.050 C 
HETATM   24  C           1       6.163  25.425  54.917  0.00  0.00     0.015 A 
HETATM   25  C           1       6.630  24.304  54.346  0.00  0.00    -0.061 A 
HETATM   26  C           1       7.465  23.326  55.138  0.00  0.00     0.048 C 
HETATM   27  C           1       6.324  24.087  53.057  0.00  0.00     0.009 A 
HETATM   28  C           1       5.580  24.968  52.373  0.00  0.00     0.030 A 
ENDBRANCH  18  21
ENDBRANCH   5  17
BRANCH   8  29
HETATM   29  C           1       4.324  32.610  51.621  0.00  0.00     0.154 C 
BRANCH  29  30
HETATM   30  C           1       3.495  33.638  50.846  0.00  0.00     0.187 C 
BRANCH  30  31
HETATM   31  O           1       4.312  34.745  50.551  0.00  0.00    -0.394 OA
HETATM   32  C           1       5.390  34.869  51.455  0.00  0.00     0.201 C 
ENDBRANCH  30  31
ENDBRANCH  29  30
ENDBRANCH   8  29
BRANCH   2  33
HETATM   33  O           1      -0.166  32.154  50.712  0.00  0.00    -0.349 OA
BRANCH  33  34
HETATM   34  C           1      -1.492  32.583  50.553  0.00  0.00     0.171 C 
HETATM   35  C           1      -2.389  31.716  51.434  0.00  0.00     0.034 C 
ENDBRANCH  33  34
ENDBRANCH   2  33
TORSDOF 7
ENDMDL
MODEL 9
REMARK VINA RESULT:      -7.1      7.086      9.120
REMARK  7 active torsions:
REMARK  status: ('A' for Active; 'I' for Inactive)
REMARK    1  A    between atoms: C_6  and  O_7 
REMARK    2  A    between atoms: O_7  and  C_8 
REMARK    3  A    between atoms: C_11  and  C_12 
REMARK       I    between atoms: C_12  and  N_13 
REMARK    4  A    between atoms: N_13  and  C_14 
REMARK    5  A    between atoms: N_22  and  C_23 
REMARK    6  A    between atoms: C_23  and  C_24 
REMARK    7  A    between atoms: C_24  and  O_25 
ROOT
HETATM    1  C           1       1.632  29.460  48.528  0.00  0.00     0.113 A 
HETATM    2  C           1       0.637  30.061  47.833  0.00  0.00     0.102 A 
HETATM    3  C           1       1.896  28.151  48.328  0.00  0.00     0.002 A 
HETATM    4  C           1       3.028  27.487  49.073  0.00  0.00     0.138 C 
HETATM    5  C           1       3.382  28.289  50.332  0.00  0.00     0.161 C 
HETATM    6  C           1       3.617  29.727  49.822  0.00  0.00     0.155 C 
HETATM    7  C           1       4.043  30.630  50.992  0.00  0.00     0.072 C 
HETATM    8  N           1       4.592  29.761  48.709  0.00  0.00    -0.323 N 
HETATM    9  C           1       4.960  28.609  48.026  0.00  0.00     0.172 C 
HETATM   10  S           1       6.137  28.530  46.974  0.00  0.00    -0.041 SA
HETATM   11  N           1       4.183  27.488  48.183  0.00  0.00    -0.357 N 
HETATM   12  O           1       2.374  30.228  49.391  0.00  0.00    -0.316 OA
HETATM   13  C           1       1.170  27.431  47.460  0.00  0.00     0.012 A 
HETATM   14  C           1       0.175  28.011  46.780  0.00  0.00     0.003 A 
HETATM   15  C           1      -0.078  29.313  46.968  0.00  0.00     0.040 A 
HETATM   16  H           1       4.377  26.661  47.618  0.00  0.00     0.162 HD
ENDROOT
BRANCH   5  17
HETATM   17  C           1       4.510  27.635  51.142  0.00  0.00     0.233 C 
HETATM   18  N           1       4.118  27.164  52.361  0.00  0.00    -0.326 N 
HETATM   19  H           1       3.139  27.250  52.585  0.00  0.00     0.169 HD
HETATM   20  O           1       5.625  27.520  50.701  0.00  0.00    -0.273 OA
BRANCH  18  21
HETATM   21  C           1       4.767  26.566  53.384  0.00  0.00     0.040 A 
HETATM   22  C           1       4.949  27.302  54.501  0.00  0.00    -0.035 A 
HETATM   23  C           1       4.441  28.726  54.610  0.00  0.00     0.050 C 
HETATM   24  C           1       5.591  26.762  55.554  0.00  0.00     0.015 A 
HETATM   25  C           1       6.068  25.508  55.538  0.00  0.00    -0.061 A 
HETATM   26  C           1       6.782  24.940  56.742  0.00  0.00     0.048 C 
HETATM   27  C           1       5.884  24.785  54.422  0.00  0.00     0.009 A 
HETATM   28  C           1       5.246  25.309  53.365  0.00  0.00     0.030 A 
ENDBRANCH  18  21
ENDBRANCH   5  17
BRANCH   8  29
HETATM   29  C           1       5.014  31.092  48.257  0.00  0.00     0.154 C 
BRANCH  29  30
HETATM   30  C           1       4.166  31.630  47.099  0.00  0.00     0.187 C 
BRANCH  30  31
HETATM   31  O           1       5.018  31.934  46.021  0.00  0.00    -0.394 OA
HETATM   32  C           1       4.495  31.492  44.786  0.00  0.00     0.201 C 
ENDBRANCH  30  31
ENDBRANCH  29  30
ENDBRANCH   8  29
BRANCH   2  33
HETATM   33  O           1       0.425  31.403  48.058  0.00  0.00    -0.349 OA
BRANCH  33  34
HETATM   34  C           1      -0.841  31.843  48.473  0.00  0.00     0.171 C 
HETATM   35  C           1      -0.843  31.943  49.996  0.00  0.00     0.034 C 
ENDBRANCH  33  34
ENDBRANCH   2  33
TORSDOF 7
ENDMDL
MODEL 10
REMARK VINA RESULT:      -6.8      6.688      9.807
REMARK  7 active torsions:
REMARK  status: ('A' for Active; 'I' for Inactive)
REMARK    1  A    between atoms: C_6  and  O_7 
REMARK    2  A    between atoms: O_7  and  C_8 
REMARK    3  A    between atoms: C_11  and  C_12 
REMARK       I    between atoms: C_12  and  N_13 
REMARK    4  A    between atoms: N_13  and  C_14 
REMARK    5  A    between atoms: N_22  and  C_23 
REMARK    6  A    between atoms: C_23  and  C_24 
REMARK    7  A    between atoms: C_24  and  O_25 
ROOT
HETATM    1  C           1       2.522  27.473  48.691  0.00  0.00     0.113 A 
HETATM    2  C           1       1.776  26.886  47.725  0.00  0.00     0.102 A 
HETATM    3  C           1       3.830  27.162  48.813  0.00  0.00     0.002 A 
HETATM    4  C           1       4.673  27.841  49.865  0.00  0.00     0.138 C 
HETATM    5  C           1       3.782  28.414  50.975  0.00  0.00     0.161 C 
HETATM    6  C           1       2.743  29.281  50.231  0.00  0.00     0.155 C 
HETATM    7  C           1       1.816  29.968  51.247  0.00  0.00     0.072 C 
HETATM    8  N           1       3.392  30.253  49.322  0.00  0.00    -0.323 N 
HETATM    9  C           1       4.729  30.138  48.964  0.00  0.00     0.172 C 
HETATM   10  S           1       5.541  31.239  48.173  0.00  0.00    -0.041 SA
HETATM   11  N           1       5.364  28.945  49.210  0.00  0.00    -0.357 N 
HETATM   12  O           1       1.919  28.408  49.495  0.00  0.00    -0.316 OA
HETATM   13  C           1       4.398  26.261  47.998  0.00  0.00     0.012 A 
HETATM   14  C           1       3.668  25.664  47.050  0.00  0.00     0.003 A 
HETATM   15  C           1       2.372  25.983  46.920  0.00  0.00     0.040 A 
HETATM   16  H           1       6.315  28.805  48.869  0.00  0.00     0.162 HD
ENDROOT
BRANCH   5  17
HETATM   17  C           1       4.597  29.090  52.086  0.00  0.00     0.233 C 
HETATM   18  N           1       5.241  28.216  52.914  0.00  0.00    -0.326 N 
HETATM   19  H           1       5.156  27.237  52.690  0.00  0.00     0.169 HD
HETATM   20  O           1       4.681  30.289  52.173  0.00  0.00    -0.273 OA
BRANCH  18  21
HETATM   21  C           1       6.017  28.367  54.009  0.00  0.00     0.040 A 
HETATM   22  C           1       5.380  28.601  55.176  0.00  0.00    -0.035 A 
HETATM   23  C           1       3.869  28.681  55.259  0.00  0.00     0.050 C 
HETATM   24  C           1       6.099  28.762  56.303  0.00  0.00     0.015 A 
HETATM   25  C           1       7.440  28.704  56.313  0.00  0.00    -0.061 A 
HETATM   26  C           1       8.209  28.889  57.600  0.00  0.00     0.048 C 
HETATM   27  C           1       8.064  28.472  55.147  0.00  0.00     0.009 A 
HETATM   28  C           1       7.361  28.308  54.017  0.00  0.00     0.030 A 
ENDBRANCH  18  21
ENDBRANCH   5  17
BRANCH   8  29
HETATM   29  C           1       2.507  31.238  48.688  0.00  0.00     0.154 C 
BRANCH  29  30
HETATM   30  C           1       2.041  30.815  47.291  0.00  0.00     0.187 C 
BRANCH  30  31
HETATM   31  O           1       1.717  31.970  46.556  0.00  0.00    -0.394 OA
HETATM   32  C           1       0.325  32.108  46.362  0.00  0.00     0.201 C 
ENDBRANCH  30  31
ENDBRANCH  29  30
ENDBRANCH   8  29
BRANCH   2  33
HETATM   33  O           1       0.453  27.256  47.630  0.00  0.00    -0.349 OA
BRANCH  33  34
HETATM   34  C           1      -0.108  27.498  46.366  0.00  0.00     0.171 C 
HETATM   35  C           1      -1.191  28.564  46.514  0.00  0.00     0.034 C 
ENDBRANCH  33  34
ENDBRANCH   2  33
TORSDOF 7
ENDMDL
