MODEL 1
REMARK VINA RESULT:      -9.4      0.000      0.000
REMARK  5 active torsions:
REMARK  status: ('A' for Active; 'I' for Inactive)
REMARK    1  A    between atoms: C_7  and  C_8 
REMARK    2  A    between atoms: C_8  and  C_9 
REMARK    3  A    between atoms: C_9  and  N_10 
REMARK       I    between atoms: N_10  and  C_11 
REMARK       I    between atoms: C_11  and  N_12 
REMARK    4  A    between atoms: N_12  and  C_13 
REMARK    5  A    between atoms: C_14  and  O_15 
ROOT
HETATM    1  C   UNL     1       6.206  25.951  55.850  1.00  0.00     0.129 C 
ENDROOT
BRANCH   1   2
HETATM    2  C   UNL     1       7.556  25.739  55.155  1.00  0.00     0.061 C 
BRANCH   2   3
HETATM    3  C   UNL     1       7.640  24.444  54.396  1.00  0.00    -0.022 A 
HETATM    4  C   UNL     1       7.531  24.285  53.021  1.00  0.00     0.013 A 
HETATM    5  C   UNL     1       7.301  25.280  51.941  1.00  0.00     0.068 C 
HETATM    6  N   UNL     1       7.688  22.950  52.739  1.00  0.00    -0.356 N 
HETATM    7  H   UNL     1       7.666  22.535  51.817  1.00  0.00     0.166 HD
HETATM    8  C   UNL     1       7.895  22.239  53.895  1.00  0.00     0.082 A 
HETATM    9  C   UNL     1       7.865  23.144  54.954  1.00  0.00     0.005 A 
HETATM   10  C   UNL     1       8.107  20.872  54.082  1.00  0.00     0.146 A 
HETATM   11  C   UNL     1       8.055  22.646  56.260  1.00  0.00     0.056 A 
HETATM   12  C   UNL     1       8.269  21.276  56.438  1.00  0.00     0.120 A 
HETATM   13  C   UNL     1       8.297  20.391  55.372  1.00  0.00     0.086 A 
HETATM   14  F   UNL     1       8.451  20.805  57.681  1.00  0.00    -0.206 F 
HETATM   15  F   UNL     1       8.130  20.032  53.039  1.00  0.00    -0.204 F 
ENDBRANCH   2   3
ENDBRANCH   1   2
BRANCH   1  16
HETATM   16  N   UNL     1       5.549  27.185  55.443  1.00  0.00    -0.343 N 
HETATM   17  C   UNL     1       5.922  28.433  55.868  1.00  0.00     0.320 C 
HETATM   18  N   UNL     1       6.415  28.481  57.144  1.00  0.00    -0.303 N 
HETATM   19  O   UNL     1       5.751  29.384  55.112  1.00  0.00    -0.247 OA
HETATM   20  H   UNL     1       5.997  27.843  57.802  1.00  0.00     0.171 HD
HETATM   21  H   UNL     1       5.293  27.238  54.462  1.00  0.00     0.164 HD
BRANCH  18  22
HETATM   22  C   UNL     1       7.090  29.573  57.660  1.00  0.00     0.115 A 
HETATM   23  C   UNL     1       6.609  30.761  58.254  1.00  0.00     0.212 A 
HETATM   24  N   UNL     1       7.584  31.601  58.602  1.00  0.00    -0.145 NA
HETATM   25  N   UNL     1       8.702  30.943  58.242  1.00  0.00    -0.274 N 
HETATM   26  C   UNL     1       9.983  31.568  58.486  1.00  0.00     0.180 C 
HETATM   27  C   UNL     1       8.465  29.727  57.643  1.00  0.00     0.057 A 
HETATM   28  C   UNL     1       9.536  28.825  57.151  1.00  0.00     0.072 C 
BRANCH  23  29
HETATM   29  O   UNL     1       5.328  31.172  58.335  1.00  0.00    -0.337 OA
HETATM   30  C   UNL     1       5.003  32.127  57.334  1.00  0.00     0.212 C 
ENDBRANCH  23  29
ENDBRANCH  18  22
ENDBRANCH   1  16
TORSDOF 5
ENDMDL
MODEL 2
REMARK VINA RESULT:      -9.4      1.266      2.191
REMARK  5 active torsions:
REMARK  status: ('A' for Active; 'I' for Inactive)
REMARK    1  A    between atoms: C_7  and  C_8 
REMARK    2  A    between atoms: C_8  and  C_9 
REMARK    3  A    between atoms: C_9  and  N_10 
REMARK       I    between atoms: N_10  and  C_11 
REMARK       I    between atoms: C_11  and  N_12 
REMARK    4  A    between atoms: N_12  and  C_13 
REMARK    5  A    between atoms: C_14  and  O_15 
ROOT
HETATM    1  C   UNL     1       5.642  25.559  55.455  1.00  0.00     0.129 C 
ENDROOT
BRANCH   1   2
HETATM    2  C   UNL     1       7.144  25.394  55.199  1.00  0.00     0.061 C 
BRANCH   2   3
HETATM    3  C   UNL     1       7.477  24.203  54.346  1.00  0.00    -0.022 A 
HETATM    4  C   UNL     1       7.496  24.160  52.958  1.00  0.00     0.013 A 
HETATM    5  C   UNL     1       7.201  25.210  51.948  1.00  0.00     0.068 C 
HETATM    6  N   UNL     1       7.872  22.894  52.582  1.00  0.00    -0.356 N 
HETATM    7  H   UNL     1       7.980  22.570  51.629  1.00  0.00     0.166 HD
HETATM    8  C   UNL     1       8.096  22.113  53.688  1.00  0.00     0.082 A 
HETATM    9  C   UNL     1       7.852  22.900  54.812  1.00  0.00     0.005 A 
HETATM   10  C   UNL     1       8.495  20.779  53.779  1.00  0.00     0.146 A 
HETATM   11  C   UNL     1       8.016  22.313  56.084  1.00  0.00     0.056 A 
HETATM   12  C   UNL     1       8.419  20.977  56.166  1.00  0.00     0.120 A 
HETATM   13  C   UNL     1       8.659  20.210  55.036  1.00  0.00     0.086 A 
HETATM   14  F   UNL     1       8.577  20.421  57.377  1.00  0.00    -0.206 F 
HETATM   15  F   UNL     1       8.721  20.053  52.677  1.00  0.00    -0.204 F 
ENDBRANCH   2   3
ENDBRANCH   1   2
BRANCH   1  16
HETATM   16  N   UNL     1       5.098  26.774  54.865  1.00  0.00    -0.343 N 
HETATM   17  C   UNL     1       5.308  28.033  55.361  1.00  0.00     0.320 C 
HETATM   18  N   UNL     1       5.422  28.101  56.724  1.00  0.00    -0.303 N 
HETATM   19  O   UNL     1       5.336  28.976  54.577  1.00  0.00    -0.247 OA
HETATM   20  H   UNL     1       4.850  27.457  57.246  1.00  0.00     0.171 HD
HETATM   21  H   UNL     1       5.128  26.815  53.851  1.00  0.00     0.164 HD
BRANCH  18  22
HETATM   22  C   UNL     1       5.900  29.213  57.396  1.00  0.00     0.115 A 
HETATM   23  C   UNL     1       7.159  29.466  57.985  1.00  0.00     0.212 A 
HETATM   24  N   UNL     1       7.227  30.659  58.575  1.00  0.00    -0.145 NA
HETATM   25  N   UNL     1       6.007  31.184  58.354  1.00  0.00    -0.274 N 
HETATM   26  C   UNL     1       5.720  32.508  58.857  1.00  0.00     0.180 C 
HETATM   27  C   UNL     1       5.155  30.345  57.671  1.00  0.00     0.057 A 
HETATM   28  C   UNL     1       3.756  30.696  57.318  1.00  0.00     0.072 C 
BRANCH  23  29
HETATM   29  O   UNL     1       8.175  28.594  58.146  1.00  0.00    -0.337 OA
HETATM   30  C   UNL     1       9.088  28.622  57.058  1.00  0.00     0.212 C 
ENDBRANCH  23  29
ENDBRANCH  18  22
ENDBRANCH   1  16
TORSDOF 5
ENDMDL
MODEL 3
REMARK VINA RESULT:      -9.2      3.886      6.592
REMARK  5 active torsions:
REMARK  status: ('A' for Active; 'I' for Inactive)
REMARK    1  A    between atoms: C_7  and  C_8 
REMARK    2  A    between atoms: C_8  and  C_9 
REMARK    3  A    between atoms: C_9  and  N_10 
REMARK       I    between atoms: N_10  and  C_11 
REMARK       I    between atoms: C_11  and  N_12 
REMARK    4  A    between atoms: N_12  and  C_13 
REMARK    5  A    between atoms: C_14  and  O_15 
ROOT
HETATM    1  C   UNL     1       5.734  25.259  53.548  1.00  0.00     0.129 C 
ENDROOT
BRANCH   1   2
HETATM    2  C   UNL     1       7.229  25.350  53.870  1.00  0.00     0.061 C 
BRANCH   2   3
HETATM    3  C   UNL     1       7.705  24.275  54.806  1.00  0.00    -0.022 A 
HETATM    4  C   UNL     1       7.912  24.402  56.172  1.00  0.00     0.013 A 
HETATM    5  C   UNL     1       7.747  25.569  57.078  1.00  0.00     0.068 C 
HETATM    6  N   UNL     1       8.324  23.183  56.651  1.00  0.00    -0.356 N 
HETATM    7  H   UNL     1       8.542  22.970  57.616  1.00  0.00     0.166 HD
HETATM    8  C   UNL     1       8.392  22.267  55.630  1.00  0.00     0.082 A 
HETATM    9  C   UNL     1       8.016  22.920  54.457  1.00  0.00     0.005 A 
HETATM   10  C   UNL     1       8.752  20.919  55.655  1.00  0.00     0.146 A 
HETATM   11  C   UNL     1       8.007  22.179  53.257  1.00  0.00     0.056 A 
HETATM   12  C   UNL     1       8.368  20.829  53.292  1.00  0.00     0.120 A 
HETATM   13  C   UNL     1       8.737  20.196  54.469  1.00  0.00     0.086 A 
HETATM   14  F   UNL     1       8.357  20.126  52.149  1.00  0.00    -0.206 F 
HETATM   15  F   UNL     1       9.107  20.325  56.802  1.00  0.00    -0.204 F 
ENDBRANCH   2   3
ENDBRANCH   1   2
BRANCH   1  16
HETATM   16  N   UNL     1       5.050  26.539  53.671  1.00  0.00    -0.343 N 
HETATM   17  C   UNL     1       4.568  27.260  52.612  1.00  0.00     0.320 C 
HETATM   18  N   UNL     1       5.302  27.151  51.461  1.00  0.00    -0.303 N 
HETATM   19  O   UNL     1       3.573  27.958  52.781  1.00  0.00    -0.247 OA
HETATM   20  H   UNL     1       6.298  27.062  51.581  1.00  0.00     0.171 HD
HETATM   21  H   UNL     1       4.389  26.606  54.438  1.00  0.00     0.164 HD
BRANCH  18  22
HETATM   22  C   UNL     1       4.847  27.570  50.223  1.00  0.00     0.115 A 
HETATM   23  C   UNL     1       4.144  26.876  49.213  1.00  0.00     0.212 A 
HETATM   24  N   UNL     1       3.909  27.623  48.135  1.00  0.00    -0.145 NA
HETATM   25  N   UNL     1       4.454  28.811  48.457  1.00  0.00    -0.274 N 
HETATM   26  C   UNL     1       4.374  29.892  47.500  1.00  0.00     0.180 C 
HETATM   27  C   UNL     1       5.059  28.831  49.693  1.00  0.00     0.057 A 
HETATM   28  C   UNL     1       5.736  30.021  50.264  1.00  0.00     0.072 C 
BRANCH  23  29
HETATM   29  O   UNL     1       3.861  25.558  49.174  1.00  0.00    -0.337 OA
HETATM   30  C   UNL     1       3.111  25.200  48.022  1.00  0.00     0.212 C 
ENDBRANCH  23  29
ENDBRANCH  18  22
ENDBRANCH   1  16
TORSDOF 5
ENDMDL
MODEL 4
REMARK VINA RESULT:      -9.2      3.819      6.088
REMARK  5 active torsions:
REMARK  status: ('A' for Active; 'I' for Inactive)
REMARK    1  A    between atoms: C_7  and  C_8 
REMARK    2  A    between atoms: C_8  and  C_9 
REMARK    3  A    between atoms: C_9  and  N_10 
REMARK       I    between atoms: N_10  and  C_11 
REMARK       I    between atoms: C_11  and  N_12 
REMARK    4  A    between atoms: N_12  and  C_13 
REMARK    5  A    between atoms: C_14  and  O_15 
ROOT
HETATM    1  C   UNL     1       5.674  25.213  53.804  1.00  0.00     0.129 C 
ENDROOT
BRANCH   1   2
HETATM    2  C   UNL     1       7.163  25.347  54.141  1.00  0.00     0.061 C 
BRANCH   2   3
HETATM    3  C   UNL     1       7.676  24.248  55.029  1.00  0.00    -0.022 A 
HETATM    4  C   UNL     1       7.911  24.332  56.395  1.00  0.00     0.013 A 
HETATM    5  C   UNL     1       7.749  25.465  57.343  1.00  0.00     0.068 C 
HETATM    6  N   UNL     1       8.352  23.104  56.822  1.00  0.00    -0.356 N 
HETATM    7  H   UNL     1       8.594  22.862  57.774  1.00  0.00     0.166 HD
HETATM    8  C   UNL     1       8.410  22.224  55.769  1.00  0.00     0.082 A 
HETATM    9  C   UNL     1       7.999  22.911  54.628  1.00  0.00     0.005 A 
HETATM   10  C   UNL     1       8.791  20.882  55.740  1.00  0.00     0.146 A 
HETATM   11  C   UNL     1       7.974  22.210  53.404  1.00  0.00     0.056 A 
HETATM   12  C   UNL     1       8.355  20.866  53.384  1.00  0.00     0.120 A 
HETATM   13  C   UNL     1       8.760  20.199  54.531  1.00  0.00     0.086 A 
HETATM   14  F   UNL     1       8.329  20.202  52.219  1.00  0.00    -0.206 F 
HETATM   15  F   UNL     1       9.180  20.255  56.858  1.00  0.00    -0.204 F 
ENDBRANCH   2   3
ENDBRANCH   1   2
BRANCH   1  16
HETATM   16  N   UNL     1       4.943  26.462  53.968  1.00  0.00    -0.343 N 
HETATM   17  C   UNL     1       4.615  27.303  52.938  1.00  0.00     0.320 C 
HETATM   18  N   UNL     1       5.525  27.342  51.916  1.00  0.00    -0.303 N 
HETATM   19  O   UNL     1       3.586  27.965  53.027  1.00  0.00    -0.247 OA
HETATM   20  H   UNL     1       6.492  27.248  52.184  1.00  0.00     0.171 HD
HETATM   21  H   UNL     1       4.167  26.429  54.621  1.00  0.00     0.164 HD
BRANCH  18  22
HETATM   22  C   UNL     1       5.262  27.905  50.680  1.00  0.00     0.115 A 
HETATM   23  C   UNL     1       5.463  29.218  50.200  1.00  0.00     0.212 A 
HETATM   24  N   UNL     1       5.046  29.384  48.945  1.00  0.00    -0.145 NA
HETATM   25  N   UNL     1       4.585  28.165  48.609  1.00  0.00    -0.274 N 
HETATM   26  C   UNL     1       4.053  27.968  47.279  1.00  0.00     0.180 C 
HETATM   27  C   UNL     1       4.664  27.239  49.624  1.00  0.00     0.057 A 
HETATM   28  C   UNL     1       4.209  25.832  49.498  1.00  0.00     0.072 C 
BRANCH  23  29
HETATM   29  O   UNL     1       5.851  30.296  50.911  1.00  0.00    -0.337 OA
HETATM   30  C   UNL     1       5.812  31.492  50.145  1.00  0.00     0.212 C 
ENDBRANCH  23  29
ENDBRANCH  18  22
ENDBRANCH   1  16
TORSDOF 5
ENDMDL
MODEL 5
REMARK VINA RESULT:      -9.2      1.731      2.735
REMARK  5 active torsions:
REMARK  status: ('A' for Active; 'I' for Inactive)
REMARK    1  A    between atoms: C_7  and  C_8 
REMARK    2  A    between atoms: C_8  and  C_9 
REMARK    3  A    between atoms: C_9  and  N_10 
REMARK       I    between atoms: N_10  and  C_11 
REMARK       I    between atoms: C_11  and  N_12 
REMARK    4  A    between atoms: N_12  and  C_13 
REMARK    5  A    between atoms: C_14  and  O_15 
ROOT
HETATM    1  C   UNL     1       5.417  25.407  54.543  1.00  0.00     0.129 C 
ENDROOT
BRANCH   1   2
HETATM    2  C   UNL     1       6.935  25.279  54.369  1.00  0.00     0.061 C 
BRANCH   2   3
HETATM    3  C   UNL     1       7.540  24.176  55.191  1.00  0.00    -0.022 A 
HETATM    4  C   UNL     1       7.835  24.223  56.546  1.00  0.00     0.013 A 
HETATM    5  C   UNL     1       7.665  25.313  57.542  1.00  0.00     0.068 C 
HETATM    6  N   UNL     1       8.352  23.003  56.907  1.00  0.00    -0.356 N 
HETATM    7  H   UNL     1       8.651  22.741  57.837  1.00  0.00     0.166 HD
HETATM    8  C   UNL     1       8.402  22.166  55.821  1.00  0.00     0.082 A 
HETATM    9  C   UNL     1       7.906  22.871  54.725  1.00  0.00     0.005 A 
HETATM   10  C   UNL     1       8.844  20.845  55.724  1.00  0.00     0.146 A 
HETATM   11  C   UNL     1       7.856  22.214  53.478  1.00  0.00     0.056 A 
HETATM   12  C   UNL     1       8.299  20.890  53.391  1.00  0.00     0.120 A 
HETATM   13  C   UNL     1       8.788  20.205  54.492  1.00  0.00     0.086 A 
HETATM   14  F   UNL     1       8.248  20.267  52.205  1.00  0.00    -0.206 F 
HETATM   15  F   UNL     1       9.315  20.199  56.799  1.00  0.00    -0.204 F 
ENDBRANCH   2   3
ENDBRANCH   1   2
BRANCH   1  16
HETATM   16  N   UNL     1       4.883  26.632  53.965  1.00  0.00    -0.343 N 
HETATM   17  C   UNL     1       4.973  27.865  54.555  1.00  0.00     0.320 C 
HETATM   18  N   UNL     1       4.928  27.851  55.923  1.00  0.00    -0.303 N 
HETATM   19  O   UNL     1       5.042  28.856  53.835  1.00  0.00    -0.247 OA
HETATM   20  H   UNL     1       4.335  27.152  56.337  1.00  0.00     0.171 HD
HETATM   21  H   UNL     1       5.025  26.739  52.966  1.00  0.00     0.164 HD
BRANCH  18  22
HETATM   22  C   UNL     1       5.272  28.938  56.709  1.00  0.00     0.115 A 
HETATM   23  C   UNL     1       4.475  29.960  57.273  1.00  0.00     0.212 A 
HETATM   24  N   UNL     1       5.186  30.860  57.950  1.00  0.00    -0.145 NA
HETATM   25  N   UNL     1       6.449  30.408  57.833  1.00  0.00    -0.274 N 
HETATM   26  C   UNL     1       7.513  31.151  58.471  1.00  0.00     0.180 C 
HETATM   27  C   UNL     1       6.566  29.267  57.072  1.00  0.00     0.057 A 
HETATM   28  C   UNL     1       7.855  28.588  56.792  1.00  0.00     0.072 C 
BRANCH  23  29
HETATM   29  O   UNL     1       3.165  30.188  57.052  1.00  0.00    -0.337 OA
HETATM   30  C   UNL     1       2.939  30.939  55.867  1.00  0.00     0.212 C 
ENDBRANCH  23  29
ENDBRANCH  18  22
ENDBRANCH   1  16
TORSDOF 5
ENDMDL
MODEL 6
REMARK VINA RESULT:      -9.1      1.836      3.341
REMARK  5 active torsions:
REMARK  status: ('A' for Active; 'I' for Inactive)
REMARK    1  A    between atoms: C_7  and  C_8 
REMARK    2  A    between atoms: C_8  and  C_9 
REMARK    3  A    between atoms: C_9  and  N_10 
REMARK       I    between atoms: N_10  and  C_11 
REMARK       I    between atoms: C_11  and  N_12 
REMARK    4  A    between atoms: N_12  and  C_13 
REMARK    5  A    between atoms: C_14  and  O_15 
ROOT
HETATM    1  C   UNL     1       5.160  25.233  54.072  1.00  0.00     0.129 C 
ENDROOT
BRANCH   1   2
HETATM    2  C   UNL     1       6.681  25.100  53.936  1.00  0.00     0.061 C 
BRANCH   2   3
HETATM    3  C   UNL     1       7.275  24.072  54.857  1.00  0.00    -0.022 A 
HETATM    4  C   UNL     1       7.456  24.197  56.227  1.00  0.00     0.013 A 
HETATM    5  C   UNL     1       7.148  25.320  57.152  1.00  0.00     0.068 C 
HETATM    6  N   UNL     1       8.007  23.027  56.687  1.00  0.00    -0.356 N 
HETATM    7  H   UNL     1       8.243  22.823  57.650  1.00  0.00     0.166 HD
HETATM    8  C   UNL     1       8.190  22.145  55.651  1.00  0.00     0.082 A 
HETATM    9  C   UNL     1       7.747  22.771  54.487  1.00  0.00     0.005 A 
HETATM   10  C   UNL     1       8.708  20.849  55.656  1.00  0.00     0.146 A 
HETATM   11  C   UNL     1       7.834  22.056  53.274  1.00  0.00     0.056 A 
HETATM   12  C   UNL     1       8.353  20.758  53.288  1.00  0.00     0.120 A 
HETATM   13  C   UNL     1       8.787  20.151  54.456  1.00  0.00     0.086 A 
HETATM   14  F   UNL     1       8.432  20.080  52.133  1.00  0.00    -0.206 F 
HETATM   15  F   UNL     1       9.124  20.280  56.794  1.00  0.00    -0.204 F 
ENDBRANCH   2   3
ENDBRANCH   1   2
BRANCH   1  16
HETATM   16  N   UNL     1       4.649  26.478  53.514  1.00  0.00    -0.343 N 
HETATM   17  C   UNL     1       4.929  27.720  54.018  1.00  0.00     0.320 C 
HETATM   18  N   UNL     1       5.090  27.765  55.377  1.00  0.00    -0.303 N 
HETATM   19  O   UNL     1       4.972  28.671  53.245  1.00  0.00    -0.247 OA
HETATM   20  H   UNL     1       4.510  27.139  55.910  1.00  0.00     0.171 HD
HETATM   21  H   UNL     1       4.647  26.531  52.500  1.00  0.00     0.164 HD
BRANCH  18  22
HETATM   22  C   UNL     1       5.638  28.846  56.046  1.00  0.00     0.115 A 
HETATM   23  C   UNL     1       6.981  29.167  56.341  1.00  0.00     0.212 A 
HETATM   24  N   UNL     1       7.106  30.295  57.040  1.00  0.00    -0.145 NA
HETATM   25  N   UNL     1       5.834  30.711  57.185  1.00  0.00    -0.274 N 
HETATM   26  C   UNL     1       5.585  31.941  57.902  1.00  0.00     0.180 C 
HETATM   27  C   UNL     1       4.903  29.863  56.630  1.00  0.00     0.057 A 
HETATM   28  C   UNL     1       3.439  30.101  56.670  1.00  0.00     0.072 C 
BRANCH  23  29
HETATM   29  O   UNL     1       8.067  28.393  56.143  1.00  0.00    -0.337 OA
HETATM   30  C   UNL     1       9.091  28.645  57.095  1.00  0.00     0.212 C 
ENDBRANCH  23  29
ENDBRANCH  18  22
ENDBRANCH   1  16
TORSDOF 5
ENDMDL
MODEL 7
REMARK VINA RESULT:      -8.6      2.812      4.203
REMARK  5 active torsions:
REMARK  status: ('A' for Active; 'I' for Inactive)
REMARK    1  A    between atoms: C_7  and  C_8 
REMARK    2  A    between atoms: C_8  and  C_9 
REMARK    3  A    between atoms: C_9  and  N_10 
REMARK       I    between atoms: N_10  and  C_11 
REMARK       I    between atoms: C_11  and  N_12 
REMARK    4  A    between atoms: N_12  and  C_13 
REMARK    5  A    between atoms: C_14  and  O_15 
ROOT
HETATM    1  C   UNL     1       6.940  25.336  52.964  1.00  0.00     0.129 C 
ENDROOT
BRANCH   1   2
HETATM    2  C   UNL     1       6.213  24.785  54.195  1.00  0.00     0.061 C 
BRANCH   2   3
HETATM    3  C   UNL     1       7.058  23.858  55.023  1.00  0.00    -0.022 A 
HETATM    4  C   UNL     1       7.418  24.035  56.352  1.00  0.00     0.013 A 
HETATM    5  C   UNL     1       7.109  25.131  57.307  1.00  0.00     0.068 C 
HETATM    6  N   UNL     1       8.171  22.951  56.731  1.00  0.00    -0.356 N 
HETATM    7  H   UNL     1       8.567  22.800  57.650  1.00  0.00     0.166 HD
HETATM    8  C   UNL     1       8.311  22.076  55.683  1.00  0.00     0.082 A 
HETATM    9  C   UNL     1       7.630  22.616  54.593  1.00  0.00     0.005 A 
HETATM   10  C   UNL     1       8.982  20.854  55.616  1.00  0.00     0.146 A 
HETATM   11  C   UNL     1       7.628  21.891  53.384  1.00  0.00     0.056 A 
HETATM   12  C   UNL     1       8.301  20.667  53.326  1.00  0.00     0.120 A 
HETATM   13  C   UNL     1       8.972  20.144  54.421  1.00  0.00     0.086 A 
HETATM   14  F   UNL     1       8.297  19.979  52.175  1.00  0.00    -0.206 F 
HETATM   15  F   UNL     1       9.625  20.365  56.684  1.00  0.00    -0.204 F 
ENDBRANCH   2   3
ENDBRANCH   1   2
BRANCH   1  16
HETATM   16  N   UNL     1       7.675  26.562  53.244  1.00  0.00    -0.343 N 
HETATM   17  C   UNL     1       7.108  27.705  53.741  1.00  0.00     0.320 C 
HETATM   18  N   UNL     1       5.821  27.931  53.332  1.00  0.00    -0.303 N 
HETATM   19  O   UNL     1       7.787  28.434  54.456  1.00  0.00    -0.247 OA
HETATM   20  H   UNL     1       5.600  27.642  52.393  1.00  0.00     0.171 HD
HETATM   21  H   UNL     1       8.583  26.433  53.680  1.00  0.00     0.164 HD
BRANCH  18  22
HETATM   22  C   UNL     1       4.986  28.865  53.921  1.00  0.00     0.115 A 
HETATM   23  C   UNL     1       4.507  28.971  55.246  1.00  0.00     0.212 A 
HETATM   24  N   UNL     1       3.685  30.005  55.421  1.00  0.00    -0.145 NA
HETATM   25  N   UNL     1       3.644  30.578  54.203  1.00  0.00    -0.274 N 
HETATM   26  C   UNL     1       2.837  31.763  54.021  1.00  0.00     0.180 C 
HETATM   27  C   UNL     1       4.388  29.917  53.251  1.00  0.00     0.057 A 
HETATM   28  C   UNL     1       4.491  30.350  51.835  1.00  0.00     0.072 C 
BRANCH  23  29
HETATM   29  O   UNL     1       4.658  28.075  56.242  1.00  0.00    -0.337 OA
HETATM   30  C   UNL     1       5.491  28.561  57.285  1.00  0.00     0.212 C 
ENDBRANCH  23  29
ENDBRANCH  18  22
ENDBRANCH   1  16
TORSDOF 5
ENDMDL
MODEL 8
REMARK VINA RESULT:      -8.6      3.463      8.326
REMARK  5 active torsions:
REMARK  status: ('A' for Active; 'I' for Inactive)
REMARK    1  A    between atoms: C_7  and  C_8 
REMARK    2  A    between atoms: C_8  and  C_9 
REMARK    3  A    between atoms: C_9  and  N_10 
REMARK       I    between atoms: N_10  and  C_11 
REMARK       I    between atoms: C_11  and  N_12 
REMARK    4  A    between atoms: N_12  and  C_13 
REMARK    5  A    between atoms: C_14  and  O_15 
ROOT
HETATM    1  C   UNL     1       5.772  26.666  56.931  1.00  0.00     0.129 C 
ENDROOT
BRANCH   1   2
HETATM    2  C   UNL     1       6.152  27.910  56.121  1.00  0.00     0.061 C 
BRANCH   2   3
HETATM    3  C   UNL     1       6.595  29.065  56.974  1.00  0.00    -0.022 A 
HETATM    4  C   UNL     1       5.774  29.930  57.684  1.00  0.00     0.013 A 
HETATM    5  C   UNL     1       4.293  29.986  57.806  1.00  0.00     0.068 C 
HETATM    6  N   UNL     1       6.577  30.825  58.346  1.00  0.00    -0.356 N 
HETATM    7  H   UNL     1       6.257  31.570  58.951  1.00  0.00     0.166 HD
HETATM    8  C   UNL     1       7.899  30.565  58.084  1.00  0.00     0.082 A 
HETATM    9  C   UNL     1       7.947  29.471  57.222  1.00  0.00     0.005 A 
HETATM   10  C   UNL     1       9.049  31.210  58.542  1.00  0.00     0.146 A 
HETATM   11  C   UNL     1       9.212  29.010  56.803  1.00  0.00     0.056 A 
HETATM   12  C   UNL     1      10.359  29.659  57.269  1.00  0.00     0.120 A 
HETATM   13  C   UNL     1      10.292  30.746  58.127  1.00  0.00     0.086 A 
HETATM   14  F   UNL     1      11.561  29.217  56.870  1.00  0.00    -0.206 F 
HETATM   15  F   UNL     1       8.964  32.258  59.371  1.00  0.00    -0.204 F 
ENDBRANCH   2   3
ENDBRANCH   1   2
BRANCH   1  16
HETATM   16  N   UNL     1       6.931  25.907  57.380  1.00  0.00    -0.343 N 
HETATM   17  C   UNL     1       7.572  24.960  56.626  1.00  0.00     0.320 C 
HETATM   18  N   UNL     1       6.758  24.251  55.783  1.00  0.00    -0.303 N 
HETATM   19  O   UNL     1       8.777  24.797  56.789  1.00  0.00    -0.247 OA
HETATM   20  H   UNL     1       5.830  24.062  56.123  1.00  0.00     0.171 HD
HETATM   21  H   UNL     1       7.627  26.440  57.893  1.00  0.00     0.164 HD
BRANCH  18  22
HETATM   22  C   UNL     1       7.233  23.454  54.756  1.00  0.00     0.115 A 
HETATM   23  C   UNL     1       7.357  23.705  53.372  1.00  0.00     0.212 A 
HETATM   24  N   UNL     1       7.835  22.662  52.693  1.00  0.00    -0.145 NA
HETATM   25  N   UNL     1       8.033  21.736  53.650  1.00  0.00    -0.274 N 
HETATM   26  C   UNL     1       8.569  20.449  53.268  1.00  0.00     0.180 C 
HETATM   27  C   UNL     1       7.663  22.147  54.910  1.00  0.00     0.057 A 
HETATM   28  C   UNL     1       7.777  21.300  56.124  1.00  0.00     0.072 C 
BRANCH  23  29
HETATM   29  O   UNL     1       6.898  24.776  52.693  1.00  0.00    -0.337 OA
HETATM   30  C   UNL     1       5.485  24.756  52.543  1.00  0.00     0.212 C 
ENDBRANCH  23  29
ENDBRANCH  18  22
ENDBRANCH   1  16
TORSDOF 5
ENDMDL
MODEL 9
REMARK VINA RESULT:      -8.5      5.193      7.486
REMARK  5 active torsions:
REMARK  status: ('A' for Active; 'I' for Inactive)
REMARK    1  A    between atoms: C_7  and  C_8 
REMARK    2  A    between atoms: C_8  and  C_9 
REMARK    3  A    between atoms: C_9  and  N_10 
REMARK       I    between atoms: N_10  and  C_11 
REMARK       I    between atoms: C_11  and  N_12 
REMARK    4  A    between atoms: N_12  and  C_13 
REMARK    5  A    between atoms: C_14  and  O_15 
ROOT
HETATM    1  C   UNL     1       5.624  26.416  51.522  1.00  0.00     0.129 C 
ENDROOT
BRANCH   1   2
HETATM    2  C   UNL     1       5.184  25.288  52.461  1.00  0.00     0.061 C 
BRANCH   2   3
HETATM    3  C   UNL     1       6.093  25.108  53.645  1.00  0.00    -0.022 A 
HETATM    4  C   UNL     1       6.145  25.911  54.776  1.00  0.00     0.013 A 
HETATM    5  C   UNL     1       5.373  27.128  55.142  1.00  0.00     0.068 C 
HETATM    6  N   UNL     1       7.091  25.387  55.621  1.00  0.00    -0.356 N 
HETATM    7  H   UNL     1       7.342  25.757  56.528  1.00  0.00     0.166 HD
HETATM    8  C   UNL     1       7.657  24.265  55.068  1.00  0.00     0.082 A 
HETATM    9  C   UNL     1       7.059  24.065  53.825  1.00  0.00     0.005 A 
HETATM   10  C   UNL     1       8.645  23.417  55.570  1.00  0.00     0.146 A 
HETATM   11  C   UNL     1       7.479  22.960  53.055  1.00  0.00     0.056 A 
HETATM   12  C   UNL     1       8.468  22.115  53.566  1.00  0.00     0.120 A 
HETATM   13  C   UNL     1       9.051  22.329  54.806  1.00  0.00     0.086 A 
HETATM   14  F   UNL     1       8.865  21.064  52.833  1.00  0.00    -0.206 F 
HETATM   15  F   UNL     1       9.198  23.641  56.769  1.00  0.00    -0.204 F 
ENDBRANCH   2   3
ENDBRANCH   1   2
BRANCH   1  16
HETATM   16  N   UNL     1       5.377  26.111  50.119  1.00  0.00    -0.343 N 
HETATM   17  C   UNL     1       4.565  26.850  49.301  1.00  0.00     0.320 C 
HETATM   18  N   UNL     1       3.488  27.420  49.925  1.00  0.00    -0.303 N 
HETATM   19  O   UNL     1       4.833  26.908  48.105  1.00  0.00    -0.247 OA
HETATM   20  H   UNL     1       3.076  26.883  50.670  1.00  0.00     0.171 HD
HETATM   21  H   UNL     1       6.192  25.817  49.589  1.00  0.00     0.164 HD
BRANCH  18  22
HETATM   22  C   UNL     1       2.709  28.410  49.352  1.00  0.00     0.115 A 
HETATM   23  C   UNL     1       1.544  28.327  48.557  1.00  0.00     0.212 A 
HETATM   24  N   UNL     1       1.096  29.518  48.162  1.00  0.00    -0.145 NA
HETATM   25  N   UNL     1       1.972  30.377  48.716  1.00  0.00    -0.274 N 
HETATM   26  C   UNL     1       1.785  31.794  48.500  1.00  0.00     0.180 C 
HETATM   27  C   UNL     1       2.983  29.765  49.423  1.00  0.00     0.057 A 
HETATM   28  C   UNL     1       4.072  30.500  50.114  1.00  0.00     0.072 C 
BRANCH  23  29
HETATM   29  O   UNL     1       0.981  27.212  48.050  1.00  0.00    -0.337 OA
HETATM   30  C   UNL     1       0.731  27.319  46.655  1.00  0.00     0.212 C 
ENDBRANCH  23  29
ENDBRANCH  18  22
ENDBRANCH   1  16
TORSDOF 5
ENDMDL
MODEL 10
REMARK VINA RESULT:      -8.5      3.072      4.148
REMARK  5 active torsions:
REMARK  status: ('A' for Active; 'I' for Inactive)
REMARK    1  A    between atoms: C_7  and  C_8 
REMARK    2  A    between atoms: C_8  and  C_9 
REMARK    3  A    between atoms: C_9  and  N_10 
REMARK       I    between atoms: N_10  and  C_11 
REMARK       I    between atoms: C_11  and  N_12 
REMARK    4  A    between atoms: N_12  and  C_13 
REMARK    5  A    between atoms: C_14  and  O_15 
ROOT
HETATM    1  C   UNL     1       7.005  25.323  53.041  1.00  0.00     0.129 C 
ENDROOT
BRANCH   1   2
HETATM    2  C   UNL     1       6.317  24.835  54.321  1.00  0.00     0.061 C 
BRANCH   2   3
HETATM    3  C   UNL     1       7.152  23.874  55.118  1.00  0.00    -0.022 A 
HETATM    4  C   UNL     1       7.549  24.024  56.440  1.00  0.00     0.013 A 
HETATM    5  C   UNL     1       7.295  25.118  57.414  1.00  0.00     0.068 C 
HETATM    6  N   UNL     1       8.277  22.914  56.790  1.00  0.00    -0.356 N 
HETATM    7  H   UNL     1       8.690  22.741  57.697  1.00  0.00     0.166 HD
HETATM    8  C   UNL     1       8.366  22.048  55.729  1.00  0.00     0.082 A 
HETATM    9  C   UNL     1       7.677  22.620  54.662  1.00  0.00     0.005 A 
HETATM   10  C   UNL     1       8.998  20.807  55.634  1.00  0.00     0.146 A 
HETATM   11  C   UNL     1       7.626  21.910  53.445  1.00  0.00     0.056 A 
HETATM   12  C   UNL     1       8.260  20.667  53.359  1.00  0.00     0.120 A 
HETATM   13  C   UNL     1       8.940  20.112  54.432  1.00  0.00     0.086 A 
HETATM   14  F   UNL     1       8.209  19.992  52.200  1.00  0.00    -0.206 F 
HETATM   15  F   UNL     1       9.651  20.287  56.681  1.00  0.00    -0.204 F 
ENDBRANCH   2   3
ENDBRANCH   1   2
BRANCH   1  16
HETATM   16  N   UNL     1       7.702  26.589  53.222  1.00  0.00    -0.343 N 
HETATM   17  C   UNL     1       7.118  27.727  53.712  1.00  0.00     0.320 C 
HETATM   18  N   UNL     1       5.798  27.882  53.384  1.00  0.00    -0.303 N 
HETATM   19  O   UNL     1       7.810  28.513  54.351  1.00  0.00    -0.247 OA
HETATM   20  H   UNL     1       5.528  27.545  52.475  1.00  0.00     0.171 HD
HETATM   21  H   UNL     1       8.641  26.518  53.600  1.00  0.00     0.164 HD
BRANCH  18  22
HETATM   22  C   UNL     1       4.963  28.803  53.993  1.00  0.00     0.115 A 
HETATM   23  C   UNL     1       4.330  29.957  53.480  1.00  0.00     0.212 A 
HETATM   24  N   UNL     1       3.620  30.613  54.398  1.00  0.00    -0.145 NA
HETATM   25  N   UNL     1       3.786  29.869  55.507  1.00  0.00    -0.274 N 
HETATM   26  C   UNL     1       3.132  30.287  56.726  1.00  0.00     0.180 C 
HETATM   27  C   UNL     1       4.609  28.779  55.330  1.00  0.00     0.057 A 
HETATM   28  C   UNL     1       4.950  27.817  56.407  1.00  0.00     0.072 C 
BRANCH  23  29
HETATM   29  O   UNL     1       4.511  30.516  52.267  1.00  0.00    -0.337 OA
HETATM   30  C   UNL     1       3.321  31.103  51.758  1.00  0.00     0.212 C 
ENDBRANCH  23  29
ENDBRANCH  18  22
ENDBRANCH   1  16
TORSDOF 5
ENDMDL
