MODEL 1
REMARK VINA RESULT:     -10.0      0.000      0.000
REMARK  6 active torsions:
REMARK  status: ('A' for Active; 'I' for Inactive)
REMARK    1  A    between atoms: C_5  and  C_6 
REMARK    2  A    between atoms: C_6  and  C_7 
REMARK       I    between atoms: C_7  and  N_8 
REMARK    3  A    between atoms: N_8  and  N_9 
REMARK       I    between atoms: N_9  and  C_10 
REMARK    4  A    between atoms: C_10  and  C_11 
REMARK    5  A    between atoms: C_15  and  C_16 
REMARK    6  A    between atoms: C_19  and  O_20 
ROOT
HETATM    1  N   UNL     1       8.390  29.528  55.850  1.00  0.00    -0.262 N 
HETATM    2  C   UNL     1       9.540  29.820  56.553  1.00  0.00     0.288 C 
HETATM    3  O   UNL     1      10.649  29.449  56.176  1.00  0.00    -0.264 OA
HETATM    4  H   UNL     1       7.458  29.722  56.209  1.00  0.00     0.190 HD
ENDROOT
BRANCH   2   5
HETATM    5  C   UNL     1       9.337  30.581  57.755  1.00  0.00     0.121 A 
HETATM    6  N   UNL     1      10.181  31.587  58.133  1.00  0.00    -0.272 N 
HETATM    7  H   UNL     1      11.011  31.904  57.641  1.00  0.00     0.189 HD
HETATM    8  N   UNL     1       9.832  32.199  59.275  1.00  0.00    -0.174 NA
HETATM    9  C   UNL     1       8.723  31.558  59.680  1.00  0.00     0.089 A 
HETATM   10  C   UNL     1       8.378  30.541  58.748  1.00  0.00     0.071 A 
BRANCH   9  11
HETATM   11  C   UNL     1       8.017  31.923  60.912  1.00  0.00    -0.005 A 
HETATM   12  C   UNL     1       8.692  31.956  62.139  1.00  0.00     0.016 A 
HETATM   13  C   UNL     1       8.024  32.329  63.310  1.00  0.00     0.037 A 
HETATM   14  C   UNL     1       6.671  32.673  63.280  1.00  0.00     0.068 A 
HETATM   15  C   UNL     1       5.987  32.628  62.067  1.00  0.00     0.037 A 
HETATM   16  C   UNL     1       6.656  32.256  60.893  1.00  0.00     0.016 A 
BRANCH  14  17
HETATM   17  O   UNL     1       6.140  33.027  64.489  1.00  0.00    -0.356 OA
HETATM   18  C   UNL     1       7.001  33.712  65.391  1.00  0.00     0.210 C 
ENDBRANCH  14  17
ENDBRANCH   9  11
ENDBRANCH   2   5
BRANCH   1  19
HETATM   19  N   UNL     1       8.450  28.663  54.754  1.00  0.00    -0.267 N 
HETATM   20  C   UNL     1       7.298  27.979  54.422  1.00  0.00     0.240 C 
HETATM   21  O   UNL     1       6.233  28.171  55.009  1.00  0.00    -0.272 OA
HETATM   22  H   UNL     1       9.366  28.479  54.349  1.00  0.00     0.190 HD
BRANCH  20  23
HETATM   23  C   UNL     1       7.447  27.007  53.270  1.00  0.00     0.143 C 
BRANCH  23  24
HETATM   24  C   UNL     1       7.550  25.548  53.650  1.00  0.00    -0.049 A 
HETATM   25  C   UNL     1       7.515  25.092  54.974  1.00  0.00     0.008 A 
HETATM   26  C   UNL     1       7.637  23.730  55.264  1.00  0.00     0.007 A 
HETATM   27  C   UNL     1       7.820  22.796  54.240  1.00  0.00    -0.062 A 
HETATM   28  C   UNL     1       7.929  21.332  54.549  1.00  0.00     0.048 C 
HETATM   29  C   UNL     1       7.853  23.244  52.917  1.00  0.00     0.007 A 
HETATM   30  C   UNL     1       7.725  24.604  52.626  1.00  0.00     0.008 A 
ENDBRANCH  23  24
ENDBRANCH  20  23
ENDBRANCH   1  19
TORSDOF 6
ENDMDL
MODEL 2
REMARK VINA RESULT:      -9.7      2.510     10.704
REMARK  6 active torsions:
REMARK  status: ('A' for Active; 'I' for Inactive)
REMARK    1  A    between atoms: C_5  and  C_6 
REMARK    2  A    between atoms: C_6  and  C_7 
REMARK       I    between atoms: C_7  and  N_8 
REMARK    3  A    between atoms: N_8  and  N_9 
REMARK       I    between atoms: N_9  and  C_10 
REMARK    4  A    between atoms: C_10  and  C_11 
REMARK    5  A    between atoms: C_15  and  C_16 
REMARK    6  A    between atoms: C_19  and  O_20 
ROOT
HETATM    1  N   UNL     1       7.887  29.649  59.482  1.00  0.00    -0.262 N 
HETATM    2  C   UNL     1       8.147  29.543  58.132  1.00  0.00     0.288 C 
HETATM    3  O   UNL     1       8.683  30.449  57.498  1.00  0.00    -0.264 OA
HETATM    4  H   UNL     1       7.337  28.962  59.995  1.00  0.00     0.190 HD
ENDROOT
BRANCH   2   5
HETATM    5  C   UNL     1       7.741  28.302  57.532  1.00  0.00     0.121 A 
HETATM    6  N   UNL     1       6.449  28.058  57.164  1.00  0.00    -0.272 N 
HETATM    7  H   UNL     1       5.656  28.686  57.263  1.00  0.00     0.189 HD
HETATM    8  N   UNL     1       6.253  26.853  56.608  1.00  0.00    -0.174 NA
HETATM    9  C   UNL     1       7.461  26.268  56.627  1.00  0.00     0.089 A 
HETATM   10  C   UNL     1       8.423  27.150  57.194  1.00  0.00     0.071 A 
BRANCH   9  11
HETATM   11  C   UNL     1       7.683  24.915  56.106  1.00  0.00    -0.005 A 
HETATM   12  C   UNL     1       8.241  23.920  56.918  1.00  0.00     0.016 A 
HETATM   13  C   UNL     1       8.428  22.623  56.429  1.00  0.00     0.037 A 
HETATM   14  C   UNL     1       8.064  22.295  55.121  1.00  0.00     0.068 A 
HETATM   15  C   UNL     1       7.522  23.282  54.300  1.00  0.00     0.037 A 
HETATM   16  C   UNL     1       7.333  24.582  54.790  1.00  0.00     0.016 A 
BRANCH  14  17
HETATM   17  O   UNL     1       8.289  20.993  54.771  1.00  0.00    -0.356 OA
HETATM   18  C   UNL     1       7.881  20.600  53.466  1.00  0.00     0.210 C 
ENDBRANCH  14  17
ENDBRANCH   9  11
ENDBRANCH   2   5
BRANCH   1  19
HETATM   19  N   UNL     1       8.095  30.866  60.135  1.00  0.00    -0.267 N 
HETATM   20  C   UNL     1       8.667  30.824  61.390  1.00  0.00     0.240 C 
HETATM   21  O   UNL     1       9.055  29.770  61.895  1.00  0.00    -0.272 OA
HETATM   22  H   UNL     1       7.691  31.701  59.714  1.00  0.00     0.190 HD
BRANCH  20  23
HETATM   23  C   UNL     1       8.803  32.169  62.071  1.00  0.00     0.143 C 
BRANCH  23  24
HETATM   24  C   UNL     1       7.665  32.560  62.987  1.00  0.00    -0.049 A 
HETATM   25  C   UNL     1       6.316  32.371  62.663  1.00  0.00     0.008 A 
HETATM   26  C   UNL     1       5.307  32.774  63.544  1.00  0.00     0.007 A 
HETATM   27  C   UNL     1       5.624  33.394  64.756  1.00  0.00    -0.062 A 
HETATM   28  C   UNL     1       4.542  33.805  65.711  1.00  0.00     0.048 C 
HETATM   29  C   UNL     1       6.968  33.582  65.087  1.00  0.00     0.007 A 
HETATM   30  C   UNL     1       7.976  33.175  64.210  1.00  0.00     0.008 A 
ENDBRANCH  23  24
ENDBRANCH  20  23
ENDBRANCH   1  19
TORSDOF 6
ENDMDL
MODEL 3
REMARK VINA RESULT:      -9.5      1.895      2.713
REMARK  6 active torsions:
REMARK  status: ('A' for Active; 'I' for Inactive)
REMARK    1  A    between atoms: C_5  and  C_6 
REMARK    2  A    between atoms: C_6  and  C_7 
REMARK       I    between atoms: C_7  and  N_8 
REMARK    3  A    between atoms: N_8  and  N_9 
REMARK       I    between atoms: N_9  and  C_10 
REMARK    4  A    between atoms: C_10  and  C_11 
REMARK    5  A    between atoms: C_15  and  C_16 
REMARK    6  A    between atoms: C_19  and  O_20 
ROOT
HETATM    1  N   UNL     1       7.568  29.474  58.455  1.00  0.00    -0.262 N 
HETATM    2  C   UNL     1       8.509  30.328  58.988  1.00  0.00     0.288 C 
HETATM    3  O   UNL     1       9.489  30.703  58.348  1.00  0.00    -0.264 OA
HETATM    4  H   UNL     1       6.820  29.060  59.008  1.00  0.00     0.190 HD
ENDROOT
BRANCH   2   5
HETATM    5  C   UNL     1       8.257  30.738  60.342  1.00  0.00     0.121 A 
HETATM    6  N   UNL     1       8.916  30.189  61.406  1.00  0.00    -0.272 N 
HETATM    7  H   UNL     1       9.625  29.463  61.376  1.00  0.00     0.189 HD
HETATM    8  N   UNL     1       8.564  30.701  62.595  1.00  0.00    -0.174 NA
HETATM    9  C   UNL     1       7.619  31.611  62.309  1.00  0.00     0.089 A 
HETATM   10  C   UNL     1       7.404  31.668  60.904  1.00  0.00     0.071 A 
BRANCH   9  11
HETATM   11  C   UNL     1       6.958  32.405  63.350  1.00  0.00    -0.005 A 
HETATM   12  C   UNL     1       7.712  33.127  64.284  1.00  0.00     0.016 A 
HETATM   13  C   UNL     1       7.081  33.905  65.260  1.00  0.00     0.037 A 
HETATM   14  C   UNL     1       5.688  33.975  65.325  1.00  0.00     0.068 A 
HETATM   15  C   UNL     1       4.929  33.248  64.411  1.00  0.00     0.037 A 
HETATM   16  C   UNL     1       5.560  32.469  63.431  1.00  0.00     0.016 A 
BRANCH  14  17
HETATM   17  O   UNL     1       5.198  34.776  66.318  1.00  0.00    -0.356 OA
HETATM   18  C   UNL     1       3.847  35.202  66.192  1.00  0.00     0.210 C 
ENDBRANCH  14  17
ENDBRANCH   9  11
ENDBRANCH   2   5
BRANCH   1  19
HETATM   19  N   UNL     1       7.792  28.890  57.206  1.00  0.00    -0.267 N 
HETATM   20  C   UNL     1       6.827  28.028  56.725  1.00  0.00     0.240 C 
HETATM   21  O   UNL     1       5.770  27.833  57.327  1.00  0.00    -0.272 OA
HETATM   22  H   UNL     1       8.709  29.020  56.783  1.00  0.00     0.190 HD
BRANCH  20  23
HETATM   23  C   UNL     1       7.161  27.376  55.400  1.00  0.00     0.143 C 
BRANCH  23  24
HETATM   24  C   UNL     1       7.319  25.872  55.429  1.00  0.00    -0.049 A 
HETATM   25  C   UNL     1       6.861  25.030  54.408  1.00  0.00     0.008 A 
HETATM   26  C   UNL     1       7.016  23.643  54.503  1.00  0.00     0.007 A 
HETATM   27  C   UNL     1       7.612  23.068  55.629  1.00  0.00    -0.062 A 
HETATM   28  C   UNL     1       7.800  21.582  55.720  1.00  0.00     0.048 C 
HETATM   29  C   UNL     1       8.075  23.903  56.649  1.00  0.00     0.007 A 
HETATM   30  C   UNL     1       7.924  25.288  56.553  1.00  0.00     0.008 A 
ENDBRANCH  23  24
ENDBRANCH  20  23
ENDBRANCH   1  19
TORSDOF 6
ENDMDL
MODEL 4
REMARK VINA RESULT:      -8.9      2.444     11.048
REMARK  6 active torsions:
REMARK  status: ('A' for Active; 'I' for Inactive)
REMARK    1  A    between atoms: C_5  and  C_6 
REMARK    2  A    between atoms: C_6  and  C_7 
REMARK       I    between atoms: C_7  and  N_8 
REMARK    3  A    between atoms: N_8  and  N_9 
REMARK       I    between atoms: N_9  and  C_10 
REMARK    4  A    between atoms: C_10  and  C_11 
REMARK    5  A    between atoms: C_15  and  C_16 
REMARK    6  A    between atoms: C_19  and  O_20 
ROOT
HETATM    1  N   UNL     1       7.058  31.208  60.243  1.00  0.00    -0.262 N 
HETATM    2  C   UNL     1       7.753  30.990  59.072  1.00  0.00     0.288 C 
HETATM    3  O   UNL     1       8.605  31.775  58.661  1.00  0.00    -0.264 OA
HETATM    4  H   UNL     1       6.270  30.634  60.533  1.00  0.00     0.190 HD
ENDROOT
BRANCH   2   5
HETATM    5  C   UNL     1       7.402  29.783  58.375  1.00  0.00     0.121 A 
HETATM    6  N   UNL     1       6.146  29.562  57.885  1.00  0.00    -0.272 N 
HETATM    7  H   UNL     1       5.347  30.187  57.949  1.00  0.00     0.189 HD
HETATM    8  N   UNL     1       6.000  28.389  57.252  1.00  0.00    -0.174 NA
HETATM    9  C   UNL     1       7.203  27.799  57.344  1.00  0.00     0.089 A 
HETATM   10  C   UNL     1       8.112  28.648  58.036  1.00  0.00     0.071 A 
BRANCH   9  11
HETATM   11  C   UNL     1       7.470  26.475  56.774  1.00  0.00    -0.005 A 
HETATM   12  C   UNL     1       6.804  26.047  55.619  1.00  0.00     0.016 A 
HETATM   13  C   UNL     1       7.078  24.794  55.061  1.00  0.00     0.037 A 
HETATM   14  C   UNL     1       8.020  23.944  55.646  1.00  0.00     0.068 A 
HETATM   15  C   UNL     1       8.677  24.354  56.804  1.00  0.00     0.037 A 
HETATM   16  C   UNL     1       8.404  25.611  57.363  1.00  0.00     0.016 A 
BRANCH  14  17
HETATM   17  O   UNL     1       8.201  22.754  54.998  1.00  0.00    -0.356 OA
HETATM   18  C   UNL     1       7.721  22.672  53.661  1.00  0.00     0.210 C 
ENDBRANCH  14  17
ENDBRANCH   9  11
ENDBRANCH   2   5
BRANCH   1  19
HETATM   19  N   UNL     1       7.205  32.422  60.919  1.00  0.00    -0.267 N 
HETATM   20  C   UNL     1       6.348  32.671  61.971  1.00  0.00     0.240 C 
HETATM   21  O   UNL     1       5.532  31.833  62.359  1.00  0.00    -0.272 OA
HETATM   22  H   UNL     1       7.838  33.111  60.517  1.00  0.00     0.190 HD
BRANCH  20  23
HETATM   23  C   UNL     1       6.513  34.030  62.617  1.00  0.00     0.143 C 
BRANCH  23  24
HETATM   24  C   UNL     1       6.153  34.109  64.083  1.00  0.00    -0.049 A 
HETATM   25  C   UNL     1       4.880  34.468  64.546  1.00  0.00     0.008 A 
HETATM   26  C   UNL     1       4.614  34.545  65.917  1.00  0.00     0.007 A 
HETATM   27  C   UNL     1       5.619  34.288  66.854  1.00  0.00    -0.062 A 
HETATM   28  C   UNL     1       5.328  34.348  68.324  1.00  0.00     0.048 C 
HETATM   29  C   UNL     1       6.890  33.926  66.399  1.00  0.00     0.007 A 
HETATM   30  C   UNL     1       7.155  33.843  65.030  1.00  0.00     0.008 A 
ENDBRANCH  23  24
ENDBRANCH  20  23
ENDBRANCH   1  19
TORSDOF 6
ENDMDL
MODEL 5
REMARK VINA RESULT:      -8.8      1.596      2.024
REMARK  6 active torsions:
REMARK  status: ('A' for Active; 'I' for Inactive)
REMARK    1  A    between atoms: C_5  and  C_6 
REMARK    2  A    between atoms: C_6  and  C_7 
REMARK       I    between atoms: C_7  and  N_8 
REMARK    3  A    between atoms: N_8  and  N_9 
REMARK       I    between atoms: N_9  and  C_10 
REMARK    4  A    between atoms: C_10  and  C_11 
REMARK    5  A    between atoms: C_15  and  C_16 
REMARK    6  A    between atoms: C_19  and  O_20 
ROOT
HETATM    1  N   UNL     1       6.589  29.254  57.164  1.00  0.00    -0.262 N 
HETATM    2  C   UNL     1       6.316  30.599  57.297  1.00  0.00     0.288 C 
HETATM    3  O   UNL     1       5.714  31.233  56.433  1.00  0.00    -0.264 OA
HETATM    4  H   UNL     1       7.189  28.744  57.810  1.00  0.00     0.190 HD
ENDROOT
BRANCH   2   5
HETATM    5  C   UNL     1       6.792  31.195  58.515  1.00  0.00     0.121 A 
HETATM    6  N   UNL     1       8.114  31.464  58.728  1.00  0.00    -0.272 N 
HETATM    7  H   UNL     1       8.884  31.286  58.090  1.00  0.00     0.189 HD
HETATM    8  N   UNL     1       8.376  32.033  59.915  1.00  0.00    -0.174 NA
HETATM    9  C   UNL     1       7.181  32.125  60.520  1.00  0.00     0.089 A 
HETATM   10  C   UNL     1       6.161  31.616  59.669  1.00  0.00     0.071 A 
BRANCH   9  11
HETATM   11  C   UNL     1       7.027  32.695  61.862  1.00  0.00    -0.005 A 
HETATM   12  C   UNL     1       7.963  32.420  62.867  1.00  0.00     0.016 A 
HETATM   13  C   UNL     1       7.830  32.985  64.140  1.00  0.00     0.037 A 
HETATM   14  C   UNL     1       6.760  33.833  64.434  1.00  0.00     0.068 A 
HETATM   15  C   UNL     1       5.816  34.102  63.446  1.00  0.00     0.037 A 
HETATM   16  C   UNL     1       5.949  33.537  62.170  1.00  0.00     0.016 A 
BRANCH  14  17
HETATM   17  O   UNL     1       6.752  34.326  65.709  1.00  0.00    -0.356 OA
HETATM   18  C   UNL     1       5.535  34.204  66.436  1.00  0.00     0.210 C 
ENDBRANCH  14  17
ENDBRANCH   9  11
ENDBRANCH   2   5
BRANCH   1  19
HETATM   19  N   UNL     1       6.312  28.608  55.956  1.00  0.00    -0.267 N 
HETATM   20  C   UNL     1       7.387  28.193  55.197  1.00  0.00     0.240 C 
HETATM   21  O   UNL     1       8.548  28.310  55.591  1.00  0.00    -0.272 OA
HETATM   22  H   UNL     1       5.345  28.602  55.636  1.00  0.00     0.190 HD
BRANCH  20  23
HETATM   23  C   UNL     1       7.021  27.563  53.870  1.00  0.00     0.143 C 
BRANCH  23  24
HETATM   24  C   UNL     1       7.239  26.070  53.768  1.00  0.00    -0.049 A 
HETATM   25  C   UNL     1       7.065  25.191  54.844  1.00  0.00     0.008 A 
HETATM   26  C   UNL     1       7.303  23.821  54.694  1.00  0.00     0.007 A 
HETATM   27  C   UNL     1       7.743  23.304  53.472  1.00  0.00    -0.062 A 
HETATM   28  C   UNL     1       7.977  21.832  53.304  1.00  0.00     0.048 C 
HETATM   29  C   UNL     1       7.915  24.175  52.393  1.00  0.00     0.007 A 
HETATM   30  C   UNL     1       7.672  25.543  52.541  1.00  0.00     0.008 A 
ENDBRANCH  23  24
ENDBRANCH  20  23
ENDBRANCH   1  19
TORSDOF 6
ENDMDL
MODEL 6
REMARK VINA RESULT:      -8.8      8.224     12.844
REMARK  6 active torsions:
REMARK  status: ('A' for Active; 'I' for Inactive)
REMARK    1  A    between atoms: C_5  and  C_6 
REMARK    2  A    between atoms: C_6  and  C_7 
REMARK       I    between atoms: C_7  and  N_8 
REMARK    3  A    between atoms: N_8  and  N_9 
REMARK       I    between atoms: N_9  and  C_10 
REMARK    4  A    between atoms: C_10  and  C_11 
REMARK    5  A    between atoms: C_15  and  C_16 
REMARK    6  A    between atoms: C_19  and  O_20 
ROOT
HETATM    1  N   UNL     1       4.393  26.748  49.835  1.00  0.00    -0.262 N 
HETATM    2  C   UNL     1       4.232  26.692  48.467  1.00  0.00     0.288 C 
HETATM    3  O   UNL     1       5.131  26.317  47.717  1.00  0.00    -0.264 OA
HETATM    4  H   UNL     1       3.705  27.168  50.456  1.00  0.00     0.190 HD
ENDROOT
BRANCH   2   5
HETATM    5  C   UNL     1       2.941  27.107  47.992  1.00  0.00     0.121 A 
HETATM    6  N   UNL     1       1.792  26.448  48.327  1.00  0.00    -0.272 N 
HETATM    7  H   UNL     1       1.711  25.627  48.920  1.00  0.00     0.189 HD
HETATM    8  N   UNL     1       0.678  26.982  47.805  1.00  0.00    -0.174 NA
HETATM    9  C   UNL     1       1.108  28.025  47.077  1.00  0.00     0.089 A 
HETATM   10  C   UNL     1       2.523  28.140  47.176  1.00  0.00     0.071 A 
BRANCH   9  11
HETATM   11  C   UNL     1       0.189  28.886  46.327  1.00  0.00    -0.005 A 
HETATM   12  C   UNL     1      -0.767  28.333  45.466  1.00  0.00     0.016 A 
HETATM   13  C   UNL     1      -1.661  29.153  44.770  1.00  0.00     0.037 A 
HETATM   14  C   UNL     1      -1.616  30.541  44.918  1.00  0.00     0.068 A 
HETATM   15  C   UNL     1      -0.660  31.103  45.760  1.00  0.00     0.037 A 
HETATM   16  C   UNL     1       0.236  30.282  46.459  1.00  0.00     0.016 A 
BRANCH  14  17
HETATM   17  O   UNL     1      -2.549  31.226  44.191  1.00  0.00    -0.356 OA
HETATM   18  C   UNL     1      -3.071  32.414  44.774  1.00  0.00     0.210 C 
ENDBRANCH  14  17
ENDBRANCH   9  11
ENDBRANCH   2   5
BRANCH   1  19
HETATM   19  N   UNL     1       5.653  26.517  50.393  1.00  0.00    -0.267 N 
HETATM   20  C   UNL     1       5.736  25.594  51.416  1.00  0.00     0.240 C 
HETATM   21  O   UNL     1       4.761  24.935  51.779  1.00  0.00    -0.272 OA
HETATM   22  H   UNL     1       6.412  27.138  50.115  1.00  0.00     0.190 HD
BRANCH  20  23
HETATM   23  C   UNL     1       7.114  25.441  52.024  1.00  0.00     0.143 C 
BRANCH  23  24
HETATM   24  C   UNL     1       7.262  24.338  53.047  1.00  0.00    -0.049 A 
HETATM   25  C   UNL     1       7.001  24.513  54.412  1.00  0.00     0.008 A 
HETATM   26  C   UNL     1       7.178  23.459  55.313  1.00  0.00     0.007 A 
HETATM   27  C   UNL     1       7.642  22.215  54.874  1.00  0.00    -0.062 A 
HETATM   28  C   UNL     1       7.811  21.078  55.838  1.00  0.00     0.048 C 
HETATM   29  C   UNL     1       7.902  22.033  53.513  1.00  0.00     0.007 A 
HETATM   30  C   UNL     1       7.720  23.084  52.612  1.00  0.00     0.008 A 
ENDBRANCH  23  24
ENDBRANCH  20  23
ENDBRANCH   1  19
TORSDOF 6
ENDMDL
MODEL 7
REMARK VINA RESULT:      -8.7      2.681     10.495
REMARK  6 active torsions:
REMARK  status: ('A' for Active; 'I' for Inactive)
REMARK    1  A    between atoms: C_5  and  C_6 
REMARK    2  A    between atoms: C_6  and  C_7 
REMARK       I    between atoms: C_7  and  N_8 
REMARK    3  A    between atoms: N_8  and  N_9 
REMARK       I    between atoms: N_9  and  C_10 
REMARK    4  A    between atoms: C_10  and  C_11 
REMARK    5  A    between atoms: C_15  and  C_16 
REMARK    6  A    between atoms: C_19  and  O_20 
ROOT
HETATM    1  N   UNL     1       5.958  29.824  55.788  1.00  0.00    -0.262 N 
HETATM    2  C   UNL     1       4.880  29.014  55.503  1.00  0.00     0.288 C 
HETATM    3  O   UNL     1       3.722  29.366  55.720  1.00  0.00    -0.264 OA
HETATM    4  H   UNL     1       6.922  29.503  55.728  1.00  0.00     0.190 HD
ENDROOT
BRANCH   2   5
HETATM    5  C   UNL     1       5.215  27.735  54.941  1.00  0.00     0.121 A 
HETATM    6  N   UNL     1       4.508  27.180  53.912  1.00  0.00    -0.272 N 
HETATM    7  H   UNL     1       3.701  27.579  53.442  1.00  0.00     0.189 HD
HETATM    8  N   UNL     1       4.969  25.988  53.506  1.00  0.00    -0.174 NA
HETATM    9  C   UNL     1       6.012  25.733  54.312  1.00  0.00     0.089 A 
HETATM   10  C   UNL     1       6.202  26.810  55.222  1.00  0.00     0.071 A 
BRANCH   9  11
HETATM   11  C   UNL     1       6.803  24.504  54.201  1.00  0.00    -0.005 A 
HETATM   12  C   UNL     1       6.975  23.875  52.961  1.00  0.00     0.016 A 
HETATM   13  C   UNL     1       7.751  22.716  52.851  1.00  0.00     0.037 A 
HETATM   14  C   UNL     1       8.369  22.163  53.974  1.00  0.00     0.068 A 
HETATM   15  C   UNL     1       8.193  22.773  55.215  1.00  0.00     0.037 A 
HETATM   16  C   UNL     1       7.416  23.934  55.326  1.00  0.00     0.016 A 
BRANCH  14  17
HETATM   17  O   UNL     1       9.107  21.039  53.729  1.00  0.00    -0.356 OA
HETATM   18  C   UNL     1       8.805  19.890  54.512  1.00  0.00     0.210 C 
ENDBRANCH  14  17
ENDBRANCH   9  11
ENDBRANCH   2   5
BRANCH   1  19
HETATM   19  N   UNL     1       5.761  31.023  56.478  1.00  0.00    -0.267 N 
HETATM   20  C   UNL     1       6.152  31.066  57.801  1.00  0.00     0.240 C 
HETATM   21  O   UNL     1       6.725  30.119  58.342  1.00  0.00    -0.272 OA
HETATM   22  H   UNL     1       5.217  31.749  56.015  1.00  0.00     0.190 HD
BRANCH  20  23
HETATM   23  C   UNL     1       5.848  32.368  58.511  1.00  0.00     0.143 C 
BRANCH  23  24
HETATM   24  C   UNL     1       6.419  32.506  59.904  1.00  0.00    -0.049 A 
HETATM   25  C   UNL     1       7.785  32.399  60.191  1.00  0.00     0.008 A 
HETATM   26  C   UNL     1       8.251  32.514  61.505  1.00  0.00     0.007 A 
HETATM   27  C   UNL     1       7.359  32.716  62.562  1.00  0.00    -0.062 A 
HETATM   28  C   UNL     1       7.860  32.862  63.968  1.00  0.00     0.048 C 
HETATM   29  C   UNL     1       5.994  32.827  62.282  1.00  0.00     0.007 A 
HETATM   30  C   UNL     1       5.529  32.717  60.970  1.00  0.00     0.008 A 
ENDBRANCH  23  24
ENDBRANCH  20  23
ENDBRANCH   1  19
TORSDOF 6
ENDMDL
MODEL 8
REMARK VINA RESULT:      -8.6      7.120     10.484
REMARK  6 active torsions:
REMARK  status: ('A' for Active; 'I' for Inactive)
REMARK    1  A    between atoms: C_5  and  C_6 
REMARK    2  A    between atoms: C_6  and  C_7 
REMARK       I    between atoms: C_7  and  N_8 
REMARK    3  A    between atoms: N_8  and  N_9 
REMARK       I    between atoms: N_9  and  C_10 
REMARK    4  A    between atoms: C_10  and  C_11 
REMARK    5  A    between atoms: C_15  and  C_16 
REMARK    6  A    between atoms: C_19  and  O_20 
ROOT
HETATM    1  N   UNL     1       4.440  26.853  52.643  1.00  0.00    -0.262 N 
HETATM    2  C   UNL     1       4.855  26.638  51.346  1.00  0.00     0.288 C 
HETATM    3  O   UNL     1       5.428  25.606  51.006  1.00  0.00    -0.264 OA
HETATM    4  H   UNL     1       4.075  27.747  52.966  1.00  0.00     0.190 HD
ENDROOT
BRANCH   2   5
HETATM    5  C   UNL     1       4.571  27.712  50.434  1.00  0.00     0.121 A 
HETATM    6  N   UNL     1       3.303  27.997  50.014  1.00  0.00    -0.272 N 
HETATM    7  H   UNL     1       2.449  27.514  50.278  1.00  0.00     0.189 HD
HETATM    8  N   UNL     1       3.222  29.039  49.174  1.00  0.00    -0.174 NA
HETATM    9  C   UNL     1       4.492  29.449  49.014  1.00  0.00     0.089 A 
HETATM   10  C   UNL     1       5.366  28.643  49.795  1.00  0.00     0.071 A 
BRANCH   9  11
HETATM   11  C   UNL     1       4.845  30.581  48.152  1.00  0.00    -0.005 A 
HETATM   12  C   UNL     1       4.594  30.536  46.775  1.00  0.00     0.016 A 
HETATM   13  C   UNL     1       4.908  31.627  45.957  1.00  0.00     0.037 A 
HETATM   14  C   UNL     1       5.480  32.781  46.497  1.00  0.00     0.068 A 
HETATM   15  C   UNL     1       5.747  32.829  47.864  1.00  0.00     0.037 A 
HETATM   16  C   UNL     1       5.432  31.737  48.684  1.00  0.00     0.016 A 
BRANCH  14  17
HETATM   17  O   UNL     1       5.728  33.776  45.594  1.00  0.00    -0.356 OA
HETATM   18  C   UNL     1       7.006  33.772  44.971  1.00  0.00     0.210 C 
ENDBRANCH  14  17
ENDBRANCH   9  11
ENDBRANCH   2   5
BRANCH   1  19
HETATM   19  N   UNL     1       4.801  25.949  53.645  1.00  0.00    -0.267 N 
HETATM   20  C   UNL     1       5.970  26.197  54.334  1.00  0.00     0.240 C 
HETATM   21  O   UNL     1       6.638  27.213  54.138  1.00  0.00    -0.272 OA
HETATM   22  H   UNL     1       4.261  25.088  53.718  1.00  0.00     0.190 HD
BRANCH  20  23
HETATM   23  C   UNL     1       6.340  25.144  55.357  1.00  0.00     0.143 C 
BRANCH  23  24
HETATM   24  C   UNL     1       6.955  23.879  54.805  1.00  0.00    -0.049 A 
HETATM   25  C   UNL     1       7.312  22.784  55.602  1.00  0.00     0.008 A 
HETATM   26  C   UNL     1       7.898  21.648  55.034  1.00  0.00     0.007 A 
HETATM   27  C   UNL     1       8.161  21.591  53.662  1.00  0.00    -0.062 A 
HETATM   28  C   UNL     1       8.769  20.364  53.050  1.00  0.00     0.048 C 
HETATM   29  C   UNL     1       7.804  22.678  52.861  1.00  0.00     0.007 A 
HETATM   30  C   UNL     1       7.214  23.811  53.426  1.00  0.00     0.008 A 
ENDBRANCH  23  24
ENDBRANCH  20  23
ENDBRANCH   1  19
TORSDOF 6
ENDMDL
MODEL 9
REMARK VINA RESULT:      -8.6      2.416     10.961
REMARK  6 active torsions:
REMARK  status: ('A' for Active; 'I' for Inactive)
REMARK    1  A    between atoms: C_5  and  C_6 
REMARK    2  A    between atoms: C_6  and  C_7 
REMARK       I    between atoms: C_7  and  N_8 
REMARK    3  A    between atoms: N_8  and  N_9 
REMARK       I    between atoms: N_9  and  C_10 
REMARK    4  A    between atoms: C_10  and  C_11 
REMARK    5  A    between atoms: C_15  and  C_16 
REMARK    6  A    between atoms: C_19  and  O_20 
ROOT
HETATM    1  N   UNL     1       6.076  31.751  60.869  1.00  0.00    -0.262 N 
HETATM    2  C   UNL     1       7.376  31.868  60.425  1.00  0.00     0.288 C 
HETATM    3  O   UNL     1       8.126  32.756  60.827  1.00  0.00    -0.264 OA
HETATM    4  H   UNL     1       5.409  31.101  60.459  1.00  0.00     0.190 HD
ENDROOT
BRANCH   2   5
HETATM    5  C   UNL     1       7.779  30.881  59.461  1.00  0.00     0.121 A 
HETATM    6  N   UNL     1       9.074  30.465  59.339  1.00  0.00    -0.272 N 
HETATM    7  H   UNL     1       9.871  30.783  59.883  1.00  0.00     0.189 HD
HETATM    8  N   UNL     1       9.265  29.529  58.397  1.00  0.00    -0.174 NA
HETATM    9  C   UNL     1       8.051  29.333  57.859  1.00  0.00     0.089 A 
HETATM   10  C   UNL     1       7.090  30.159  58.506  1.00  0.00     0.071 A 
BRANCH   9  11
HETATM   11  C   UNL     1       7.823  28.376  56.772  1.00  0.00    -0.005 A 
HETATM   12  C   UNL     1       7.825  26.998  57.021  1.00  0.00     0.016 A 
HETATM   13  C   UNL     1       7.582  26.086  55.988  1.00  0.00     0.037 A 
HETATM   14  C   UNL     1       7.335  26.532  54.688  1.00  0.00     0.068 A 
HETATM   15  C   UNL     1       7.346  27.900  54.426  1.00  0.00     0.037 A 
HETATM   16  C   UNL     1       7.588  28.815  55.461  1.00  0.00     0.016 A 
BRANCH  14  17
HETATM   17  O   UNL     1       7.103  25.541  53.776  1.00  0.00    -0.356 OA
HETATM   18  C   UNL     1       7.551  24.235  54.118  1.00  0.00     0.210 C 
ENDBRANCH  14  17
ENDBRANCH   9  11
ENDBRANCH   2   5
BRANCH   1  19
HETATM   19  N   UNL     1       5.531  32.745  61.685  1.00  0.00    -0.267 N 
HETATM   20  C   UNL     1       4.931  32.343  62.861  1.00  0.00     0.240 C 
HETATM   21  O   UNL     1       4.938  31.167  63.227  1.00  0.00    -0.272 OA
HETATM   22  H   UNL     1       5.481  33.690  61.307  1.00  0.00     0.190 HD
BRANCH  20  23
HETATM   23  C   UNL     1       4.300  33.459  63.666  1.00  0.00     0.143 C 
BRANCH  23  24
HETATM   24  C   UNL     1       4.945  33.754  65.001  1.00  0.00    -0.049 A 
HETATM   25  C   UNL     1       4.219  34.077  66.154  1.00  0.00     0.008 A 
HETATM   26  C   UNL     1       4.876  34.362  67.355  1.00  0.00     0.007 A 
HETATM   27  C   UNL     1       6.272  34.352  67.425  1.00  0.00    -0.062 A 
HETATM   28  C   UNL     1       6.976  34.635  68.719  1.00  0.00     0.048 C 
HETATM   29  C   UNL     1       7.002  34.027  66.279  1.00  0.00     0.007 A 
HETATM   30  C   UNL     1       6.347  33.737  65.080  1.00  0.00     0.008 A 
ENDBRANCH  23  24
ENDBRANCH  20  23
ENDBRANCH   1  19
TORSDOF 6
ENDMDL
MODEL 10
REMARK VINA RESULT:      -8.5      2.564     10.377
REMARK  6 active torsions:
REMARK  status: ('A' for Active; 'I' for Inactive)
REMARK    1  A    between atoms: C_5  and  C_6 
REMARK    2  A    between atoms: C_6  and  C_7 
REMARK       I    between atoms: C_7  and  N_8 
REMARK    3  A    between atoms: N_8  and  N_9 
REMARK       I    between atoms: N_9  and  C_10 
REMARK    4  A    between atoms: C_10  and  C_11 
REMARK    5  A    between atoms: C_15  and  C_16 
REMARK    6  A    between atoms: C_19  and  O_20 
ROOT
HETATM    1  N   UNL     1       6.120  30.320  56.941  1.00  0.00    -0.262 N 
HETATM    2  C   UNL     1       7.003  29.324  57.299  1.00  0.00     0.288 C 
HETATM    3  O   UNL     1       7.713  29.407  58.298  1.00  0.00    -0.264 OA
HETATM    4  H   UNL     1       5.616  30.321  56.056  1.00  0.00     0.190 HD
ENDROOT
BRANCH   2   5
HETATM    5  C   UNL     1       7.029  28.192  56.413  1.00  0.00     0.121 A 
HETATM    6  N   UNL     1       6.635  28.276  55.108  1.00  0.00    -0.272 N 
HETATM    7  H   UNL     1       6.292  29.101  54.627  1.00  0.00     0.189 HD
HETATM    8  N   UNL     1       6.738  27.125  54.427  1.00  0.00    -0.174 NA
HETATM    9  C   UNL     1       7.201  26.238  55.322  1.00  0.00     0.089 A 
HETATM   10  C   UNL     1       7.403  26.872  56.580  1.00  0.00     0.071 A 
BRANCH   9  11
HETATM   11  C   UNL     1       7.451  24.836  54.975  1.00  0.00    -0.005 A 
HETATM   12  C   UNL     1       7.280  23.822  55.927  1.00  0.00     0.016 A 
HETATM   13  C   UNL     1       7.494  22.482  55.588  1.00  0.00     0.037 A 
HETATM   14  C   UNL     1       7.885  22.128  54.295  1.00  0.00     0.068 A 
HETATM   15  C   UNL     1       8.073  23.129  53.345  1.00  0.00     0.037 A 
HETATM   16  C   UNL     1       7.858  24.473  53.683  1.00  0.00     0.016 A 
BRANCH  14  17
HETATM   17  O   UNL     1       8.051  20.786  54.092  1.00  0.00    -0.356 OA
HETATM   18  C   UNL     1       8.337  20.369  52.763  1.00  0.00     0.210 C 
ENDBRANCH  14  17
ENDBRANCH   9  11
ENDBRANCH   2   5
BRANCH   1  19
HETATM   19  N   UNL     1       6.122  31.531  57.638  1.00  0.00    -0.267 N 
HETATM   20  C   UNL     1       5.038  31.800  58.448  1.00  0.00     0.240 C 
HETATM   21  O   UNL     1       4.134  30.982  58.620  1.00  0.00    -0.272 OA
HETATM   22  H   UNL     1       6.850  32.206  57.407  1.00  0.00     0.190 HD
BRANCH  20  23
HETATM   23  C   UNL     1       5.069  33.156  59.121  1.00  0.00     0.143 C 
BRANCH  23  24
HETATM   24  C   UNL     1       5.699  33.194  60.494  1.00  0.00    -0.049 A 
HETATM   25  C   UNL     1       5.305  34.087  61.499  1.00  0.00     0.008 A 
HETATM   26  C   UNL     1       5.941  34.089  62.744  1.00  0.00     0.007 A 
HETATM   27  C   UNL     1       7.000  33.214  63.004  1.00  0.00    -0.062 A 
HETATM   28  C   UNL     1       7.669  33.201  64.347  1.00  0.00     0.048 C 
HETATM   29  C   UNL     1       7.397  32.318  62.008  1.00  0.00     0.007 A 
HETATM   30  C   UNL     1       6.757  32.313  60.766  1.00  0.00     0.008 A 
ENDBRANCH  23  24
ENDBRANCH  20  23
ENDBRANCH   1  19
TORSDOF 6
ENDMDL
