MODEL 1
REMARK VINA RESULT:      -9.3      0.000      0.000
REMARK  2 active torsions:
REMARK  status: ('A' for Active; 'I' for Inactive)
REMARK    1  A    between atoms: C_2  and  N_3 
REMARK    2  A    between atoms: N_3  and  C_4 
ROOT
HETATM    1  C   UNL     1       5.771  25.900  55.124  1.00  0.00     0.143 A 
HETATM    2  N   UNL     1       5.518  26.903  56.000  1.00  0.00    -0.223 NA
HETATM    3  C   UNL     1       6.258  27.025  57.107  1.00  0.00     0.236 A 
HETATM    4  N   UNL     1       7.263  26.246  57.493  1.00  0.00    -0.234 NA
HETATM    5  C   UNL     1       7.512  25.262  56.616  1.00  0.00     0.114 A 
HETATM    6  C   UNL     1       6.852  25.022  55.414  1.00  0.00     0.053 A 
HETATM    7  S   UNL     1       8.746  24.137  56.945  1.00  0.00    -0.073 SA
HETATM    8  C   UNL     1       8.444  23.295  55.505  1.00  0.00    -0.008 A 
HETATM    9  C   UNL     1       7.445  23.876  54.740  1.00  0.00    -0.028 A 
HETATM   10  C   UNL     1       7.057  23.289  53.410  1.00  0.00     0.041 C 
HETATM   11  C   UNL     1       8.068  22.250  52.900  1.00  0.00     0.005 C 
HETATM   12  C   UNL     1       8.526  21.303  54.014  1.00  0.00     0.005 C 
HETATM   13  C   UNL     1       9.230  22.074  55.137  1.00  0.00     0.047 C 
ENDROOT
BRANCH   1  14
HETATM   14  N   UNL     1       4.984  25.767  53.968  1.00  0.00    -0.340 N 
HETATM   15  H   UNL     1       4.120  25.275  54.121  1.00  0.00     0.167 HD
BRANCH  14  16
HETATM   16  C   UNL     1       5.039  26.400  52.711  1.00  0.00     0.036 A 
HETATM   17  C   UNL     1       4.981  25.594  51.560  1.00  0.00     0.032 A 
HETATM   18  C   UNL     1       5.033  26.148  50.278  1.00  0.00     0.042 A 
HETATM   19  C   UNL     1       5.150  27.523  50.126  1.00  0.00     0.102 A 
HETATM   20  C   UNL     1       5.262  28.337  51.255  1.00  0.00     0.104 A 
HETATM   21  O   UNL     1       5.155  28.008  48.844  1.00  0.00    -0.346 OA
HETATM   22  C   UNL     1       5.204  27.778  52.535  1.00  0.00     0.069 A 
HETATM   23  O   UNL     1       5.415  29.700  51.185  1.00  0.00    -0.346 OA
HETATM   24  C   UNL     1       5.783  30.118  49.866  1.00  0.00     0.202 C 
HETATM   25  C   UNL     1       4.924  29.421  48.824  1.00  0.00     0.202 C 
ENDBRANCH  14  16
ENDBRANCH   1  14
TORSDOF 2
ENDMDL
MODEL 2
REMARK VINA RESULT:      -9.0      4.150      6.569
REMARK  2 active torsions:
REMARK  status: ('A' for Active; 'I' for Inactive)
REMARK    1  A    between atoms: C_2  and  N_3 
REMARK    2  A    between atoms: N_3  and  C_4 
ROOT
HETATM    1  C   UNL     1       6.918  27.269  55.452  1.00  0.00     0.143 A 
HETATM    2  N   UNL     1       6.072  28.303  55.221  1.00  0.00    -0.223 NA
HETATM    3  C   UNL     1       5.137  28.200  54.271  1.00  0.00     0.236 A 
HETATM    4  N   UNL     1       4.914  27.165  53.469  1.00  0.00    -0.234 NA
HETATM    5  C   UNL     1       5.749  26.142  53.711  1.00  0.00     0.114 A 
HETATM    6  C   UNL     1       6.749  26.088  54.677  1.00  0.00     0.053 A 
HETATM    7  S   UNL     1       5.644  24.731  52.767  1.00  0.00    -0.073 SA
HETATM    8  C   UNL     1       6.922  24.001  53.608  1.00  0.00    -0.008 A 
HETATM    9  C   UNL     1       7.411  24.791  54.636  1.00  0.00    -0.028 A 
HETATM   10  C   UNL     1       8.527  24.300  55.517  1.00  0.00     0.041 C 
HETATM   11  C   UNL     1       8.795  22.795  55.356  1.00  0.00     0.005 C 
HETATM   12  C   UNL     1       8.777  22.365  53.886  1.00  0.00     0.005 C 
HETATM   13  C   UNL     1       7.407  22.630  53.250  1.00  0.00     0.047 C 
ENDROOT
BRANCH   1  14
HETATM   14  N   UNL     1       7.907  27.383  56.442  1.00  0.00    -0.340 N 
HETATM   15  H   UNL     1       8.446  26.544  56.575  1.00  0.00     0.167 HD
BRANCH  14  16
HETATM   16  C   UNL     1       8.461  28.499  57.097  1.00  0.00     0.036 A 
HETATM   17  C   UNL     1       9.581  29.121  56.517  1.00  0.00     0.032 A 
HETATM   18  C   UNL     1      10.189  30.231  57.109  1.00  0.00     0.042 A 
HETATM   19  C   UNL     1       9.687  30.737  58.302  1.00  0.00     0.102 A 
HETATM   20  C   UNL     1       8.609  30.102  58.922  1.00  0.00     0.104 A 
HETATM   21  O   UNL     1      10.302  31.851  58.811  1.00  0.00    -0.346 OA
HETATM   22  C   UNL     1       8.002  28.996  58.322  1.00  0.00     0.069 A 
HETATM   23  O   UNL     1       8.080  30.522  60.118  1.00  0.00    -0.346 OA
HETATM   24  C   UNL     1       8.958  31.432  60.789  1.00  0.00     0.202 C 
HETATM   25  C   UNL     1       9.496  32.471  59.819  1.00  0.00     0.202 C 
ENDBRANCH  14  16
ENDBRANCH   1  14
TORSDOF 2
ENDMDL
MODEL 3
REMARK VINA RESULT:      -9.0      3.846      6.897
REMARK  2 active torsions:
REMARK  status: ('A' for Active; 'I' for Inactive)
REMARK    1  A    between atoms: C_2  and  N_3 
REMARK    2  A    between atoms: N_3  and  C_4 
ROOT
HETATM    1  C   UNL     1       6.333  26.983  53.950  1.00  0.00     0.143 A 
HETATM    2  N   UNL     1       5.324  26.776  53.069  1.00  0.00    -0.223 NA
HETATM    3  C   UNL     1       4.209  27.511  53.146  1.00  0.00     0.236 A 
HETATM    4  N   UNL     1       3.937  28.468  54.027  1.00  0.00    -0.234 NA
HETATM    5  C   UNL     1       4.944  28.672  54.889  1.00  0.00     0.114 A 
HETATM    6  C   UNL     1       6.169  28.012  54.918  1.00  0.00     0.053 A 
HETATM    7  S   UNL     1       4.777  29.840  56.115  1.00  0.00    -0.073 SA
HETATM    8  C   UNL     1       6.323  29.506  56.726  1.00  0.00    -0.008 A 
HETATM    9  C   UNL     1       6.998  28.548  55.988  1.00  0.00    -0.028 A 
HETATM   10  C   UNL     1       8.399  28.141  56.357  1.00  0.00     0.041 C 
HETATM   11  C   UNL     1       9.051  29.099  57.368  1.00  0.00     0.005 C 
HETATM   12  C   UNL     1       8.082  29.495  58.487  1.00  0.00     0.005 C 
HETATM   13  C   UNL     1       6.859  30.228  57.924  1.00  0.00     0.047 C 
ENDROOT
BRANCH   1  14
HETATM   14  N   UNL     1       7.498  26.201  53.873  1.00  0.00    -0.340 N 
HETATM   15  H   UNL     1       8.348  26.740  53.878  1.00  0.00     0.167 HD
BRANCH  14  16
HETATM   16  C   UNL     1       7.722  24.823  54.050  1.00  0.00     0.036 A 
HETATM   17  C   UNL     1       7.629  23.986  52.923  1.00  0.00     0.032 A 
HETATM   18  C   UNL     1       7.835  22.607  53.018  1.00  0.00     0.042 A 
HETATM   19  C   UNL     1       8.134  22.039  54.250  1.00  0.00     0.102 A 
HETATM   20  C   UNL     1       8.179  22.844  55.390  1.00  0.00     0.104 A 
HETATM   21  O   UNL     1       8.364  20.688  54.270  1.00  0.00    -0.346 OA
HETATM   22  C   UNL     1       7.978  24.223  55.287  1.00  0.00     0.069 A 
HETATM   23  O   UNL     1       8.434  22.350  56.646  1.00  0.00    -0.346 OA
HETATM   24  C   UNL     1       8.301  20.926  56.686  1.00  0.00     0.202 C 
HETATM   25  C   UNL     1       8.996  20.289  55.493  1.00  0.00     0.202 C 
ENDBRANCH  14  16
ENDBRANCH   1  14
TORSDOF 2
ENDMDL
MODEL 4
REMARK VINA RESULT:      -8.7      8.082     11.302
REMARK  2 active torsions:
REMARK  status: ('A' for Active; 'I' for Inactive)
REMARK    1  A    between atoms: C_2  and  N_3 
REMARK    2  A    between atoms: N_3  and  C_4 
ROOT
HETATM    1  C   UNL     1       5.395  32.950  60.220  1.00  0.00     0.143 A 
HETATM    2  N   UNL     1       4.671  33.299  59.129  1.00  0.00    -0.223 NA
HETATM    3  C   UNL     1       3.886  34.381  59.166  1.00  0.00     0.236 A 
HETATM    4  N   UNL     1       3.702  35.206  60.191  1.00  0.00    -0.234 NA
HETATM    5  C   UNL     1       4.430  34.859  61.264  1.00  0.00     0.114 A 
HETATM    6  C   UNL     1       5.307  33.784  61.369  1.00  0.00     0.053 A 
HETATM    7  S   UNL     1       4.310  35.777  62.692  1.00  0.00    -0.073 SA
HETATM    8  C   UNL     1       5.418  34.777  63.497  1.00  0.00    -0.008 A 
HETATM    9  C   UNL     1       5.924  33.772  62.688  1.00  0.00    -0.028 A 
HETATM   10  C   UNL     1       6.946  32.803  63.217  1.00  0.00     0.041 C 
HETATM   11  C   UNL     1       7.557  33.253  64.554  1.00  0.00     0.005 C 
HETATM   12  C   UNL     1       6.495  33.795  65.515  1.00  0.00     0.005 C 
HETATM   13  C   UNL     1       5.794  35.025  64.925  1.00  0.00     0.047 C 
ENDROOT
BRANCH   1  14
HETATM   14  N   UNL     1       6.209  31.807  60.182  1.00  0.00    -0.340 N 
HETATM   15  H   UNL     1       5.757  30.975  60.522  1.00  0.00     0.167 HD
BRANCH  14  16
HETATM   16  C   UNL     1       7.429  31.538  59.532  1.00  0.00     0.036 A 
HETATM   17  C   UNL     1       8.570  32.252  59.941  1.00  0.00     0.032 A 
HETATM   18  C   UNL     1       9.815  32.043  59.341  1.00  0.00     0.042 A 
HETATM   19  C   UNL     1       9.939  31.117  58.314  1.00  0.00     0.102 A 
HETATM   20  C   UNL     1       8.808  30.436  57.857  1.00  0.00     0.104 A 
HETATM   21  O   UNL     1      11.193  30.929  57.795  1.00  0.00    -0.346 OA
HETATM   22  C   UNL     1       7.567  30.645  58.464  1.00  0.00     0.069 A 
HETATM   23  O   UNL     1       8.845  29.532  56.824  1.00  0.00    -0.346 OA
HETATM   24  C   UNL     1      10.063  29.636  56.080  1.00  0.00     0.202 C 
HETATM   25  C   UNL     1      11.257  29.729  57.016  1.00  0.00     0.202 C 
ENDBRANCH  14  16
ENDBRANCH   1  14
TORSDOF 2
ENDMDL
MODEL 5
REMARK VINA RESULT:      -8.7      3.531      6.790
REMARK  2 active torsions:
REMARK  status: ('A' for Active; 'I' for Inactive)
REMARK    1  A    between atoms: C_2  and  N_3 
REMARK    2  A    between atoms: N_3  and  C_4 
ROOT
HETATM    1  C   UNL     1       6.668  26.975  54.370  1.00  0.00     0.143 A 
HETATM    2  N   UNL     1       6.765  27.324  55.676  1.00  0.00    -0.223 NA
HETATM    3  C   UNL     1       5.906  28.207  56.197  1.00  0.00     0.236 A 
HETATM    4  N   UNL     1       4.916  28.832  55.569  1.00  0.00    -0.234 NA
HETATM    5  C   UNL     1       4.821  28.474  54.280  1.00  0.00     0.114 A 
HETATM    6  C   UNL     1       5.618  27.554  53.605  1.00  0.00     0.053 A 
HETATM    7  S   UNL     1       3.631  29.187  53.295  1.00  0.00    -0.073 SA
HETATM    8  C   UNL     1       4.135  28.300  51.941  1.00  0.00    -0.008 A 
HETATM    9  C   UNL     1       5.171  27.426  52.225  1.00  0.00    -0.028 A 
HETATM   10  C   UNL     1       5.733  26.529  51.156  1.00  0.00     0.041 C 
HETATM   11  C   UNL     1       4.848  26.471  49.901  1.00  0.00     0.005 C 
HETATM   12  C   UNL     1       4.332  27.857  49.500  1.00  0.00     0.005 C 
HETATM   13  C   UNL     1       3.468  28.466  50.610  1.00  0.00     0.047 C 
ENDROOT
BRANCH   1  14
HETATM   14  N   UNL     1       7.579  26.057  53.824  1.00  0.00    -0.340 N 
HETATM   15  H   UNL     1       8.372  26.488  53.380  1.00  0.00     0.167 HD
BRANCH  14  16
HETATM   16  C   UNL     1       7.736  24.668  53.993  1.00  0.00     0.036 A 
HETATM   17  C   UNL     1       7.566  23.839  52.870  1.00  0.00     0.032 A 
HETATM   18  C   UNL     1       7.703  22.451  52.959  1.00  0.00     0.042 A 
HETATM   19  C   UNL     1       8.006  21.866  54.182  1.00  0.00     0.102 A 
HETATM   20  C   UNL     1       8.127  22.666  55.321  1.00  0.00     0.104 A 
HETATM   21  O   UNL     1       8.166  20.505  54.196  1.00  0.00    -0.346 OA
HETATM   22  C   UNL     1       7.995  24.053  55.223  1.00  0.00     0.069 A 
HETATM   23  O   UNL     1       8.391  22.158  56.569  1.00  0.00    -0.346 OA
HETATM   24  C   UNL     1       8.186  20.742  56.612  1.00  0.00     0.202 C 
HETATM   25  C   UNL     1       8.811  20.072  55.400  1.00  0.00     0.202 C 
ENDBRANCH  14  16
ENDBRANCH   1  14
TORSDOF 2
ENDMDL
MODEL 6
REMARK VINA RESULT:      -8.5      1.592      2.184
REMARK  2 active torsions:
REMARK  status: ('A' for Active; 'I' for Inactive)
REMARK    1  A    between atoms: C_2  and  N_3 
REMARK    2  A    between atoms: N_3  and  C_4 
ROOT
HETATM    1  C   UNL     1       5.788  26.684  53.123  1.00  0.00     0.143 A 
HETATM    2  N   UNL     1       5.140  27.793  53.555  1.00  0.00    -0.223 NA
HETATM    3  C   UNL     1       4.891  27.954  54.859  1.00  0.00     0.236 A 
HETATM    4  N   UNL     1       5.204  27.123  55.847  1.00  0.00    -0.234 NA
HETATM    5  C   UNL     1       5.853  26.032  55.411  1.00  0.00     0.114 A 
HETATM    6  C   UNL     1       6.207  25.737  54.098  1.00  0.00     0.053 A 
HETATM    7  S   UNL     1       6.315  24.830  56.522  1.00  0.00    -0.073 SA
HETATM    8  C   UNL     1       6.999  23.877  55.298  1.00  0.00    -0.008 A 
HETATM    9  C   UNL     1       6.929  24.473  54.049  1.00  0.00    -0.028 A 
HETATM   10  C   UNL     1       7.512  23.793  52.840  1.00  0.00     0.041 C 
HETATM   11  C   UNL     1       8.423  22.610  53.204  1.00  0.00     0.005 C 
HETATM   12  C   UNL     1       7.820  21.743  54.314  1.00  0.00     0.005 C 
HETATM   13  C   UNL     1       7.627  22.552  55.602  1.00  0.00     0.047 C 
ENDROOT
BRANCH   1  14
HETATM   14  N   UNL     1       6.038  26.511  51.751  1.00  0.00    -0.340 N 
HETATM   15  H   UNL     1       6.716  25.795  51.550  1.00  0.00     0.167 HD
BRANCH  14  16
HETATM   16  C   UNL     1       5.351  26.952  50.604  1.00  0.00     0.036 A 
HETATM   17  C   UNL     1       4.610  26.008  49.872  1.00  0.00     0.032 A 
HETATM   18  C   UNL     1       3.903  26.368  48.720  1.00  0.00     0.042 A 
HETATM   19  C   UNL     1       3.933  27.685  48.278  1.00  0.00     0.102 A 
HETATM   20  C   UNL     1       4.706  28.626  48.960  1.00  0.00     0.104 A 
HETATM   21  O   UNL     1       3.188  27.982  47.166  1.00  0.00    -0.346 OA
HETATM   22  C   UNL     1       5.404  28.261  50.114  1.00  0.00     0.069 A 
HETATM   23  O   UNL     1       4.812  29.937  48.564  1.00  0.00    -0.346 OA
HETATM   24  C   UNL     1       4.337  30.120  47.227  1.00  0.00     0.202 C 
HETATM   25  C   UNL     1       3.016  29.397  47.023  1.00  0.00     0.202 C 
ENDBRANCH  14  16
ENDBRANCH   1  14
TORSDOF 2
ENDMDL
MODEL 7
REMARK VINA RESULT:      -8.4      4.164      6.825
REMARK  2 active torsions:
REMARK  status: ('A' for Active; 'I' for Inactive)
REMARK    1  A    between atoms: C_2  and  N_3 
REMARK    2  A    between atoms: N_3  and  C_4 
ROOT
HETATM    1  C   UNL     1       7.960  26.225  56.593  1.00  0.00     0.143 A 
HETATM    2  N   UNL     1       8.606  25.670  57.647  1.00  0.00    -0.223 NA
HETATM    3  C   UNL     1       8.855  24.356  57.662  1.00  0.00     0.236 A 
HETATM    4  N   UNL     1       8.528  23.465  56.732  1.00  0.00    -0.234 NA
HETATM    5  C   UNL     1       7.897  24.024  55.688  1.00  0.00     0.114 A 
HETATM    6  C   UNL     1       7.593  25.371  55.516  1.00  0.00     0.053 A 
HETATM    7  S   UNL     1       7.369  23.043  54.402  1.00  0.00    -0.073 SA
HETATM    8  C   UNL     1       6.719  24.372  53.575  1.00  0.00    -0.008 A 
HETATM    9  C   UNL     1       6.932  25.573  54.234  1.00  0.00    -0.028 A 
HETATM   10  C   UNL     1       6.455  26.870  53.639  1.00  0.00     0.041 C 
HETATM   11  C   UNL     1       6.042  26.732  52.165  1.00  0.00     0.005 C 
HETATM   12  C   UNL     1       5.218  25.465  51.917  1.00  0.00     0.005 C 
HETATM   13  C   UNL     1       6.025  24.207  52.258  1.00  0.00     0.047 C 
ENDROOT
BRANCH   1  14
HETATM   14  N   UNL     1       7.690  27.603  56.586  1.00  0.00    -0.340 N 
HETATM   15  H   UNL     1       6.813  27.842  56.153  1.00  0.00     0.167 HD
BRANCH  14  16
HETATM   16  C   UNL     1       8.269  28.682  57.281  1.00  0.00     0.036 A 
HETATM   17  C   UNL     1       9.477  29.211  56.796  1.00  0.00     0.032 A 
HETATM   18  C   UNL     1      10.114  30.280  57.433  1.00  0.00     0.042 A 
HETATM   19  C   UNL     1       9.552  30.834  58.577  1.00  0.00     0.102 A 
HETATM   20  C   UNL     1       8.381  30.289  59.105  1.00  0.00     0.104 A 
HETATM   21  O   UNL     1      10.203  31.905  59.132  1.00  0.00    -0.346 OA
HETATM   22  C   UNL     1       7.746  29.224  58.460  1.00  0.00     0.069 A 
HETATM   23  O   UNL     1       7.785  30.759  60.249  1.00  0.00    -0.346 OA
HETATM   24  C   UNL     1       8.669  31.608  60.989  1.00  0.00     0.202 C 
HETATM   25  C   UNL     1       9.363  32.595  60.064  1.00  0.00     0.202 C 
ENDBRANCH  14  16
ENDBRANCH   1  14
TORSDOF 2
ENDMDL
MODEL 8
REMARK VINA RESULT:      -8.4      3.591      6.898
REMARK  2 active torsions:
REMARK  status: ('A' for Active; 'I' for Inactive)
REMARK    1  A    between atoms: C_2  and  N_3 
REMARK    2  A    between atoms: N_3  and  C_4 
ROOT
HETATM    1  C   UNL     1       4.162  27.594  52.927  1.00  0.00     0.143 A 
HETATM    2  N   UNL     1       3.952  28.331  54.045  1.00  0.00    -0.223 NA
HETATM    3  C   UNL     1       3.824  29.659  53.956  1.00  0.00     0.236 A 
HETATM    4  N   UNL     1       3.885  30.400  52.855  1.00  0.00    -0.234 NA
HETATM    5  C   UNL     1       4.083  29.662  51.752  1.00  0.00     0.114 A 
HETATM    6  C   UNL     1       4.208  28.278  51.681  1.00  0.00     0.053 A 
HETATM    7  S   UNL     1       4.220  30.432  50.240  1.00  0.00    -0.073 SA
HETATM    8  C   UNL     1       4.451  28.953  49.442  1.00  0.00    -0.008 A 
HETATM    9  C   UNL     1       4.381  27.864  50.296  1.00  0.00    -0.028 A 
HETATM   10  C   UNL     1       4.530  26.464  49.766  1.00  0.00     0.041 C 
HETATM   11  C   UNL     1       4.432  26.393  48.234  1.00  0.00     0.005 C 
HETATM   12  C   UNL     1       5.219  27.520  47.558  1.00  0.00     0.005 C 
HETATM   13  C   UNL     1       4.671  28.894  47.962  1.00  0.00     0.047 C 
ENDROOT
BRANCH   1  14
HETATM   14  N   UNL     1       4.308  26.201  53.026  1.00  0.00    -0.340 N 
HETATM   15  H   UNL     1       3.608  25.683  52.523  1.00  0.00     0.167 HD
BRANCH  14  16
HETATM   16  C   UNL     1       5.373  25.393  53.469  1.00  0.00     0.036 A 
HETATM   17  C   UNL     1       6.040  24.597  52.520  1.00  0.00     0.032 A 
HETATM   18  C   UNL     1       7.105  23.767  52.883  1.00  0.00     0.042 A 
HETATM   19  C   UNL     1       7.517  23.715  54.209  1.00  0.00     0.102 A 
HETATM   20  C   UNL     1       6.834  24.457  55.175  1.00  0.00     0.104 A 
HETATM   21  O   UNL     1       8.591  22.912  54.493  1.00  0.00    -0.346 OA
HETATM   22  C   UNL     1       5.775  25.289  54.805  1.00  0.00     0.069 A 
HETATM   23  O   UNL     1       7.161  24.430  56.508  1.00  0.00    -0.346 OA
HETATM   24  C   UNL     1       8.019  23.327  56.815  1.00  0.00     0.202 C 
HETATM   25  C   UNL     1       9.131  23.210  55.786  1.00  0.00     0.202 C 
ENDBRANCH  14  16
ENDBRANCH   1  14
TORSDOF 2
ENDMDL
MODEL 9
REMARK VINA RESULT:      -8.3      3.710      6.813
REMARK  2 active torsions:
REMARK  status: ('A' for Active; 'I' for Inactive)
REMARK    1  A    between atoms: C_2  and  N_3 
REMARK    2  A    between atoms: N_3  and  C_4 
ROOT
HETATM    1  C   UNL     1       7.225  27.106  55.482  1.00  0.00     0.143 A 
HETATM    2  N   UNL     1       8.004  26.968  56.583  1.00  0.00    -0.223 NA
HETATM    3  C   UNL     1       7.837  27.787  57.626  1.00  0.00     0.236 A 
HETATM    4  N   UNL     1       6.964  28.783  57.735  1.00  0.00    -0.234 NA
HETATM    5  C   UNL     1       6.190  28.906  56.646  1.00  0.00     0.114 A 
HETATM    6  C   UNL     1       6.225  28.118  55.500  1.00  0.00     0.053 A 
HETATM    7  S   UNL     1       5.025  30.145  56.579  1.00  0.00    -0.073 SA
HETATM    8  C   UNL     1       4.531  29.677  55.026  1.00  0.00    -0.008 A 
HETATM    9  C   UNL     1       5.202  28.558  54.561  1.00  0.00    -0.028 A 
HETATM   10  C   UNL     1       4.878  27.972  53.214  1.00  0.00     0.041 C 
HETATM   11  C   UNL     1       3.573  28.528  52.622  1.00  0.00     0.005 C 
HETATM   12  C   UNL     1       3.460  30.045  52.809  1.00  0.00     0.005 C 
HETATM   13  C   UNL     1       3.452  30.417  54.297  1.00  0.00     0.047 C 
ENDROOT
BRANCH   1  14
HETATM   14  N   UNL     1       7.411  26.252  54.383  1.00  0.00    -0.340 N 
HETATM   15  H   UNL     1       7.647  26.733  53.531  1.00  0.00     0.167 HD
BRANCH  14  16
HETATM   16  C   UNL     1       7.586  24.858  54.290  1.00  0.00     0.036 A 
HETATM   17  C   UNL     1       7.568  24.271  53.012  1.00  0.00     0.032 A 
HETATM   18  C   UNL     1       7.732  22.894  52.839  1.00  0.00     0.042 A 
HETATM   19  C   UNL     1       7.911  22.076  53.948  1.00  0.00     0.102 A 
HETATM   20  C   UNL     1       7.880  22.632  55.229  1.00  0.00     0.104 A 
HETATM   21  O   UNL     1       8.107  20.741  53.709  1.00  0.00    -0.346 OA
HETATM   22  C   UNL     1       7.722  24.010  55.395  1.00  0.00     0.069 A 
HETATM   23  O   UNL     1       8.016  21.885  56.373  1.00  0.00    -0.346 OA
HETATM   24  C   UNL     1       7.846  20.488  56.109  1.00  0.00     0.202 C 
HETATM   25  C   UNL     1       8.623  20.078  54.869  1.00  0.00     0.202 C 
ENDBRANCH  14  16
ENDBRANCH   1  14
TORSDOF 2
ENDMDL
MODEL 10
REMARK VINA RESULT:      -8.1      3.605      6.230
REMARK  2 active torsions:
REMARK  status: ('A' for Active; 'I' for Inactive)
REMARK    1  A    between atoms: C_2  and  N_3 
REMARK    2  A    between atoms: N_3  and  C_4 
ROOT
HETATM    1  C   UNL     1       4.490  27.895  54.368  1.00  0.00     0.143 A 
HETATM    2  N   UNL     1       3.725  28.874  53.826  1.00  0.00    -0.223 NA
HETATM    3  C   UNL     1       3.560  28.936  52.501  1.00  0.00     0.236 A 
HETATM    4  N   UNL     1       4.081  28.125  51.587  1.00  0.00    -0.234 NA
HETATM    5  C   UNL     1       4.830  27.154  52.132  1.00  0.00     0.114 A 
HETATM    6  C   UNL     1       5.072  26.943  53.486  1.00  0.00     0.053 A 
HETATM    7  S   UNL     1       5.611  26.029  51.122  1.00  0.00    -0.073 SA
HETATM    8  C   UNL     1       6.296  25.225  52.449  1.00  0.00    -0.008 A 
HETATM    9  C   UNL     1       5.909  25.765  53.664  1.00  0.00    -0.028 A 
HETATM   10  C   UNL     1       6.390  25.166  54.958  1.00  0.00     0.041 C 
HETATM   11  C   UNL     1       7.034  23.783  54.771  1.00  0.00     0.005 C 
HETATM   12  C   UNL     1       7.965  23.745  53.554  1.00  0.00     0.005 C 
HETATM   13  C   UNL     1       7.194  24.041  52.262  1.00  0.00     0.047 C 
ENDROOT
BRANCH   1  14
HETATM   14  N   UNL     1       4.671  27.840  55.759  1.00  0.00    -0.340 N 
HETATM   15  H   UNL     1       4.133  27.119  56.210  1.00  0.00     0.167 HD
BRANCH  14  16
HETATM   16  C   UNL     1       5.637  28.413  56.609  1.00  0.00     0.036 A 
HETATM   17  C   UNL     1       6.684  27.594  57.070  1.00  0.00     0.032 A 
HETATM   18  C   UNL     1       7.679  28.089  57.918  1.00  0.00     0.042 A 
HETATM   19  C   UNL     1       7.638  29.416  58.326  1.00  0.00     0.102 A 
HETATM   20  C   UNL     1       6.579  30.232  57.923  1.00  0.00     0.104 A 
HETATM   21  O   UNL     1       8.664  29.850  59.125  1.00  0.00    -0.346 OA
HETATM   22  C   UNL     1       5.591  29.733  57.070  1.00  0.00     0.069 A 
HETATM   23  O   UNL     1       6.453  31.542  58.313  1.00  0.00    -0.346 OA
HETATM   24  C   UNL     1       7.312  31.846  59.416  1.00  0.00     0.202 C 
HETATM   25  C   UNL     1       8.704  31.281  59.182  1.00  0.00     0.202 C 
ENDBRANCH  14  16
ENDBRANCH   1  14
TORSDOF 2
ENDMDL
