MODEL 1
REMARK VINA RESULT:      -9.9      0.000      0.000
REMARK  5 active torsions:
REMARK  status: ('A' for Active; 'I' for Inactive)
REMARK    1  A    between atoms: C_2  and  N_3 
REMARK    2  A    between atoms: C_6  and  C_7 
REMARK    3  A    between atoms: C_7  and  N_8 
REMARK    4  A    between atoms: C_11  and  O_12 
REMARK    5  A    between atoms: C_13  and  N_14 
ROOT
HETATM    1  N   UNL     1       6.840  28.973  54.732  1.00  0.00    -0.065 N 
HETATM    2  H   UNL     1       6.780  29.962  54.453  1.00  0.00     0.280 HD
HETATM    3  C   UNL     1       5.707  28.667  55.693  1.00  0.00     0.268 C 
HETATM    4  C   UNL     1       5.831  29.558  56.941  1.00  0.00     0.174 C 
HETATM    5  C   UNL     1       7.231  29.375  57.573  1.00  0.00     0.220 C 
HETATM    6  C   UNL     1       8.357  29.635  56.575  1.00  0.00     0.063 C 
HETATM    7  C   UNL     1       8.199  28.742  55.342  1.00  0.00     0.237 C 
ENDROOT
BRANCH   1   8
HETATM    8  C   UNL     1       6.671  28.238  53.395  1.00  0.00     0.276 C 
BRANCH   8   9
HETATM    9  C   UNL     1       6.442  26.793  53.634  1.00  0.00     0.004 A 
HETATM   10  C   UNL     1       5.218  26.099  53.630  1.00  0.00     0.149 A 
HETATM   11  N   UNL     1       5.378  24.789  53.780  1.00  0.00    -0.180 NA
HETATM   12  N   UNL     1       6.703  24.599  53.984  1.00  0.00    -0.245 N 
HETATM   13  C   UNL     1       7.377  25.808  53.899  1.00  0.00     0.129 A 
BRANCH  12  14
HETATM   14  C   UNL     1       7.248  23.298  54.169  1.00  0.00     0.058 A 
HETATM   15  C   UNL     1       7.680  22.567  53.049  1.00  0.00     0.034 A 
HETATM   16  C   UNL     1       8.247  21.301  53.210  1.00  0.00     0.044 A 
HETATM   17  C   UNL     1       8.381  20.767  54.485  1.00  0.00     0.116 A 
HETATM   18  C   UNL     1       7.952  21.472  55.603  1.00  0.00     0.044 A 
HETATM   19  F   UNL     1       8.934  19.558  54.643  1.00  0.00    -0.206 F 
HETATM   20  C   UNL     1       7.380  22.739  55.451  1.00  0.00     0.034 A 
ENDBRANCH  12  14
ENDBRANCH   8   9
ENDBRANCH   1   8
BRANCH   4  21
HETATM   21  O   UNL     1       4.878  29.236  57.952  1.00  0.00    -0.392 OA
HETATM   22  H   UNL     1       4.350  28.454  57.685  1.00  0.00     0.210 HD
ENDBRANCH   4  21
BRANCH   5  23
HETATM   23  N   UNL     1       7.334  30.240  58.851  1.00  0.00    -0.064 N 
HETATM   24  H   UNL     1       6.713  29.733  59.511  1.00  0.00     0.280 HD
HETATM   25  C   UNL     1       8.713  30.168  59.484  1.00  0.00     0.235 C 
HETATM   26  C   UNL     1       8.738  30.713  60.909  1.00  0.00     0.028 C 
HETATM   27  C   UNL     1       8.666  32.234  60.975  1.00  0.00     0.002 C 
HETATM   28  C   UNL     1       7.253  32.806  60.982  1.00  0.00     0.002 C 
HETATM   29  C   UNL     1       6.233  32.123  60.077  1.00  0.00     0.028 C 
HETATM   30  C   UNL     1       6.780  31.652  58.739  1.00  0.00     0.235 C 
ENDBRANCH   5  23
TORSDOF 5
ENDMDL
MODEL 2
REMARK VINA RESULT:      -9.9      3.495      9.424
REMARK  5 active torsions:
REMARK  status: ('A' for Active; 'I' for Inactive)
REMARK    1  A    between atoms: C_2  and  N_3 
REMARK    2  A    between atoms: C_6  and  C_7 
REMARK    3  A    between atoms: C_7  and  N_8 
REMARK    4  A    between atoms: C_11  and  O_12 
REMARK    5  A    between atoms: C_13  and  N_14 
ROOT
HETATM    1  N   UNL     1       7.645  27.441  55.278  1.00  0.00    -0.065 N 
HETATM    2  H   UNL     1       8.664  27.351  55.396  1.00  0.00     0.280 HD
HETATM    3  C   UNL     1       6.955  26.643  56.368  1.00  0.00     0.268 C 
HETATM    4  C   UNL     1       7.352  25.161  56.257  1.00  0.00     0.174 C 
HETATM    5  C   UNL     1       7.040  24.644  54.833  1.00  0.00     0.220 C 
HETATM    6  C   UNL     1       7.701  25.492  53.749  1.00  0.00     0.063 C 
HETATM    7  C   UNL     1       7.293  26.961  53.893  1.00  0.00     0.237 C 
ENDROOT
BRANCH   1   8
HETATM    8  C   UNL     1       7.421  28.951  55.444  1.00  0.00     0.276 C 
BRANCH   8   9
HETATM    9  C   UNL     1       8.085  29.430  56.679  1.00  0.00     0.004 A 
HETATM   10  C   UNL     1       9.463  29.479  56.957  1.00  0.00     0.149 A 
HETATM   11  N   UNL     1       9.725  30.062  58.122  1.00  0.00    -0.180 NA
HETATM   12  N   UNL     1       8.521  30.323  58.683  1.00  0.00    -0.245 N 
HETATM   13  C   UNL     1       7.501  29.948  57.822  1.00  0.00     0.129 A 
BRANCH  12  14
HETATM   14  C   UNL     1       8.414  30.969  59.946  1.00  0.00     0.058 A 
HETATM   15  C   UNL     1       9.170  30.490  61.030  1.00  0.00     0.034 A 
HETATM   16  C   UNL     1       9.104  31.128  62.271  1.00  0.00     0.044 A 
HETATM   17  C   UNL     1       8.286  32.238  62.428  1.00  0.00     0.116 A 
HETATM   18  C   UNL     1       7.525  32.721  61.370  1.00  0.00     0.044 A 
HETATM   19  F   UNL     1       8.230  32.857  63.614  1.00  0.00    -0.206 F 
HETATM   20  C   UNL     1       7.582  32.087  60.125  1.00  0.00     0.034 A 
ENDBRANCH  12  14
ENDBRANCH   8   9
ENDBRANCH   1   8
BRANCH   4  21
HETATM   21  O   UNL     1       6.640  24.324  57.164  1.00  0.00    -0.392 OA
HETATM   22  H   UNL     1       6.593  24.744  58.050  1.00  0.00     0.210 HD
ENDBRANCH   4  21
BRANCH   5  23
HETATM   23  N   UNL     1       7.402  23.143  54.741  1.00  0.00    -0.064 N 
HETATM   24  H   UNL     1       6.515  22.685  55.026  1.00  0.00     0.280 HD
HETATM   25  C   UNL     1       7.627  22.693  53.308  1.00  0.00     0.235 C 
HETATM   26  C   UNL     1       7.633  21.175  53.160  1.00  0.00     0.028 C 
HETATM   27  C   UNL     1       8.908  20.522  53.682  1.00  0.00     0.002 C 
HETATM   28  C   UNL     1       8.892  20.189  55.169  1.00  0.00     0.002 C 
HETATM   29  C   UNL     1       8.231  21.206  56.092  1.00  0.00     0.028 C 
HETATM   30  C   UNL     1       8.467  22.660  55.713  1.00  0.00     0.235 C 
ENDBRANCH   5  23
TORSDOF 5
ENDMDL
MODEL 3
REMARK VINA RESULT:      -9.5      4.465     10.348
REMARK  5 active torsions:
REMARK  status: ('A' for Active; 'I' for Inactive)
REMARK    1  A    between atoms: C_2  and  N_3 
REMARK    2  A    between atoms: C_6  and  C_7 
REMARK    3  A    between atoms: C_7  and  N_8 
REMARK    4  A    between atoms: C_11  and  O_12 
REMARK    5  A    between atoms: C_13  and  N_14 
ROOT
HETATM    1  N   UNL     1       8.704  30.072  58.380  1.00  0.00    -0.065 N 
HETATM    2  H   UNL     1       8.941  29.386  59.110  1.00  0.00     0.280 HD
HETATM    3  C   UNL     1       7.217  29.988  58.096  1.00  0.00     0.268 C 
HETATM    4  C   UNL     1       6.861  28.575  57.603  1.00  0.00     0.174 C 
HETATM    5  C   UNL     1       7.736  28.215  56.379  1.00  0.00     0.220 C 
HETATM    6  C   UNL     1       9.227  28.357  56.670  1.00  0.00     0.063 C 
HETATM    7  C   UNL     1       9.547  29.770  57.167  1.00  0.00     0.237 C 
ENDROOT
BRANCH   1   8
HETATM    8  C   UNL     1       9.088  31.406  59.036  1.00  0.00     0.276 C 
BRANCH   8   9
HETATM    9  C   UNL     1       8.652  31.420  60.453  1.00  0.00     0.004 A 
HETATM   10  C   UNL     1       9.103  30.601  61.504  1.00  0.00     0.149 A 
HETATM   11  N   UNL     1       8.578  30.945  62.675  1.00  0.00    -0.180 NA
HETATM   12  N   UNL     1       7.695  31.936  62.407  1.00  0.00    -0.245 N 
HETATM   13  C   UNL     1       7.721  32.246  61.056  1.00  0.00     0.129 A 
BRANCH  12  14
HETATM   14  C   UNL     1       6.948  32.566  63.441  1.00  0.00     0.058 A 
HETATM   15  C   UNL     1       7.630  33.178  64.507  1.00  0.00     0.034 A 
HETATM   16  C   UNL     1       6.919  33.830  65.517  1.00  0.00     0.044 A 
HETATM   17  C   UNL     1       5.532  33.869  65.462  1.00  0.00     0.116 A 
HETATM   18  C   UNL     1       4.840  33.263  64.420  1.00  0.00     0.044 A 
HETATM   19  F   UNL     1       4.849  34.503  66.423  1.00  0.00    -0.206 F 
HETATM   20  C   UNL     1       5.545  32.605  63.407  1.00  0.00     0.034 A 
ENDBRANCH  12  14
ENDBRANCH   8   9
ENDBRANCH   1   8
BRANCH   4  21
HETATM   21  O   UNL     1       5.503  28.455  57.188  1.00  0.00    -0.392 OA
HETATM   22  H   UNL     1       5.371  28.896  56.321  1.00  0.00     0.210 HD
ENDBRANCH   4  21
BRANCH   5  23
HETATM   23  N   UNL     1       7.344  26.811  55.863  1.00  0.00    -0.064 N 
HETATM   24  H   UNL     1       6.324  26.782  56.056  1.00  0.00     0.280 HD
HETATM   25  C   UNL     1       7.455  26.702  54.353  1.00  0.00     0.235 C 
HETATM   26  C   UNL     1       6.749  25.470  53.796  1.00  0.00     0.028 C 
HETATM   27  C   UNL     1       7.504  24.171  54.057  1.00  0.00     0.002 C 
HETATM   28  C   UNL     1       7.195  23.511  55.395  1.00  0.00     0.002 C 
HETATM   29  C   UNL     1       7.020  24.439  56.592  1.00  0.00     0.028 C 
HETATM   30  C   UNL     1       7.955  25.638  56.614  1.00  0.00     0.235 C 
ENDBRANCH   5  23
TORSDOF 5
ENDMDL
MODEL 4
REMARK VINA RESULT:      -9.4      1.864      2.794
REMARK  5 active torsions:
REMARK  status: ('A' for Active; 'I' for Inactive)
REMARK    1  A    between atoms: C_2  and  N_3 
REMARK    2  A    between atoms: C_6  and  C_7 
REMARK    3  A    between atoms: C_7  and  N_8 
REMARK    4  A    between atoms: C_11  and  O_12 
REMARK    5  A    between atoms: C_13  and  N_14 
ROOT
HETATM    1  N   UNL     1       7.125  29.391  56.931  1.00  0.00    -0.065 N 
HETATM    2  H   UNL     1       7.039  28.616  57.604  1.00  0.00     0.280 HD
HETATM    3  C   UNL     1       8.465  30.071  57.140  1.00  0.00     0.268 C 
HETATM    4  C   UNL     1       8.547  30.628  58.572  1.00  0.00     0.174 C 
HETATM    5  C   UNL     1       7.342  31.561  58.837  1.00  0.00     0.220 C 
HETATM    6  C   UNL     1       6.005  30.874  58.569  1.00  0.00     0.063 C 
HETATM    7  C   UNL     1       5.960  30.324  57.141  1.00  0.00     0.237 C 
ENDROOT
BRANCH   1   8
HETATM    8  C   UNL     1       7.055  28.669  55.578  1.00  0.00     0.276 C 
BRANCH   8   9
HETATM    9  C   UNL     1       7.263  27.213  55.768  1.00  0.00     0.004 A 
HETATM   10  C   UNL     1       7.308  26.496  56.977  1.00  0.00     0.149 A 
HETATM   11  N   UNL     1       7.408  25.186  56.786  1.00  0.00    -0.180 NA
HETATM   12  N   UNL     1       7.529  25.016  55.448  1.00  0.00    -0.245 N 
HETATM   13  C   UNL     1       7.443  26.239  54.801  1.00  0.00     0.129 A 
BRANCH  12  14
HETATM   14  C   UNL     1       7.643  23.721  54.870  1.00  0.00     0.058 A 
HETATM   15  C   UNL     1       7.746  23.597  53.474  1.00  0.00     0.034 A 
HETATM   16  C   UNL     1       7.891  22.338  52.886  1.00  0.00     0.044 A 
HETATM   17  C   UNL     1       7.931  21.207  53.691  1.00  0.00     0.116 A 
HETATM   18  C   UNL     1       7.821  21.309  55.073  1.00  0.00     0.044 A 
HETATM   19  F   UNL     1       8.079  20.000  53.132  1.00  0.00    -0.206 F 
HETATM   20  C   UNL     1       7.674  22.566  55.669  1.00  0.00     0.034 A 
ENDBRANCH  12  14
ENDBRANCH   8   9
ENDBRANCH   1   8
BRANCH   4  21
HETATM   21  O   UNL     1       9.723  31.398  58.804  1.00  0.00    -0.392 OA
HETATM   22  H   UNL     1      10.519  30.826  58.763  1.00  0.00     0.210 HD
ENDBRANCH   4  21
BRANCH   5  23
HETATM   23  N   UNL     1       7.452  32.150  60.262  1.00  0.00    -0.064 N 
HETATM   24  H   UNL     1       8.187  32.875  60.145  1.00  0.00     0.280 HD
HETATM   25  C   UNL     1       6.208  32.922  60.663  1.00  0.00     0.235 C 
HETATM   26  C   UNL     1       6.425  33.796  61.895  1.00  0.00     0.028 C 
HETATM   27  C   UNL     1       6.486  33.002  63.195  1.00  0.00     0.002 C 
HETATM   28  C   UNL     1       7.871  32.475  63.557  1.00  0.00     0.002 C 
HETATM   29  C   UNL     1       8.725  31.951  62.408  1.00  0.00     0.028 C 
HETATM   30  C   UNL     1       7.958  31.196  61.334  1.00  0.00     0.235 C 
ENDBRANCH   5  23
TORSDOF 5
ENDMDL
MODEL 5
REMARK VINA RESULT:      -8.9      1.241      2.237
REMARK  5 active torsions:
REMARK  status: ('A' for Active; 'I' for Inactive)
REMARK    1  A    between atoms: C_2  and  N_3 
REMARK    2  A    between atoms: C_6  and  C_7 
REMARK    3  A    between atoms: C_7  and  N_8 
REMARK    4  A    between atoms: C_11  and  O_12 
REMARK    5  A    between atoms: C_13  and  N_14 
ROOT
HETATM    1  N   UNL     1       5.646  28.478  55.906  1.00  0.00    -0.065 N 
HETATM    2  H   UNL     1       5.657  27.730  56.613  1.00  0.00     0.280 HD
HETATM    3  C   UNL     1       7.074  28.910  55.629  1.00  0.00     0.268 C 
HETATM    4  C   UNL     1       7.716  29.440  56.923  1.00  0.00     0.174 C 
HETATM    5  C   UNL     1       6.841  30.571  57.512  1.00  0.00     0.220 C 
HETATM    6  C   UNL     1       5.395  30.132  57.733  1.00  0.00     0.063 C 
HETATM    7  C   UNL     1       4.789  29.602  56.430  1.00  0.00     0.237 C 
ENDROOT
BRANCH   1   8
HETATM    8  C   UNL     1       5.013  27.782  54.693  1.00  0.00     0.276 C 
BRANCH   8   9
HETATM    9  C   UNL     1       5.880  26.671  54.234  1.00  0.00     0.004 A 
HETATM   10  C   UNL     1       6.884  26.708  53.250  1.00  0.00     0.149 A 
HETATM   11  N   UNL     1       7.543  25.558  53.154  1.00  0.00    -0.180 NA
HETATM   12  N   UNL     1       6.924  24.706  54.005  1.00  0.00    -0.245 N 
HETATM   13  C   UNL     1       5.904  25.361  54.679  1.00  0.00     0.129 A 
BRANCH  12  14
HETATM   14  C   UNL     1       7.376  23.369  54.179  1.00  0.00     0.058 A 
HETATM   15  C   UNL     1       7.439  22.826  55.474  1.00  0.00     0.034 A 
HETATM   16  C   UNL     1       7.850  21.505  55.665  1.00  0.00     0.044 A 
HETATM   17  C   UNL     1       8.198  20.730  54.567  1.00  0.00     0.116 A 
HETATM   18  C   UNL     1       8.151  21.252  53.280  1.00  0.00     0.044 A 
HETATM   19  F   UNL     1       8.583  19.461  54.747  1.00  0.00    -0.206 F 
HETATM   20  C   UNL     1       7.743  22.575  53.080  1.00  0.00     0.034 A 
ENDBRANCH  12  14
ENDBRANCH   8   9
ENDBRANCH   1   8
BRANCH   4  21
HETATM   21  O   UNL     1       9.014  29.989  56.716  1.00  0.00    -0.392 OA
HETATM   22  H   UNL     1       8.946  30.894  56.342  1.00  0.00     0.210 HD
ENDBRANCH   4  21
BRANCH   5  23
HETATM   23  N   UNL     1       7.513  31.128  58.788  1.00  0.00    -0.064 N 
HETATM   24  H   UNL     1       8.184  31.819  58.400  1.00  0.00     0.280 HD
HETATM   25  C   UNL     1       6.554  31.952  59.630  1.00  0.00     0.235 C 
HETATM   26  C   UNL     1       7.266  32.792  60.685  1.00  0.00     0.028 C 
HETATM   27  C   UNL     1       7.774  31.973  61.867  1.00  0.00     0.002 C 
HETATM   28  C   UNL     1       9.163  31.373  61.678  1.00  0.00     0.002 C 
HETATM   29  C   UNL     1       9.491  30.829  60.292  1.00  0.00     0.028 C 
HETATM   30  C   UNL     1       8.336  30.132  59.589  1.00  0.00     0.235 C 
ENDBRANCH   5  23
TORSDOF 5
ENDMDL
MODEL 6
REMARK VINA RESULT:      -8.9      3.348      8.768
REMARK  5 active torsions:
REMARK  status: ('A' for Active; 'I' for Inactive)
REMARK    1  A    between atoms: C_2  and  N_3 
REMARK    2  A    between atoms: C_6  and  C_7 
REMARK    3  A    between atoms: C_7  and  N_8 
REMARK    4  A    between atoms: C_11  and  O_12 
REMARK    5  A    between atoms: C_13  and  N_14 
ROOT
HETATM    1  N   UNL     1       5.471  27.149  54.321  1.00  0.00    -0.065 N 
HETATM    2  H   UNL     1       4.711  26.583  53.919  1.00  0.00     0.280 HD
HETATM    3  C   UNL     1       6.677  27.068  53.404  1.00  0.00     0.268 C 
HETATM    4  C   UNL     1       7.139  25.606  53.283  1.00  0.00     0.174 C 
HETATM    5  C   UNL     1       7.405  25.027  54.693  1.00  0.00     0.220 C 
HETATM    6  C   UNL     1       6.198  25.167  55.616  1.00  0.00     0.063 C 
HETATM    7  C   UNL     1       5.757  26.631  55.706  1.00  0.00     0.237 C 
ENDROOT
BRANCH   1   8
HETATM    8  C   UNL     1       4.863  28.559  54.342  1.00  0.00     0.276 C 
BRANCH   8   9
HETATM    9  C   UNL     1       5.201  29.240  55.614  1.00  0.00     0.004 A 
HETATM   10  C   UNL     1       4.344  29.545  56.687  1.00  0.00     0.149 A 
HETATM   11  N   UNL     1       4.992  30.068  57.721  1.00  0.00    -0.180 NA
HETATM   12  N   UNL     1       6.277  30.211  57.318  1.00  0.00    -0.245 N 
HETATM   13  C   UNL     1       6.433  29.711  56.034  1.00  0.00     0.129 A 
BRANCH  12  14
HETATM   14  C   UNL     1       7.275  30.734  58.187  1.00  0.00     0.058 A 
HETATM   15  C   UNL     1       6.932  31.746  59.099  1.00  0.00     0.034 A 
HETATM   16  C   UNL     1       7.888  32.253  59.982  1.00  0.00     0.044 A 
HETATM   17  C   UNL     1       9.182  31.750  59.953  1.00  0.00     0.116 A 
HETATM   18  C   UNL     1       9.542  30.755  59.052  1.00  0.00     0.044 A 
HETATM   19  F   UNL     1      10.097  32.226  60.806  1.00  0.00    -0.206 F 
HETATM   20  C   UNL     1       8.592  30.244  58.162  1.00  0.00     0.034 A 
ENDBRANCH  12  14
ENDBRANCH   8   9
ENDBRANCH   1   8
BRANCH   4  21
HETATM   21  O   UNL     1       8.350  25.463  52.544  1.00  0.00    -0.392 OA
HETATM   22  H   UNL     1       8.158  25.404  51.584  1.00  0.00     0.210 HD
ENDBRANCH   4  21
BRANCH   5  23
HETATM   23  N   UNL     1       7.910  23.571  54.563  1.00  0.00    -0.064 N 
HETATM   24  H   UNL     1       8.895  23.705  54.262  1.00  0.00     0.280 HD
HETATM   25  C   UNL     1       8.008  22.874  55.908  1.00  0.00     0.235 C 
HETATM   26  C   UNL     1       8.824  21.586  55.849  1.00  0.00     0.028 C 
HETATM   27  C   UNL     1       8.084  20.433  55.182  1.00  0.00     0.002 C 
HETATM   28  C   UNL     1       8.231  20.373  53.665  1.00  0.00     0.002 C 
HETATM   29  C   UNL     1       8.211  21.705  52.922  1.00  0.00     0.028 C 
HETATM   30  C   UNL     1       7.242  22.734  53.483  1.00  0.00     0.235 C 
ENDBRANCH   5  23
TORSDOF 5
ENDMDL
MODEL 7
REMARK VINA RESULT:      -8.9      4.083      9.955
REMARK  5 active torsions:
REMARK  status: ('A' for Active; 'I' for Inactive)
REMARK    1  A    between atoms: C_2  and  N_3 
REMARK    2  A    between atoms: C_6  and  C_7 
REMARK    3  A    between atoms: C_7  and  N_8 
REMARK    4  A    between atoms: C_11  and  O_12 
REMARK    5  A    between atoms: C_13  and  N_14 
ROOT
HETATM    1  N   UNL     1       5.450  30.367  56.605  1.00  0.00    -0.065 N 
HETATM    2  H   UNL     1       6.476  30.272  56.636  1.00  0.00     0.280 HD
HETATM    3  C   UNL     1       4.831  29.228  57.392  1.00  0.00     0.268 C 
HETATM    4  C   UNL     1       5.238  27.883  56.766  1.00  0.00     0.174 C 
HETATM    5  C   UNL     1       4.853  27.869  55.268  1.00  0.00     0.220 C 
HETATM    6  C   UNL     1       5.442  29.053  54.506  1.00  0.00     0.063 C 
HETATM    7  C   UNL     1       5.027  30.374  55.159  1.00  0.00     0.237 C 
ENDROOT
BRANCH   1   8
HETATM    8  C   UNL     1       5.219  31.724  57.285  1.00  0.00     0.276 C 
BRANCH   8   9
HETATM    9  C   UNL     1       5.974  31.790  58.559  1.00  0.00     0.004 A 
HETATM   10  C   UNL     1       7.317  31.440  58.788  1.00  0.00     0.149 A 
HETATM   11  N   UNL     1       7.709  31.718  60.026  1.00  0.00    -0.180 NA
HETATM   12  N   UNL     1       6.607  32.167  60.671  1.00  0.00    -0.245 N 
HETATM   13  C   UNL     1       5.531  32.222  59.797  1.00  0.00     0.129 A 
BRANCH  12  14
HETATM   14  C   UNL     1       6.657  32.579  62.032  1.00  0.00     0.058 A 
HETATM   15  C   UNL     1       5.463  32.915  62.694  1.00  0.00     0.034 A 
HETATM   16  C   UNL     1       5.485  33.292  64.038  1.00  0.00     0.044 A 
HETATM   17  C   UNL     1       6.695  33.334  64.718  1.00  0.00     0.116 A 
HETATM   18  C   UNL     1       7.886  33.014  64.078  1.00  0.00     0.044 A 
HETATM   19  F   UNL     1       6.717  33.685  66.010  1.00  0.00    -0.206 F 
HETATM   20  C   UNL     1       7.874  32.638  62.731  1.00  0.00     0.034 A 
ENDBRANCH  12  14
ENDBRANCH   8   9
ENDBRANCH   1   8
BRANCH   4  21
HETATM   21  O   UNL     1       4.587  26.768  57.369  1.00  0.00    -0.392 OA
HETATM   22  H   UNL     1       4.569  26.870  58.345  1.00  0.00     0.210 HD
ENDBRANCH   4  21
BRANCH   5  23
HETATM   23  N   UNL     1       5.226  26.500  54.655  1.00  0.00    -0.064 N 
HETATM   24  H   UNL     1       4.588  25.852  55.157  1.00  0.00     0.280 HD
HETATM   25  C   UNL     1       4.816  26.392  53.197  1.00  0.00     0.235 C 
HETATM   26  C   UNL     1       4.847  24.957  52.678  1.00  0.00     0.028 C 
HETATM   27  C   UNL     1       6.258  24.434  52.435  1.00  0.00     0.002 C 
HETATM   28  C   UNL     1       6.926  23.808  53.654  1.00  0.00     0.002 C 
HETATM   29  C   UNL     1       6.685  24.494  54.994  1.00  0.00     0.028 C 
HETATM   30  C   UNL     1       6.639  26.013  54.935  1.00  0.00     0.235 C 
ENDBRANCH   5  23
TORSDOF 5
ENDMDL
MODEL 8
REMARK VINA RESULT:      -8.7      4.513      8.007
REMARK  5 active torsions:
REMARK  status: ('A' for Active; 'I' for Inactive)
REMARK    1  A    between atoms: C_2  and  N_3 
REMARK    2  A    between atoms: C_6  and  C_7 
REMARK    3  A    between atoms: C_7  and  N_8 
REMARK    4  A    between atoms: C_11  and  O_12 
REMARK    5  A    between atoms: C_13  and  N_14 
ROOT
HETATM    1  N   UNL     1       5.012  28.098  52.504  1.00  0.00    -0.065 N 
HETATM    2  H   UNL     1       4.517  27.215  52.691  1.00  0.00     0.280 HD
HETATM    3  C   UNL     1       4.027  29.245  52.627  1.00  0.00     0.268 C 
HETATM    4  C   UNL     1       2.894  29.069  51.601  1.00  0.00     0.174 C 
HETATM    5  C   UNL     1       3.495  28.931  50.182  1.00  0.00     0.220 C 
HETATM    6  C   UNL     1       4.523  27.805  50.094  1.00  0.00     0.063 C 
HETATM    7  C   UNL     1       5.630  28.005  51.133  1.00  0.00     0.237 C 
ENDROOT
BRANCH   1   8
HETATM    8  C   UNL     1       6.070  28.130  53.617  1.00  0.00     0.276 C 
BRANCH   8   9
HETATM    9  C   UNL     1       6.242  26.776  54.194  1.00  0.00     0.004 A 
HETATM   10  C   UNL     1       5.629  26.241  55.342  1.00  0.00     0.149 A 
HETATM   11  N   UNL     1       5.925  24.959  55.524  1.00  0.00    -0.180 NA
HETATM   12  N   UNL     1       6.817  24.645  54.554  1.00  0.00    -0.245 N 
HETATM   13  C   UNL     1       7.028  25.737  53.727  1.00  0.00     0.129 A 
BRANCH  12  14
HETATM   14  C   UNL     1       7.348  23.331  54.430  1.00  0.00     0.058 A 
HETATM   15  C   UNL     1       7.512  22.543  55.583  1.00  0.00     0.034 A 
HETATM   16  C   UNL     1       8.002  21.239  55.481  1.00  0.00     0.044 A 
HETATM   17  C   UNL     1       8.328  20.725  54.233  1.00  0.00     0.116 A 
HETATM   18  C   UNL     1       8.180  21.492  53.083  1.00  0.00     0.044 A 
HETATM   19  F   UNL     1       8.788  19.472  54.132  1.00  0.00    -0.206 F 
HETATM   20  C   UNL     1       7.692  22.799  53.176  1.00  0.00     0.034 A 
ENDBRANCH  12  14
ENDBRANCH   8   9
ENDBRANCH   1   8
BRANCH   4  21
HETATM   21  O   UNL     1       1.999  30.177  51.563  1.00  0.00    -0.392 OA
HETATM   22  H   UNL     1       2.491  31.017  51.686  1.00  0.00     0.210 HD
ENDBRANCH   4  21
BRANCH   5  23
HETATM   23  N   UNL     1       2.350  28.796  49.151  1.00  0.00    -0.064 N 
HETATM   24  H   UNL     1       1.510  28.746  49.760  1.00  0.00     0.280 HD
HETATM   25  C   UNL     1       2.161  30.061  48.333  1.00  0.00     0.235 C 
HETATM   26  C   UNL     1       0.838  30.082  47.575  1.00  0.00     0.028 C 
HETATM   27  C   UNL     1       0.824  29.162  46.359  1.00  0.00     0.002 C 
HETATM   28  C   UNL     1       0.417  27.723  46.653  1.00  0.00     0.002 C 
HETATM   29  C   UNL     1       0.937  27.115  47.950  1.00  0.00     0.028 C 
HETATM   30  C   UNL     1       2.355  27.521  48.322  1.00  0.00     0.235 C 
ENDBRANCH   5  23
TORSDOF 5
ENDMDL
MODEL 9
REMARK VINA RESULT:      -8.6      2.868      4.698
REMARK  5 active torsions:
REMARK  status: ('A' for Active; 'I' for Inactive)
REMARK    1  A    between atoms: C_2  and  N_3 
REMARK    2  A    between atoms: C_6  and  C_7 
REMARK    3  A    between atoms: C_7  and  N_8 
REMARK    4  A    between atoms: C_11  and  O_12 
REMARK    5  A    between atoms: C_13  and  N_14 
ROOT
HETATM    1  N   UNL     1       8.663  30.150  58.597  1.00  0.00    -0.065 N 
HETATM    2  H   UNL     1       8.288  29.379  59.169  1.00  0.00     0.280 HD
HETATM    3  C   UNL     1       9.751  30.856  59.383  1.00  0.00     0.268 C 
HETATM    4  C   UNL     1       9.164  31.427  60.685  1.00  0.00     0.174 C 
HETATM    5  C   UNL     1       7.959  32.341  60.355  1.00  0.00     0.220 C 
HETATM    6  C   UNL     1       6.901  31.626  59.519  1.00  0.00     0.063 C 
HETATM    7  C   UNL     1       7.518  31.062  58.237  1.00  0.00     0.237 C 
ENDROOT
BRANCH   1   8
HETATM    8  C   UNL     1       9.226  29.413  57.373  1.00  0.00     0.276 C 
BRANCH   8   9
HETATM    9  C   UNL     1       8.308  28.322  56.969  1.00  0.00     0.004 A 
HETATM   10  C   UNL     1       7.555  27.473  57.800  1.00  0.00     0.149 A 
HETATM   11  N   UNL     1       6.754  26.668  57.111  1.00  0.00    -0.180 NA
HETATM   12  N   UNL     1       7.032  26.900  55.806  1.00  0.00    -0.245 N 
HETATM   13  C   UNL     1       7.978  27.907  55.691  1.00  0.00     0.129 A 
BRANCH  12  14
HETATM   14  C   UNL     1       6.342  26.217  54.766  1.00  0.00     0.058 A 
HETATM   15  C   UNL     1       5.317  26.881  54.069  1.00  0.00     0.034 A 
HETATM   16  C   UNL     1       4.647  26.241  53.024  1.00  0.00     0.044 A 
HETATM   17  C   UNL     1       4.999  24.943  52.677  1.00  0.00     0.116 A 
HETATM   18  C   UNL     1       6.005  24.269  53.360  1.00  0.00     0.044 A 
HETATM   19  F   UNL     1       4.366  24.332  51.668  1.00  0.00    -0.206 F 
HETATM   20  C   UNL     1       6.678  24.901  54.410  1.00  0.00     0.034 A 
ENDBRANCH  12  14
ENDBRANCH   8   9
ENDBRANCH   1   8
BRANCH   4  21
HETATM   21  O   UNL     1      10.095  32.222  61.415  1.00  0.00    -0.392 OA
HETATM   22  H   UNL     1      10.910  32.363  60.887  1.00  0.00     0.210 HD
ENDBRANCH   4  21
BRANCH   5  23
HETATM   23  N   UNL     1       7.400  32.945  61.664  1.00  0.00    -0.064 N 
HETATM   24  H   UNL     1       7.996  33.786  61.791  1.00  0.00     0.280 HD
HETATM   25  C   UNL     1       5.993  33.489  61.491  1.00  0.00     0.235 C 
HETATM   26  C   UNL     1       5.563  34.392  62.643  1.00  0.00     0.028 C 
HETATM   27  C   UNL     1       5.228  33.626  63.918  1.00  0.00     0.002 C 
HETATM   28  C   UNL     1       6.420  33.349  64.828  1.00  0.00     0.002 C 
HETATM   29  C   UNL     1       7.731  32.979  64.145  1.00  0.00     0.028 C 
HETATM   30  C   UNL     1       7.584  32.098  62.914  1.00  0.00     0.235 C 
ENDBRANCH   5  23
TORSDOF 5
ENDMDL
MODEL 10
REMARK VINA RESULT:      -8.5      3.538      9.092
REMARK  5 active torsions:
REMARK  status: ('A' for Active; 'I' for Inactive)
REMARK    1  A    between atoms: C_2  and  N_3 
REMARK    2  A    between atoms: C_6  and  C_7 
REMARK    3  A    between atoms: C_7  and  N_8 
REMARK    4  A    between atoms: C_11  and  O_12 
REMARK    5  A    between atoms: C_13  and  N_14 
ROOT
HETATM    1  N   UNL     1       5.339  28.954  55.738  1.00  0.00    -0.065 N 
HETATM    2  H   UNL     1       6.119  29.119  56.390  1.00  0.00     0.280 HD
HETATM    3  C   UNL     1       4.589  27.710  56.177  1.00  0.00     0.268 C 
HETATM    4  C   UNL     1       5.537  26.499  56.155  1.00  0.00     0.174 C 
HETATM    5  C   UNL     1       6.175  26.363  54.752  1.00  0.00     0.220 C 
HETATM    6  C   UNL     1       6.878  27.643  54.307  1.00  0.00     0.063 C 
HETATM    7  C   UNL     1       5.911  28.830  54.349  1.00  0.00     0.237 C 
ENDROOT
BRANCH   1   8
HETATM    8  C   UNL     1       4.490  30.223  55.905  1.00  0.00     0.276 C 
BRANCH   8   9
HETATM    9  C   UNL     1       5.119  31.129  56.894  1.00  0.00     0.004 A 
HETATM   10  C   UNL     1       5.183  32.534  56.862  1.00  0.00     0.149 A 
HETATM   11  N   UNL     1       5.731  33.042  57.960  1.00  0.00    -0.180 NA
HETATM   12  N   UNL     1       6.130  31.980  58.699  1.00  0.00    -0.245 N 
HETATM   13  C   UNL     1       5.767  30.798  58.071  1.00  0.00     0.129 A 
BRANCH  12  14
HETATM   14  C   UNL     1       6.752  32.148  59.968  1.00  0.00     0.058 A 
HETATM   15  C   UNL     1       6.130  32.952  60.938  1.00  0.00     0.034 A 
HETATM   16  C   UNL     1       6.707  33.105  62.201  1.00  0.00     0.044 A 
HETATM   17  C   UNL     1       7.901  32.460  62.492  1.00  0.00     0.116 A 
HETATM   18  C   UNL     1       8.536  31.668  61.541  1.00  0.00     0.044 A 
HETATM   19  F   UNL     1       8.451  32.597  63.705  1.00  0.00    -0.206 F 
HETATM   20  C   UNL     1       7.966  31.511  60.274  1.00  0.00     0.034 A 
ENDBRANCH  12  14
ENDBRANCH   8   9
ENDBRANCH   1   8
BRANCH   4  21
HETATM   21  O   UNL     1       4.873  25.267  56.426  1.00  0.00    -0.392 OA
HETATM   22  H   UNL     1       5.045  24.984  57.350  1.00  0.00     0.210 HD
ENDBRANCH   4  21
BRANCH   5  23
HETATM   23  N   UNL     1       7.093  25.119  54.724  1.00  0.00    -0.064 N 
HETATM   24  H   UNL     1       7.924  25.470  54.209  1.00  0.00     0.280 HD
HETATM   25  C   UNL     1       7.617  24.760  56.103  1.00  0.00     0.235 C 
HETATM   26  C   UNL     1       8.784  23.778  56.055  1.00  0.00     0.028 C 
HETATM   27  C   UNL     1       8.359  22.352  55.724  1.00  0.00     0.002 C 
HETATM   28  C   UNL     1       8.280  22.040  54.234  1.00  0.00     0.002 C 
HETATM   29  C   UNL     1       7.719  23.134  53.333  1.00  0.00     0.028 C 
HETATM   30  C   UNL     1       6.570  23.930  53.934  1.00  0.00     0.235 C 
ENDBRANCH   5  23
TORSDOF 5
ENDMDL
