MODEL 1
REMARK VINA RESULT:      -8.4      0.000      0.000
REMARK  7 active torsions:
REMARK  status: ('A' for Active; 'I' for Inactive)
REMARK    1  A    between atoms: C_5  and  N_6 
REMARK    2  A    between atoms: N_6  and  C_9 
REMARK    3  A    between atoms: C_9  and  C_10 
REMARK    4  A    between atoms: C_10  and  C_11 
REMARK    5  A    between atoms: C_10  and  C_13 
REMARK    6  A    between atoms: C_11  and  O_12 
REMARK    7  A    between atoms: C_13  and  C_14 
ROOT
HETATM    1  N   UNL     1       6.135  24.602  52.894  1.00  0.00    -0.066 N 
HETATM    2  H   UNL     1       5.909  23.706  52.422  1.00  0.00     0.278 HD
HETATM    3  H   UNL     1       5.265  24.889  53.385  1.00  0.00     0.278 HD
ENDROOT
BRANCH   1   4
HETATM    4  C   UNL     1       7.198  24.336  53.882  1.00  0.00     0.220 C 
HETATM    5  C   UNL     1       7.637  22.900  53.897  1.00  0.00    -0.021 A 
HETATM    6  C   UNL     1       7.791  22.439  55.217  1.00  0.00    -0.040 A 
HETATM    7  C   UNL     1       7.903  22.071  52.816  1.00  0.00     0.010 A 
HETATM    8  C   UNL     1       8.174  21.127  55.485  1.00  0.00    -0.055 A 
HETATM    9  C   UNL     1       7.505  23.543  56.201  1.00  0.00     0.018 C 
HETATM   10  C   UNL     1       8.362  20.611  56.880  1.00  0.00     0.049 C 
HETATM   11  C   UNL     1       8.436  20.294  54.387  1.00  0.00     0.007 A 
HETATM   12  C   UNL     1       8.302  20.759  53.071  1.00  0.00     0.001 A 
HETATM   13  C   UNL     1       6.676  24.500  55.322  1.00  0.00     0.047 C 
HETATM   14  C   UNL     1       8.781  24.192  56.724  1.00  0.00     0.015 C 
ENDBRANCH   1   4
BRANCH   1  15
HETATM   15  C   UNL     1       6.397  25.588  51.813  1.00  0.00     0.240 C 
BRANCH  15  16
HETATM   16  C   UNL     1       5.454  26.802  51.949  1.00  0.00     0.040 C 
BRANCH  16  17
HETATM   17  C   UNL     1       4.822  27.131  50.586  1.00  0.00     0.170 C 
BRANCH  17  18
HETATM   18  O   UNL     1       4.211  25.955  50.055  1.00  0.00    -0.400 OA
HETATM   19  H   UNL     1       4.858  25.566  49.429  1.00  0.00     0.209 HD
ENDBRANCH  17  18
ENDBRANCH  16  17
BRANCH  16  20
HETATM   20  C   UNL     1       6.125  28.075  52.515  1.00  0.00     0.067 C 
BRANCH  20  21
HETATM   21  C   UNL     1       6.364  28.015  53.999  1.00  0.00     0.034 A 
HETATM   22  N   UNL     1       5.248  27.962  54.781  1.00  0.00    -0.266 NA
HETATM   23  C   UNL     1       5.453  27.900  56.120  1.00  0.00     0.117 A 
HETATM   24  C   UNL     1       6.704  27.925  56.715  1.00  0.00     0.019 A 
HETATM   25  C   UNL     1       7.823  28.005  55.894  1.00  0.00     0.003 A 
HETATM   26  C   UNL     1       7.656  28.050  54.514  1.00  0.00     0.027 A 
ENDBRANCH  20  21
ENDBRANCH  16  20
ENDBRANCH  15  16
ENDBRANCH   1  15
TORSDOF 7
ENDMDL
MODEL 2
REMARK VINA RESULT:      -8.4      3.060      4.485
REMARK  7 active torsions:
REMARK  status: ('A' for Active; 'I' for Inactive)
REMARK    1  A    between atoms: C_5  and  N_6 
REMARK    2  A    between atoms: N_6  and  C_9 
REMARK    3  A    between atoms: C_9  and  C_10 
REMARK    4  A    between atoms: C_10  and  C_11 
REMARK    5  A    between atoms: C_10  and  C_13 
REMARK    6  A    between atoms: C_11  and  O_12 
REMARK    7  A    between atoms: C_13  and  C_14 
ROOT
HETATM    1  N   UNL     1       8.366  25.180  56.637  1.00  0.00    -0.066 N 
HETATM    2  H   UNL     1       9.107  24.541  56.986  1.00  0.00     0.278 HD
HETATM    3  H   UNL     1       8.866  25.974  56.192  1.00  0.00     0.278 HD
ENDROOT
BRANCH   1   4
HETATM    4  C   UNL     1       7.585  24.450  55.620  1.00  0.00     0.220 C 
HETATM    5  C   UNL     1       7.849  22.972  55.629  1.00  0.00    -0.021 A 
HETATM    6  C   UNL     1       7.978  22.481  54.317  1.00  0.00    -0.040 A 
HETATM    7  C   UNL     1       7.941  22.122  56.722  1.00  0.00     0.010 A 
HETATM    8  C   UNL     1       8.246  21.136  54.072  1.00  0.00    -0.055 A 
HETATM    9  C   UNL     1       7.774  23.586  53.314  1.00  0.00     0.018 C 
HETATM   10  C   UNL     1       8.375  20.581  52.684  1.00  0.00     0.049 C 
HETATM   11  C   UNL     1       8.345  20.284  55.181  1.00  0.00     0.007 A 
HETATM   12  C   UNL     1       8.194  20.769  56.489  1.00  0.00     0.001 A 
HETATM   13  C   UNL     1       8.037  24.822  54.196  1.00  0.00     0.047 C 
HETATM   14  C   UNL     1       6.367  23.578  52.729  1.00  0.00     0.015 C 
ENDBRANCH   1   4
BRANCH   1  15
HETATM   15  C   UNL     1       7.663  25.697  57.840  1.00  0.00     0.240 C 
BRANCH  15  16
HETATM   16  C   UNL     1       7.447  27.221  57.725  1.00  0.00     0.040 C 
BRANCH  16  17
HETATM   17  C   UNL     1       6.084  27.510  57.074  1.00  0.00     0.170 C 
BRANCH  17  18
HETATM   18  O   UNL     1       5.528  28.693  57.651  1.00  0.00    -0.400 OA
HETATM   19  H   UNL     1       5.907  29.448  57.154  1.00  0.00     0.209 HD
ENDBRANCH  17  18
ENDBRANCH  16  17
BRANCH  16  20
HETATM   20  C   UNL     1       8.550  27.969  56.941  1.00  0.00     0.067 C 
BRANCH  20  21
HETATM   21  C   UNL     1       9.038  29.211  57.635  1.00  0.00     0.034 A 
HETATM   22  N   UNL     1       8.343  29.585  58.746  1.00  0.00    -0.266 NA
HETATM   23  C   UNL     1       8.779  30.700  59.384  1.00  0.00     0.117 A 
HETATM   24  C   UNL     1       9.842  31.474  58.950  1.00  0.00     0.019 A 
HETATM   25  C   UNL     1      10.516  31.083  57.799  1.00  0.00     0.003 A 
HETATM   26  C   UNL     1      10.112  29.934  57.128  1.00  0.00     0.027 A 
ENDBRANCH  20  21
ENDBRANCH  16  20
ENDBRANCH  15  16
ENDBRANCH   1  15
TORSDOF 7
ENDMDL
MODEL 3
REMARK VINA RESULT:      -8.1      1.958      4.161
REMARK  7 active torsions:
REMARK  status: ('A' for Active; 'I' for Inactive)
REMARK    1  A    between atoms: C_5  and  N_6 
REMARK    2  A    between atoms: N_6  and  C_9 
REMARK    3  A    between atoms: C_9  and  C_10 
REMARK    4  A    between atoms: C_10  and  C_11 
REMARK    5  A    between atoms: C_10  and  C_13 
REMARK    6  A    between atoms: C_11  and  O_12 
REMARK    7  A    between atoms: C_13  and  C_14 
ROOT
HETATM    1  N   UNL     1       6.681  24.713  52.777  1.00  0.00    -0.066 N 
HETATM    2  H   UNL     1       6.701  23.963  52.059  1.00  0.00     0.278 HD
HETATM    3  H   UNL     1       5.717  24.710  53.161  1.00  0.00     0.278 HD
ENDROOT
BRANCH   1   4
HETATM    4  C   UNL     1       7.640  24.346  53.837  1.00  0.00     0.220 C 
HETATM    5  C   UNL     1       7.924  22.873  53.885  1.00  0.00    -0.021 A 
HETATM    6  C   UNL     1       7.938  22.411  55.214  1.00  0.00    -0.040 A 
HETATM    7  C   UNL     1       8.178  22.011  52.827  1.00  0.00     0.010 A 
HETATM    8  C   UNL     1       8.163  21.069  55.510  1.00  0.00    -0.055 A 
HETATM    9  C   UNL     1       7.701  23.548  56.173  1.00  0.00     0.018 C 
HETATM   10  C   UNL     1       8.198  20.549  56.917  1.00  0.00     0.049 C 
HETATM   11  C   UNL     1       8.412  20.203  54.435  1.00  0.00     0.007 A 
HETATM   12  C   UNL     1       8.419  20.667  53.112  1.00  0.00     0.001 A 
HETATM   13  C   UNL     1       7.040  24.577  55.237  1.00  0.00     0.047 C 
HETATM   14  C   UNL     1       8.999  24.066  56.783  1.00  0.00     0.015 C 
ENDBRANCH   1   4
BRANCH   1  15
HETATM   15  C   UNL     1       6.881  25.992  52.047  1.00  0.00     0.240 C 
BRANCH  15  16
HETATM   16  C   UNL     1       5.520  26.612  51.663  1.00  0.00     0.040 C 
BRANCH  16  17
HETATM   17  C   UNL     1       4.652  26.793  52.920  1.00  0.00     0.170 C 
BRANCH  17  18
HETATM   18  O   UNL     1       3.957  25.575  53.191  1.00  0.00    -0.400 OA
HETATM   19  H   UNL     1       4.640  24.874  53.250  1.00  0.00     0.209 HD
ENDBRANCH  17  18
ENDBRANCH  16  17
BRANCH  16  20
HETATM   20  C   UNL     1       4.722  25.809  50.611  1.00  0.00     0.067 C 
BRANCH  20  21
HETATM   21  C   UNL     1       4.311  26.630  49.419  1.00  0.00     0.034 A 
HETATM   22  N   UNL     1       4.620  27.957  49.474  1.00  0.00    -0.266 NA
HETATM   23  C   UNL     1       4.259  28.705  48.401  1.00  0.00     0.117 A 
HETATM   24  C   UNL     1       3.580  28.206  47.303  1.00  0.00     0.019 A 
HETATM   25  C   UNL     1       3.256  26.855  47.285  1.00  0.00     0.003 A 
HETATM   26  C   UNL     1       3.625  26.049  48.357  1.00  0.00     0.027 A 
ENDBRANCH  20  21
ENDBRANCH  16  20
ENDBRANCH  15  16
ENDBRANCH   1  15
TORSDOF 7
ENDMDL
MODEL 4
REMARK VINA RESULT:      -8.1      1.395      1.534
REMARK  7 active torsions:
REMARK  status: ('A' for Active; 'I' for Inactive)
REMARK    1  A    between atoms: C_5  and  N_6 
REMARK    2  A    between atoms: N_6  and  C_9 
REMARK    3  A    between atoms: C_9  and  C_10 
REMARK    4  A    between atoms: C_10  and  C_11 
REMARK    5  A    between atoms: C_10  and  C_13 
REMARK    6  A    between atoms: C_11  and  O_12 
REMARK    7  A    between atoms: C_13  and  C_14 
ROOT
HETATM    1  N   UNL     1       6.132  24.682  52.951  1.00  0.00    -0.066 N 
HETATM    2  H   UNL     1       6.244  24.040  52.143  1.00  0.00     0.278 HD
HETATM    3  H   UNL     1       5.205  24.459  53.361  1.00  0.00     0.278 HD
ENDROOT
BRANCH   1   4
HETATM    4  C   UNL     1       7.195  24.369  53.926  1.00  0.00     0.220 C 
HETATM    5  C   UNL     1       7.616  22.928  53.889  1.00  0.00    -0.021 A 
HETATM    6  C   UNL     1       7.769  22.420  55.192  1.00  0.00    -0.040 A 
HETATM    7  C   UNL     1       7.871  22.134  52.779  1.00  0.00     0.010 A 
HETATM    8  C   UNL     1       8.137  21.095  55.413  1.00  0.00    -0.055 A 
HETATM    9  C   UNL     1       7.499  23.493  56.215  1.00  0.00     0.018 C 
HETATM   10  C   UNL     1       8.322  20.529  56.790  1.00  0.00     0.049 C 
HETATM   11  C   UNL     1       8.386  20.297  54.286  1.00  0.00     0.007 A 
HETATM   12  C   UNL     1       8.254  20.809  52.987  1.00  0.00     0.001 A 
HETATM   13  C   UNL     1       6.679  24.489  55.372  1.00  0.00     0.047 C 
HETATM   14  C   UNL     1       8.784  24.108  56.756  1.00  0.00     0.015 C 
ENDBRANCH   1   4
BRANCH   1  15
HETATM   15  C   UNL     1       6.066  26.055  52.385  1.00  0.00     0.240 C 
BRANCH  15  16
HETATM   16  C   UNL     1       5.717  27.077  53.488  1.00  0.00     0.040 C 
BRANCH  16  17
HETATM   17  C   UNL     1       4.395  27.785  53.148  1.00  0.00     0.170 C 
BRANCH  17  18
HETATM   18  O   UNL     1       3.713  28.115  54.359  1.00  0.00    -0.400 OA
HETATM   19  H   UNL     1       3.068  28.818  54.130  1.00  0.00     0.209 HD
ENDBRANCH  17  18
ENDBRANCH  16  17
BRANCH  16  20
HETATM   20  C   UNL     1       6.808  28.141  53.746  1.00  0.00     0.067 C 
BRANCH  20  21
HETATM   21  C   UNL     1       7.047  28.409  55.207  1.00  0.00     0.034 A 
HETATM   22  N   UNL     1       6.279  29.386  55.767  1.00  0.00    -0.266 NA
HETATM   23  C   UNL     1       6.481  29.631  57.086  1.00  0.00     0.117 A 
HETATM   24  C   UNL     1       7.429  28.981  57.857  1.00  0.00     0.019 A 
HETATM   25  C   UNL     1       8.216  28.007  57.254  1.00  0.00     0.003 A 
HETATM   26  C   UNL     1       8.025  27.712  55.908  1.00  0.00     0.027 A 
ENDBRANCH  20  21
ENDBRANCH  16  20
ENDBRANCH  15  16
ENDBRANCH   1  15
TORSDOF 7
ENDMDL
MODEL 5
REMARK VINA RESULT:      -7.9      3.059      4.606
REMARK  7 active torsions:
REMARK  status: ('A' for Active; 'I' for Inactive)
REMARK    1  A    between atoms: C_5  and  N_6 
REMARK    2  A    between atoms: N_6  and  C_9 
REMARK    3  A    between atoms: C_9  and  C_10 
REMARK    4  A    between atoms: C_10  and  C_11 
REMARK    5  A    between atoms: C_10  and  C_13 
REMARK    6  A    between atoms: C_11  and  O_12 
REMARK    7  A    between atoms: C_13  and  C_14 
ROOT
HETATM    1  N   UNL     1       5.865  26.832  55.883  1.00  0.00    -0.066 N 
HETATM    2  H   UNL     1       6.123  27.564  55.193  1.00  0.00     0.278 HD
HETATM    3  H   UNL     1       4.986  26.408  55.529  1.00  0.00     0.278 HD
ENDROOT
BRANCH   1   4
HETATM    4  C   UNL     1       6.939  25.820  55.886  1.00  0.00     0.220 C 
HETATM    5  C   UNL     1       7.280  25.324  54.511  1.00  0.00    -0.021 A 
HETATM    6  C   UNL     1       7.445  23.927  54.511  1.00  0.00    -0.040 A 
HETATM    7  C   UNL     1       7.456  26.063  53.349  1.00  0.00     0.010 A 
HETATM    8  C   UNL     1       7.747  23.234  53.341  1.00  0.00    -0.055 A 
HETATM    9  C   UNL     1       7.265  23.372  55.899  1.00  0.00     0.018 C 
HETATM   10  C   UNL     1       7.943  21.747  53.313  1.00  0.00     0.049 C 
HETATM   11  C   UNL     1       7.917  23.987  52.170  1.00  0.00     0.007 A 
HETATM   12  C   UNL     1       7.774  25.382  52.173  1.00  0.00     0.001 A 
HETATM   13  C   UNL     1       6.475  24.517  56.563  1.00  0.00     0.047 C 
HETATM   14  C   UNL     1       8.597  23.108  56.590  1.00  0.00     0.015 C 
ENDBRANCH   1   4
BRANCH   1  15
HETATM   15  C   UNL     1       5.554  27.545  57.149  1.00  0.00     0.240 C 
BRANCH  15  16
HETATM   16  C   UNL     1       6.441  28.800  57.294  1.00  0.00     0.040 C 
BRANCH  16  17
HETATM   17  C   UNL     1       6.501  29.558  55.957  1.00  0.00     0.170 C 
BRANCH  17  18
HETATM   18  O   UNL     1       7.705  29.208  55.272  1.00  0.00    -0.400 OA
HETATM   19  H   UNL     1       7.521  29.322  54.315  1.00  0.00     0.209 HD
ENDBRANCH  17  18
ENDBRANCH  16  17
BRANCH  16  20
HETATM   20  C   UNL     1       7.882  28.515  57.778  1.00  0.00     0.067 C 
BRANCH  20  21
HETATM   21  C   UNL     1       8.589  29.737  58.298  1.00  0.00     0.034 A 
HETATM   22  N   UNL     1       9.674  30.148  57.581  1.00  0.00    -0.266 NA
HETATM   23  C   UNL     1      10.315  31.253  58.037  1.00  0.00     0.117 A 
HETATM   24  C   UNL     1       9.952  31.941  59.183  1.00  0.00     0.019 A 
HETATM   25  C   UNL     1       8.858  31.485  59.908  1.00  0.00     0.003 A 
HETATM   26  C   UNL     1       8.162  30.366  59.462  1.00  0.00     0.027 A 
ENDBRANCH  20  21
ENDBRANCH  16  20
ENDBRANCH  15  16
ENDBRANCH   1  15
TORSDOF 7
ENDMDL
MODEL 6
REMARK VINA RESULT:      -7.8      2.550      4.243
REMARK  7 active torsions:
REMARK  status: ('A' for Active; 'I' for Inactive)
REMARK    1  A    between atoms: C_5  and  N_6 
REMARK    2  A    between atoms: N_6  and  C_9 
REMARK    3  A    between atoms: C_9  and  C_10 
REMARK    4  A    between atoms: C_10  and  C_11 
REMARK    5  A    between atoms: C_10  and  C_13 
REMARK    6  A    between atoms: C_11  and  O_12 
REMARK    7  A    between atoms: C_13  and  C_14 
ROOT
HETATM    1  N   UNL     1       8.506  25.177  56.696  1.00  0.00    -0.066 N 
HETATM    2  H   UNL     1       8.823  24.498  57.416  1.00  0.00     0.278 HD
HETATM    3  H   UNL     1       9.370  25.524  56.236  1.00  0.00     0.278 HD
ENDROOT
BRANCH   1   4
HETATM    4  C   UNL     1       7.681  24.443  55.717  1.00  0.00     0.220 C 
HETATM    5  C   UNL     1       7.941  22.964  55.725  1.00  0.00    -0.021 A 
HETATM    6  C   UNL     1       8.015  22.464  54.412  1.00  0.00    -0.040 A 
HETATM    7  C   UNL     1       8.076  22.121  56.819  1.00  0.00     0.010 A 
HETATM    8  C   UNL     1       8.269  21.117  54.165  1.00  0.00    -0.055 A 
HETATM    9  C   UNL     1       7.773  23.563  53.412  1.00  0.00     0.018 C 
HETATM   10  C   UNL     1       8.339  20.552  52.778  1.00  0.00     0.049 C 
HETATM   11  C   UNL     1       8.410  20.272  55.276  1.00  0.00     0.007 A 
HETATM   12  C   UNL     1       8.316  20.766  56.585  1.00  0.00     0.001 A 
HETATM   13  C   UNL     1       8.076  24.804  54.273  1.00  0.00     0.047 C 
HETATM   14  C   UNL     1       6.342  23.556  52.885  1.00  0.00     0.015 C 
ENDBRANCH   1   4
BRANCH   1  15
HETATM   15  C   UNL     1       7.894  26.312  57.436  1.00  0.00     0.240 C 
BRANCH  15  16
HETATM   16  C   UNL     1       8.038  27.621  56.631  1.00  0.00     0.040 C 
BRANCH  16  17
HETATM   17  C   UNL     1       8.891  28.630  57.417  1.00  0.00     0.170 C 
BRANCH  17  18
HETATM   18  O   UNL     1       8.193  29.014  58.603  1.00  0.00    -0.400 OA
HETATM   19  H   UNL     1       8.324  28.288  59.248  1.00  0.00     0.209 HD
ENDBRANCH  17  18
ENDBRANCH  16  17
BRANCH  16  20
HETATM   20  C   UNL     1       6.697  28.287  56.244  1.00  0.00     0.067 C 
BRANCH  20  21
HETATM   21  C   UNL     1       6.184  27.856  54.896  1.00  0.00     0.034 A 
HETATM   22  N   UNL     1       6.846  28.361  53.817  1.00  0.00    -0.266 NA
HETATM   23  C   UNL     1       6.395  27.974  52.598  1.00  0.00     0.117 A 
HETATM   24  C   UNL     1       5.304  27.144  52.403  1.00  0.00     0.019 A 
HETATM   25  C   UNL     1       4.632  26.665  53.521  1.00  0.00     0.003 A 
HETATM   26  C   UNL     1       5.075  27.023  54.790  1.00  0.00     0.027 A 
ENDBRANCH  20  21
ENDBRANCH  16  20
ENDBRANCH  15  16
ENDBRANCH   1  15
TORSDOF 7
ENDMDL
MODEL 7
REMARK VINA RESULT:      -7.5      8.220     12.382
REMARK  7 active torsions:
REMARK  status: ('A' for Active; 'I' for Inactive)
REMARK    1  A    between atoms: C_5  and  N_6 
REMARK    2  A    between atoms: N_6  and  C_9 
REMARK    3  A    between atoms: C_9  and  C_10 
REMARK    4  A    between atoms: C_10  and  C_11 
REMARK    5  A    between atoms: C_10  and  C_13 
REMARK    6  A    between atoms: C_11  and  O_12 
REMARK    7  A    between atoms: C_13  and  C_14 
ROOT
HETATM    1  N   UNL     1       6.513  31.513  62.203  1.00  0.00    -0.066 N 
HETATM    2  H   UNL     1       6.904  30.583  62.450  1.00  0.00     0.278 HD
HETATM    3  H   UNL     1       5.640  31.320  61.676  1.00  0.00     0.278 HD
ENDROOT
BRANCH   1   4
HETATM    4  C   UNL     1       6.189  32.213  63.462  1.00  0.00     0.220 C 
HETATM    5  C   UNL     1       5.103  33.236  63.300  1.00  0.00    -0.021 A 
HETATM    6  C   UNL     1       5.425  34.419  63.989  1.00  0.00    -0.040 A 
HETATM    7  C   UNL     1       3.904  33.115  62.611  1.00  0.00     0.010 A 
HETATM    8  C   UNL     1       4.574  35.522  63.969  1.00  0.00    -0.055 A 
HETATM    9  C   UNL     1       6.742  34.273  64.705  1.00  0.00     0.018 C 
HETATM   10  C   UNL     1       4.884  36.791  64.706  1.00  0.00     0.049 C 
HETATM   11  C   UNL     1       3.368  35.394  63.266  1.00  0.00     0.007 A 
HETATM   12  C   UNL     1       3.036  34.208  62.596  1.00  0.00     0.001 A 
HETATM   13  C   UNL     1       7.362  33.097  63.926  1.00  0.00     0.047 C 
HETATM   14  C   UNL     1       6.560  33.958  66.185  1.00  0.00     0.015 C 
ENDBRANCH   1   4
BRANCH   1  15
HETATM   15  C   UNL     1       7.485  32.139  61.269  1.00  0.00     0.240 C 
BRANCH  15  16
HETATM   16  C   UNL     1       8.508  31.094  60.775  1.00  0.00     0.040 C 
BRANCH  16  17
HETATM   17  C   UNL     1       9.390  30.628  61.945  1.00  0.00     0.170 C 
BRANCH  17  18
HETATM   18  O   UNL     1       8.726  29.574  62.645  1.00  0.00    -0.400 OA
HETATM   19  H   UNL     1       8.107  30.006  63.271  1.00  0.00     0.209 HD
ENDBRANCH  17  18
ENDBRANCH  16  17
BRANCH  16  20
HETATM   20  C   UNL     1       9.415  31.579  59.621  1.00  0.00     0.067 C 
BRANCH  20  21
HETATM   21  C   UNL     1       9.529  30.589  58.494  1.00  0.00     0.034 A 
HETATM   22  N   UNL     1       8.595  29.596  58.476  1.00  0.00    -0.266 NA
HETATM   23  C   UNL     1       8.684  28.702  57.460  1.00  0.00     0.117 A 
HETATM   24  C   UNL     1       9.673  28.728  56.491  1.00  0.00     0.019 A 
HETATM   25  C   UNL     1      10.627  29.737  56.548  1.00  0.00     0.003 A 
HETATM   26  C   UNL     1      10.558  30.685  57.563  1.00  0.00     0.027 A 
ENDBRANCH  20  21
ENDBRANCH  16  20
ENDBRANCH  15  16
ENDBRANCH   1  15
TORSDOF 7
ENDMDL
MODEL 8
REMARK VINA RESULT:      -7.3      2.489      7.613
REMARK  7 active torsions:
REMARK  status: ('A' for Active; 'I' for Inactive)
REMARK    1  A    between atoms: C_5  and  N_6 
REMARK    2  A    between atoms: N_6  and  C_9 
REMARK    3  A    between atoms: C_9  and  C_10 
REMARK    4  A    between atoms: C_10  and  C_11 
REMARK    5  A    between atoms: C_10  and  C_13 
REMARK    6  A    between atoms: C_11  and  O_12 
REMARK    7  A    between atoms: C_13  and  C_14 
ROOT
HETATM    1  N   UNL     1       6.024  26.316  50.885  1.00  0.00    -0.066 N 
HETATM    2  H   UNL     1       5.741  25.344  50.654  1.00  0.00     0.278 HD
HETATM    3  H   UNL     1       6.760  26.566  50.196  1.00  0.00     0.278 HD
ENDROOT
BRANCH   1   4
HETATM    4  C   UNL     1       4.847  27.186  50.693  1.00  0.00     0.220 C 
HETATM    5  C   UNL     1       4.119  26.910  49.410  1.00  0.00    -0.021 A 
HETATM    6  C   UNL     1       3.758  28.111  48.772  1.00  0.00    -0.040 A 
HETATM    7  C   UNL     1       3.778  25.681  48.862  1.00  0.00     0.010 A 
HETATM    8  C   UNL     1       3.088  28.109  47.552  1.00  0.00    -0.055 A 
HETATM    9  C   UNL     1       4.184  29.298  49.597  1.00  0.00     0.018 C 
HETATM   10  C   UNL     1       2.677  29.373  46.856  1.00  0.00     0.049 C 
HETATM   11  C   UNL     1       2.753  26.863  47.001  1.00  0.00     0.007 A 
HETATM   12  C   UNL     1       3.093  25.666  47.646  1.00  0.00     0.001 A 
HETATM   13  C   UNL     1       5.267  28.654  50.485  1.00  0.00     0.047 C 
HETATM   14  C   UNL     1       3.032  29.874  50.412  1.00  0.00     0.015 C 
ENDBRANCH   1   4
BRANCH   1  15
HETATM   15  C   UNL     1       6.655  26.257  52.229  1.00  0.00     0.240 C 
BRANCH  15  16
HETATM   16  C   UNL     1       6.419  24.875  52.876  1.00  0.00     0.040 C 
BRANCH  16  17
HETATM   17  C   UNL     1       5.001  24.808  53.468  1.00  0.00     0.170 C 
BRANCH  17  18
HETATM   18  O   UNL     1       4.573  26.127  53.815  1.00  0.00    -0.400 OA
HETATM   19  H   UNL     1       5.319  26.541  54.298  1.00  0.00     0.209 HD
ENDBRANCH  17  18
ENDBRANCH  16  17
BRANCH  16  20
HETATM   20  C   UNL     1       7.442  24.496  53.971  1.00  0.00     0.067 C 
BRANCH  20  21
HETATM   21  C   UNL     1       7.668  23.013  54.088  1.00  0.00     0.034 A 
HETATM   22  N   UNL     1       7.616  22.500  55.350  1.00  0.00    -0.266 NA
HETATM   23  C   UNL     1       7.811  21.162  55.466  1.00  0.00     0.117 A 
HETATM   24  C   UNL     1       8.091  20.325  54.399  1.00  0.00     0.019 A 
HETATM   25  C   UNL     1       8.163  20.880  53.127  1.00  0.00     0.003 A 
HETATM   26  C   UNL     1       7.948  22.245  52.963  1.00  0.00     0.027 A 
ENDBRANCH  20  21
ENDBRANCH  16  20
ENDBRANCH  15  16
ENDBRANCH   1  15
TORSDOF 7
ENDMDL
MODEL 9
REMARK VINA RESULT:      -7.3      1.705      6.488
REMARK  7 active torsions:
REMARK  status: ('A' for Active; 'I' for Inactive)
REMARK    1  A    between atoms: C_5  and  N_6 
REMARK    2  A    between atoms: N_6  and  C_9 
REMARK    3  A    between atoms: C_9  and  C_10 
REMARK    4  A    between atoms: C_10  and  C_11 
REMARK    5  A    between atoms: C_10  and  C_13 
REMARK    6  A    between atoms: C_11  and  O_12 
REMARK    7  A    between atoms: C_13  and  C_14 
ROOT
HETATM    1  N   UNL     1       6.736  27.116  53.287  1.00  0.00    -0.066 N 
HETATM    2  H   UNL     1       5.704  27.000  53.290  1.00  0.00     0.278 HD
HETATM    3  H   UNL     1       6.926  27.930  52.671  1.00  0.00     0.278 HD
ENDROOT
BRANCH   1   4
HETATM    4  C   UNL     1       7.159  27.427  54.666  1.00  0.00     0.220 C 
HETATM    5  C   UNL     1       6.110  28.163  55.448  1.00  0.00    -0.021 A 
HETATM    6  C   UNL     1       6.684  29.211  56.189  1.00  0.00    -0.040 A 
HETATM    7  C   UNL     1       4.748  27.903  55.516  1.00  0.00     0.010 A 
HETATM    8  C   UNL     1       5.903  30.050  56.981  1.00  0.00    -0.055 A 
HETATM    9  C   UNL     1       8.177  29.242  55.995  1.00  0.00     0.018 C 
HETATM   10  C   UNL     1       6.488  31.166  57.794  1.00  0.00     0.049 C 
HETATM   11  C   UNL     1       4.526  29.785  57.039  1.00  0.00     0.007 A 
HETATM   12  C   UNL     1       3.956  28.727  56.317  1.00  0.00     0.001 A 
HETATM   13  C   UNL     1       8.310  28.450  54.679  1.00  0.00     0.047 C 
HETATM   14  C   UNL     1       8.921  28.580  57.149  1.00  0.00     0.015 C 
ENDBRANCH   1   4
BRANCH   1  15
HETATM   15  C   UNL     1       7.288  25.903  52.628  1.00  0.00     0.240 C 
BRANCH  15  16
HETATM   16  C   UNL     1       6.477  24.654  53.031  1.00  0.00     0.040 C 
BRANCH  16  17
HETATM   17  C   UNL     1       4.975  24.984  53.044  1.00  0.00     0.170 C 
BRANCH  17  18
HETATM   18  O   UNL     1       4.595  25.495  51.765  1.00  0.00    -0.400 OA
HETATM   19  H   UNL     1       5.403  25.478  51.210  1.00  0.00     0.209 HD
ENDBRANCH  17  18
ENDBRANCH  16  17
BRANCH  16  20
HETATM   20  C   UNL     1       6.871  24.045  54.397  1.00  0.00     0.067 C 
BRANCH  20  21
HETATM   21  C   UNL     1       7.453  22.662  54.289  1.00  0.00     0.034 A 
HETATM   22  N   UNL     1       7.606  21.987  55.463  1.00  0.00    -0.266 NA
HETATM   23  C   UNL     1       8.123  20.736  55.376  1.00  0.00     0.117 A 
HETATM   24  C   UNL     1       8.525  20.145  54.190  1.00  0.00     0.019 A 
HETATM   25  C   UNL     1       8.380  20.866  53.011  1.00  0.00     0.003 A 
HETATM   26  C   UNL     1       7.835  22.145  53.056  1.00  0.00     0.027 A 
ENDBRANCH  20  21
ENDBRANCH  16  20
ENDBRANCH  15  16
ENDBRANCH   1  15
TORSDOF 7
ENDMDL
MODEL 10
REMARK VINA RESULT:      -7.1      1.095      2.372
REMARK  7 active torsions:
REMARK  status: ('A' for Active; 'I' for Inactive)
REMARK    1  A    between atoms: C_5  and  N_6 
REMARK    2  A    between atoms: N_6  and  C_9 
REMARK    3  A    between atoms: C_9  and  C_10 
REMARK    4  A    between atoms: C_10  and  C_11 
REMARK    5  A    between atoms: C_10  and  C_13 
REMARK    6  A    between atoms: C_11  and  O_12 
REMARK    7  A    between atoms: C_13  and  C_14 
ROOT
HETATM    1  N   UNL     1       6.558  25.447  52.715  1.00  0.00    -0.066 N 
HETATM    2  H   UNL     1       7.134  25.993  53.384  1.00  0.00     0.278 HD
HETATM    3  H   UNL     1       6.999  25.587  51.785  1.00  0.00     0.278 HD
ENDROOT
BRANCH   1   4
HETATM    4  C   UNL     1       6.650  24.025  53.099  1.00  0.00     0.220 C 
HETATM    5  C   UNL     1       7.105  23.829  54.516  1.00  0.00    -0.021 A 
HETATM    6  C   UNL     1       8.053  22.793  54.597  1.00  0.00    -0.040 A 
HETATM    7  C   UNL     1       6.687  24.506  55.654  1.00  0.00     0.010 A 
HETATM    8  C   UNL     1       8.636  22.440  55.812  1.00  0.00    -0.055 A 
HETATM    9  C   UNL     1       8.286  22.180  53.242  1.00  0.00     0.018 C 
HETATM   10  C   UNL     1       9.638  21.331  55.932  1.00  0.00     0.049 C 
HETATM   11  C   UNL     1       8.213  23.133  56.957  1.00  0.00     0.007 A 
HETATM   12  C   UNL     1       7.252  24.151  56.879  1.00  0.00     0.001 A 
HETATM   13  C   UNL     1       7.775  23.310  52.326  1.00  0.00     0.047 C 
HETATM   14  C   UNL     1       7.506  20.884  53.055  1.00  0.00     0.015 C 
ENDBRANCH   1   4
BRANCH   1  15
HETATM   15  C   UNL     1       5.220  26.094  52.691  1.00  0.00     0.240 C 
BRANCH  15  16
HETATM   16  C   UNL     1       5.365  27.630  52.641  1.00  0.00     0.040 C 
BRANCH  16  17
HETATM   17  C   UNL     1       5.261  28.120  51.187  1.00  0.00     0.170 C 
BRANCH  17  18
HETATM   18  O   UNL     1       5.672  27.072  50.307  1.00  0.00    -0.400 OA
HETATM   19  H   UNL     1       4.854  26.606  50.033  1.00  0.00     0.209 HD
ENDBRANCH  17  18
ENDBRANCH  16  17
BRANCH  16  20
HETATM   20  C   UNL     1       6.672  28.173  53.264  1.00  0.00     0.067 C 
BRANCH  20  21
HETATM   21  C   UNL     1       6.658  28.179  54.769  1.00  0.00     0.034 A 
HETATM   22  N   UNL     1       5.461  28.469  55.353  1.00  0.00    -0.266 NA
HETATM   23  C   UNL     1       5.436  28.470  56.709  1.00  0.00     0.117 A 
HETATM   24  C   UNL     1       6.545  28.234  57.504  1.00  0.00     0.019 A 
HETATM   25  C   UNL     1       7.758  27.966  56.881  1.00  0.00     0.003 A 
HETATM   26  C   UNL     1       7.821  27.936  55.492  1.00  0.00     0.027 A 
ENDBRANCH  20  21
ENDBRANCH  16  20
ENDBRANCH  15  16
ENDBRANCH   1  15
TORSDOF 7
ENDMDL
