MODEL 1
REMARK VINA RESULT:     -10.3      0.000      0.000
REMARK  7 active torsions:
REMARK  status: ('A' for Active; 'I' for Inactive)
REMARK    1  A    between atoms: C_2  and  C_3 
REMARK    2  A    between atoms: C_4  and  O_5 
REMARK    3  A    between atoms: N_10  and  N_11 
REMARK       I    between atoms: N_11  and  C_12 
REMARK    4  A    between atoms: C_12  and  C_13 
REMARK    5  A    between atoms: C_16  and  C_17 
REMARK    6  A    between atoms: C_17  and  S_18 
REMARK    7  A    between atoms: S_18  and  C_19 
ROOT
HETATM    1  C   UNL     1       7.124  27.943  57.380  1.00  0.00     0.033 A 
HETATM    2  C   UNL     1       8.037  28.927  57.771  1.00  0.00     0.017 A 
HETATM    3  C   UNL     1       7.604  30.235  58.007  1.00  0.00     0.009 A 
HETATM    4  C   UNL     1       6.253  30.577  57.844  1.00  0.00    -0.048 A 
HETATM    5  C   UNL     1       5.352  29.596  57.403  1.00  0.00     0.009 A 
HETATM    6  C   UNL     1       5.782  28.287  57.170  1.00  0.00     0.017 A 
ENDROOT
BRANCH   1   7
HETATM    7  C   UNL     1       7.618  26.550  57.207  1.00  0.00     0.271 C 
HETATM    8  N   UNL     1       7.652  26.093  55.897  1.00  0.00    -0.243 N 
HETATM    9  H   UNL     1       7.279  26.663  55.150  1.00  0.00     0.192 HD
HETATM   10  O   UNL     1       7.907  25.878  58.193  1.00  0.00    -0.266 OA
BRANCH   8  11
HETATM   11  N   UNL     1       8.023  24.809  55.648  1.00  0.00    -0.176 NA
HETATM   12  C   UNL     1       7.355  24.101  54.783  1.00  0.00     0.064 C 
HETATM   13  C   UNL     1       6.151  24.614  54.020  1.00  0.00     0.073 C 
BRANCH  12  14
HETATM   14  C   UNL     1       7.799  22.689  54.560  1.00  0.00     0.023 A 
HETATM   15  C   UNL     1       8.179  21.888  55.646  1.00  0.00     0.077 A 
HETATM   16  C   UNL     1       8.549  20.559  55.454  1.00  0.00     0.037 A 
HETATM   17  C   UNL     1       8.572  20.022  54.167  1.00  0.00     0.003 A 
HETATM   18  C   UNL     1       8.231  20.818  53.075  1.00  0.00     0.001 A 
HETATM   19  C   UNL     1       7.848  22.148  53.267  1.00  0.00     0.016 A 
BRANCH  15  20
HETATM   20  O   UNL     1       8.205  22.337  56.940  1.00  0.00    -0.360 OA
HETATM   21  H   UNL     1       8.126  23.320  56.923  1.00  0.00     0.217 HD
ENDBRANCH  15  20
ENDBRANCH  12  14
ENDBRANCH   8  11
ENDBRANCH   1   7
BRANCH   4  22
HETATM   22  C   UNL     1       5.776  31.978  58.141  1.00  0.00     0.121 C 
BRANCH  22  23
HETATM   23  S   UNL     1       4.330  31.991  59.240  1.00  0.00    -0.087 SA
BRANCH  23  24
HETATM   24  C   UNL     1       5.088  32.485  60.707  1.00  0.00     0.167 A 
HETATM   25  N   UNL     1       4.637  33.348  61.583  1.00  0.00    -0.223 NA
HETATM   26  C   UNL     1       5.604  33.392  62.559  1.00  0.00     0.086 A 
HETATM   27  C   UNL     1       6.656  32.529  62.260  1.00  0.00     0.063 A 
HETATM   28  C   UNL     1       5.653  34.148  63.738  1.00  0.00     0.034 A 
HETATM   29  N   UNL     1       6.296  31.963  61.063  1.00  0.00    -0.333 N 
HETATM   30  C   UNL     1       7.774  32.370  63.082  1.00  0.00     0.032 A 
HETATM   31  H   UNL     1       6.817  31.282  60.532  1.00  0.00     0.168 HD
HETATM   32  C   UNL     1       7.803  33.134  64.255  1.00  0.00     0.002 A 
HETATM   33  C   UNL     1       6.763  34.010  64.580  1.00  0.00     0.002 A 
ENDBRANCH  23  24
ENDBRANCH  22  23
ENDBRANCH   4  22
TORSDOF 7
ENDMDL
MODEL 2
REMARK VINA RESULT:     -10.2      1.926      2.469
REMARK  7 active torsions:
REMARK  status: ('A' for Active; 'I' for Inactive)
REMARK    1  A    between atoms: C_2  and  C_3 
REMARK    2  A    between atoms: C_4  and  O_5 
REMARK    3  A    between atoms: N_10  and  N_11 
REMARK       I    between atoms: N_11  and  C_12 
REMARK    4  A    between atoms: C_12  and  C_13 
REMARK    5  A    between atoms: C_16  and  C_17 
REMARK    6  A    between atoms: C_17  and  S_18 
REMARK    7  A    between atoms: S_18  and  C_19 
ROOT
HETATM    1  C   UNL     1       7.695  28.684  56.782  1.00  0.00     0.033 A 
HETATM    2  C   UNL     1       8.947  29.020  57.306  1.00  0.00     0.017 A 
HETATM    3  C   UNL     1       9.066  30.058  58.234  1.00  0.00     0.009 A 
HETATM    4  C   UNL     1       7.934  30.781  58.641  1.00  0.00    -0.048 A 
HETATM    5  C   UNL     1       6.689  30.472  58.073  1.00  0.00     0.009 A 
HETATM    6  C   UNL     1       6.568  29.430  57.148  1.00  0.00     0.017 A 
ENDROOT
BRANCH   1   7
HETATM    7  C   UNL     1       7.607  27.527  55.849  1.00  0.00     0.271 C 
HETATM    8  N   UNL     1       7.274  26.316  56.441  1.00  0.00    -0.243 N 
HETATM    9  H   UNL     1       7.190  26.248  57.446  1.00  0.00     0.192 HD
HETATM   10  O   UNL     1       7.877  27.678  54.661  1.00  0.00    -0.266 OA
BRANCH   8  11
HETATM   11  N   UNL     1       7.240  25.190  55.680  1.00  0.00    -0.176 NA
HETATM   12  C   UNL     1       8.005  24.182  55.986  1.00  0.00     0.064 C 
HETATM   13  C   UNL     1       8.970  24.176  57.153  1.00  0.00     0.073 C 
BRANCH  12  14
HETATM   14  C   UNL     1       7.937  22.974  55.105  1.00  0.00     0.023 A 
HETATM   15  C   UNL     1       7.992  23.112  53.710  1.00  0.00     0.077 A 
HETATM   16  C   UNL     1       7.975  21.991  52.884  1.00  0.00     0.037 A 
HETATM   17  C   UNL     1       7.873  20.717  53.441  1.00  0.00     0.003 A 
HETATM   18  C   UNL     1       7.783  20.567  54.824  1.00  0.00     0.001 A 
HETATM   19  C   UNL     1       7.811  21.691  55.655  1.00  0.00     0.016 A 
BRANCH  15  20
HETATM   20  O   UNL     1       8.072  24.324  53.077  1.00  0.00    -0.360 OA
HETATM   21  H   UNL     1       8.639  24.214  52.278  1.00  0.00     0.217 HD
ENDBRANCH  15  20
ENDBRANCH  12  14
ENDBRANCH   8  11
ENDBRANCH   1   7
BRANCH   4  22
HETATM   22  C   UNL     1       8.053  31.873  59.676  1.00  0.00     0.121 C 
BRANCH  22  23
HETATM   23  S   UNL     1       8.845  31.289  61.202  1.00  0.00    -0.087 SA
BRANCH  23  24
HETATM   24  C   UNL     1       7.780  31.987  62.364  1.00  0.00     0.167 A 
HETATM   25  N   UNL     1       6.471  32.016  62.325  1.00  0.00    -0.223 NA
HETATM   26  C   UNL     1       6.103  32.683  63.469  1.00  0.00     0.086 A 
HETATM   27  C   UNL     1       7.220  33.056  64.213  1.00  0.00     0.063 A 
HETATM   28  C   UNL     1       4.825  33.007  63.945  1.00  0.00     0.034 A 
HETATM   29  N   UNL     1       8.282  32.597  63.475  1.00  0.00    -0.333 N 
HETATM   30  C   UNL     1       7.139  33.744  65.425  1.00  0.00     0.032 A 
HETATM   31  H   UNL     1       9.261  32.684  63.700  1.00  0.00     0.168 HD
HETATM   32  C   UNL     1       5.854  34.059  65.882  1.00  0.00     0.002 A 
HETATM   33  C   UNL     1       4.714  33.699  65.157  1.00  0.00     0.002 A 
ENDBRANCH  23  24
ENDBRANCH  22  23
ENDBRANCH   4  22
TORSDOF 7
ENDMDL
MODEL 3
REMARK VINA RESULT:      -9.8      2.940     11.250
REMARK  7 active torsions:
REMARK  status: ('A' for Active; 'I' for Inactive)
REMARK    1  A    between atoms: C_2  and  C_3 
REMARK    2  A    between atoms: C_4  and  O_5 
REMARK    3  A    between atoms: N_10  and  N_11 
REMARK       I    between atoms: N_11  and  C_12 
REMARK    4  A    between atoms: C_12  and  C_13 
REMARK    5  A    between atoms: C_16  and  C_17 
REMARK    6  A    between atoms: C_17  and  S_18 
REMARK    7  A    between atoms: S_18  and  C_19 
ROOT
HETATM    1  C   UNL     1       6.502  30.537  57.882  1.00  0.00     0.033 A 
HETATM    2  C   UNL     1       7.711  29.845  58.008  1.00  0.00     0.017 A 
HETATM    3  C   UNL     1       8.209  29.098  56.937  1.00  0.00     0.009 A 
HETATM    4  C   UNL     1       7.500  29.027  55.729  1.00  0.00    -0.048 A 
HETATM    5  C   UNL     1       6.264  29.682  55.626  1.00  0.00     0.009 A 
HETATM    6  C   UNL     1       5.765  30.433  56.695  1.00  0.00     0.017 A 
ENDROOT
BRANCH   1   7
HETATM    7  C   UNL     1       6.045  31.375  59.025  1.00  0.00     0.271 C 
HETATM    8  N   UNL     1       6.907  31.411  60.112  1.00  0.00    -0.243 N 
HETATM    9  H   UNL     1       7.734  30.830  60.124  1.00  0.00     0.192 HD
HETATM   10  O   UNL     1       4.949  31.925  58.978  1.00  0.00    -0.266 OA
BRANCH   8  11
HETATM   11  N   UNL     1       6.541  32.092  61.229  1.00  0.00    -0.176 NA
HETATM   12  C   UNL     1       7.190  31.902  62.342  1.00  0.00     0.064 C 
HETATM   13  C   UNL     1       8.348  30.937  62.492  1.00  0.00     0.073 C 
BRANCH  12  14
HETATM   14  C   UNL     1       6.734  32.668  63.544  1.00  0.00     0.023 A 
HETATM   15  C   UNL     1       5.367  32.764  63.846  1.00  0.00     0.077 A 
HETATM   16  C   UNL     1       4.937  33.435  64.988  1.00  0.00     0.037 A 
HETATM   17  C   UNL     1       5.866  34.046  65.828  1.00  0.00     0.003 A 
HETATM   18  C   UNL     1       7.225  33.989  65.522  1.00  0.00     0.001 A 
HETATM   19  C   UNL     1       7.660  33.305  64.382  1.00  0.00     0.016 A 
BRANCH  15  20
HETATM   20  O   UNL     1       4.385  32.212  63.067  1.00  0.00    -0.360 OA
HETATM   21  H   UNL     1       4.574  31.249  62.974  1.00  0.00     0.217 HD
ENDBRANCH  15  20
ENDBRANCH  12  14
ENDBRANCH   8  11
ENDBRANCH   1   7
BRANCH   4  22
HETATM   22  C   UNL     1       8.058  28.257  54.556  1.00  0.00     0.121 C 
BRANCH  22  23
HETATM   23  S   UNL     1       6.752  27.502  53.547  1.00  0.00    -0.087 SA
BRANCH  23  24
HETATM   24  C   UNL     1       7.053  25.839  53.885  1.00  0.00     0.167 A 
HETATM   25  N   UNL     1       7.023  25.248  55.054  1.00  0.00    -0.223 NA
HETATM   26  C   UNL     1       7.335  23.935  54.789  1.00  0.00     0.086 A 
HETATM   27  C   UNL     1       7.550  23.737  53.427  1.00  0.00     0.063 A 
HETATM   28  C   UNL     1       7.451  22.848  55.666  1.00  0.00     0.034 A 
HETATM   29  N   UNL     1       7.364  24.979  52.875  1.00  0.00    -0.333 N 
HETATM   30  C   UNL     1       7.879  22.497  52.877  1.00  0.00     0.032 A 
HETATM   31  H   UNL     1       7.438  25.227  51.900  1.00  0.00     0.168 HD
HETATM   32  C   UNL     1       7.991  21.425  53.769  1.00  0.00     0.002 A 
HETATM   33  C   UNL     1       7.783  21.593  55.141  1.00  0.00     0.002 A 
ENDBRANCH  23  24
ENDBRANCH  22  23
ENDBRANCH   4  22
TORSDOF 7
ENDMDL
MODEL 4
REMARK VINA RESULT:      -9.8      2.966     11.751
REMARK  7 active torsions:
REMARK  status: ('A' for Active; 'I' for Inactive)
REMARK    1  A    between atoms: C_2  and  C_3 
REMARK    2  A    between atoms: C_4  and  O_5 
REMARK    3  A    between atoms: N_10  and  N_11 
REMARK       I    between atoms: N_11  and  C_12 
REMARK    4  A    between atoms: C_12  and  C_13 
REMARK    5  A    between atoms: C_16  and  C_17 
REMARK    6  A    between atoms: C_17  and  S_18 
REMARK    7  A    between atoms: S_18  and  C_19 
ROOT
HETATM    1  C   UNL     1       7.906  30.518  58.628  1.00  0.00     0.033 A 
HETATM    2  C   UNL     1       6.715  29.986  58.124  1.00  0.00     0.017 A 
HETATM    3  C   UNL     1       6.746  28.918  57.224  1.00  0.00     0.009 A 
HETATM    4  C   UNL     1       7.971  28.373  56.810  1.00  0.00    -0.048 A 
HETATM    5  C   UNL     1       9.163  28.944  57.281  1.00  0.00     0.009 A 
HETATM    6  C   UNL     1       9.134  30.010  58.184  1.00  0.00     0.017 A 
ENDROOT
BRANCH   1   7
HETATM    7  C   UNL     1       7.821  31.610  59.637  1.00  0.00     0.271 C 
HETATM    8  N   UNL     1       6.824  31.457  60.589  1.00  0.00    -0.243 N 
HETATM    9  H   UNL     1       6.168  30.692  60.520  1.00  0.00     0.192 HD
HETATM   10  O   UNL     1       8.568  32.581  59.549  1.00  0.00    -0.266 OA
BRANCH   8  11
HETATM   11  N   UNL     1       6.625  32.439  61.508  1.00  0.00    -0.176 NA
HETATM   12  C   UNL     1       5.509  33.110  61.504  1.00  0.00     0.064 C 
HETATM   13  C   UNL     1       4.387  32.880  60.511  1.00  0.00     0.073 C 
BRANCH  12  14
HETATM   14  C   UNL     1       5.350  34.189  62.529  1.00  0.00     0.023 A 
HETATM   15  C   UNL     1       5.055  33.861  63.860  1.00  0.00     0.077 A 
HETATM   16  C   UNL     1       4.951  34.855  64.831  1.00  0.00     0.037 A 
HETATM   17  C   UNL     1       5.111  36.193  64.476  1.00  0.00     0.003 A 
HETATM   18  C   UNL     1       5.370  36.536  63.150  1.00  0.00     0.001 A 
HETATM   19  C   UNL     1       5.487  35.539  62.177  1.00  0.00     0.016 A 
BRANCH  15  20
HETATM   20  O   UNL     1       4.861  32.576  64.293  1.00  0.00    -0.360 OA
HETATM   21  H   UNL     1       5.692  32.272  64.730  1.00  0.00     0.217 HD
ENDBRANCH  15  20
ENDBRANCH  12  14
ENDBRANCH   8  11
ENDBRANCH   1   7
BRANCH   4  22
HETATM   22  C   UNL     1       8.006  27.190  55.873  1.00  0.00     0.121 C 
BRANCH  22  23
HETATM   23  S   UNL     1       6.372  26.425  55.672  1.00  0.00    -0.087 SA
BRANCH  23  24
HETATM   24  C   UNL     1       6.851  24.864  55.119  1.00  0.00     0.167 A 
HETATM   25  N   UNL     1       7.086  24.497  53.883  1.00  0.00    -0.223 NA
HETATM   26  C   UNL     1       7.427  23.169  53.974  1.00  0.00     0.086 A 
HETATM   27  C   UNL     1       7.402  22.734  55.297  1.00  0.00     0.063 A 
HETATM   28  C   UNL     1       7.776  22.263  52.962  1.00  0.00     0.034 A 
HETATM   29  N   UNL     1       7.026  23.845  56.008  1.00  0.00    -0.333 N 
HETATM   30  C   UNL     1       7.711  21.427  55.680  1.00  0.00     0.032 A 
HETATM   31  H   UNL     1       6.900  23.914  57.006  1.00  0.00     0.168 HD
HETATM   32  C   UNL     1       8.056  20.539  54.655  1.00  0.00     0.002 A 
HETATM   33  C   UNL     1       8.088  20.946  53.318  1.00  0.00     0.002 A 
ENDBRANCH  23  24
ENDBRANCH  22  23
ENDBRANCH   4  22
TORSDOF 7
ENDMDL
MODEL 5
REMARK VINA RESULT:      -9.7      1.610      1.998
REMARK  7 active torsions:
REMARK  status: ('A' for Active; 'I' for Inactive)
REMARK    1  A    between atoms: C_2  and  C_3 
REMARK    2  A    between atoms: C_4  and  O_5 
REMARK    3  A    between atoms: N_10  and  N_11 
REMARK       I    between atoms: N_11  and  C_12 
REMARK    4  A    between atoms: C_12  and  C_13 
REMARK    5  A    between atoms: C_16  and  C_17 
REMARK    6  A    between atoms: C_17  and  S_18 
REMARK    7  A    between atoms: S_18  and  C_19 
ROOT
HETATM    1  C   UNL     1       5.322  28.312  56.163  1.00  0.00     0.033 A 
HETATM    2  C   UNL     1       6.424  28.739  56.912  1.00  0.00     0.017 A 
HETATM    3  C   UNL     1       6.348  29.912  57.669  1.00  0.00     0.009 A 
HETATM    4  C   UNL     1       5.172  30.677  57.679  1.00  0.00    -0.048 A 
HETATM    5  C   UNL     1       4.089  30.269  56.886  1.00  0.00     0.009 A 
HETATM    6  C   UNL     1       4.161  29.095  56.131  1.00  0.00     0.017 A 
ENDROOT
BRANCH   1   7
HETATM    7  C   UNL     1       5.426  27.022  55.427  1.00  0.00     0.271 C 
HETATM    8  N   UNL     1       6.211  26.055  56.039  1.00  0.00    -0.243 N 
HETATM    9  H   UNL     1       6.728  26.277  56.879  1.00  0.00     0.192 HD
HETATM   10  O   UNL     1       4.883  26.898  54.334  1.00  0.00    -0.266 OA
BRANCH   8  11
HETATM   11  N   UNL     1       6.422  24.871  55.407  1.00  0.00    -0.176 NA
HETATM   12  C   UNL     1       7.452  24.142  55.729  1.00  0.00     0.064 C 
HETATM   13  C   UNL     1       8.472  24.535  56.778  1.00  0.00     0.073 C 
BRANCH  12  14
HETATM   14  C   UNL     1       7.642  22.854  54.991  1.00  0.00     0.023 A 
HETATM   15  C   UNL     1       7.763  22.852  53.593  1.00  0.00     0.077 A 
HETATM   16  C   UNL     1       7.987  21.664  52.901  1.00  0.00     0.037 A 
HETATM   17  C   UNL     1       8.063  20.458  53.595  1.00  0.00     0.003 A 
HETATM   18  C   UNL     1       7.910  20.441  54.981  1.00  0.00     0.001 A 
HETATM   19  C   UNL     1       7.697  21.634  55.678  1.00  0.00     0.016 A 
BRANCH  15  20
HETATM   20  O   UNL     1       7.681  23.986  52.829  1.00  0.00    -0.360 OA
HETATM   21  H   UNL     1       7.379  23.725  51.927  1.00  0.00     0.217 HD
ENDBRANCH  15  20
ENDBRANCH  12  14
ENDBRANCH   8  11
ENDBRANCH   1   7
BRANCH   4  22
HETATM   22  C   UNL     1       5.073  31.919  58.531  1.00  0.00     0.121 C 
BRANCH  22  23
HETATM   23  S   UNL     1       3.720  31.817  59.737  1.00  0.00    -0.087 SA
BRANCH  23  24
HETATM   24  C   UNL     1       4.572  32.273  61.164  1.00  0.00     0.167 A 
HETATM   25  N   UNL     1       4.069  32.779  62.263  1.00  0.00    -0.223 NA
HETATM   26  C   UNL     1       5.152  32.968  63.088  1.00  0.00     0.086 A 
HETATM   27  C   UNL     1       6.331  32.558  62.468  1.00  0.00     0.063 A 
HETATM   28  C   UNL     1       5.207  33.485  64.389  1.00  0.00     0.034 A 
HETATM   29  N   UNL     1       5.925  32.119  61.233  1.00  0.00    -0.333 N 
HETATM   30  C   UNL     1       7.584  32.633  63.080  1.00  0.00     0.032 A 
HETATM   31  H   UNL     1       6.508  31.746  60.500  1.00  0.00     0.168 HD
HETATM   32  C   UNL     1       7.617  33.153  64.378  1.00  0.00     0.002 A 
HETATM   33  C   UNL     1       6.451  33.574  65.025  1.00  0.00     0.002 A 
ENDBRANCH  23  24
ENDBRANCH  22  23
ENDBRANCH   4  22
TORSDOF 7
ENDMDL
MODEL 6
REMARK VINA RESULT:      -9.7      2.000      2.757
REMARK  7 active torsions:
REMARK  status: ('A' for Active; 'I' for Inactive)
REMARK    1  A    between atoms: C_2  and  C_3 
REMARK    2  A    between atoms: C_4  and  O_5 
REMARK    3  A    between atoms: N_10  and  N_11 
REMARK       I    between atoms: N_11  and  C_12 
REMARK    4  A    between atoms: C_12  and  C_13 
REMARK    5  A    between atoms: C_16  and  C_17 
REMARK    6  A    between atoms: C_17  and  S_18 
REMARK    7  A    between atoms: S_18  and  C_19 
ROOT
HETATM    1  C   UNL     1       5.173  27.954  55.577  1.00  0.00     0.033 A 
HETATM    2  C   UNL     1       5.588  28.137  56.900  1.00  0.00     0.017 A 
HETATM    3  C   UNL     1       5.131  29.233  57.636  1.00  0.00     0.009 A 
HETATM    4  C   UNL     1       4.260  30.167  57.054  1.00  0.00    -0.048 A 
HETATM    5  C   UNL     1       3.888  30.005  55.711  1.00  0.00     0.009 A 
HETATM    6  C   UNL     1       4.342  28.906  54.974  1.00  0.00     0.017 A 
ENDROOT
BRANCH   1   7
HETATM    7  C   UNL     1       5.631  26.735  54.855  1.00  0.00     0.271 C 
HETATM    8  N   UNL     1       5.663  25.575  55.616  1.00  0.00    -0.243 N 
HETATM    9  H   UNL     1       5.465  25.612  56.607  1.00  0.00     0.192 HD
HETATM   10  O   UNL     1       5.998  26.820  53.686  1.00  0.00    -0.266 OA
BRANCH   8  11
HETATM   11  N   UNL     1       6.135  24.428  55.062  1.00  0.00    -0.176 NA
HETATM   12  C   UNL     1       7.092  23.772  55.653  1.00  0.00     0.064 C 
HETATM   13  C   UNL     1       7.748  24.214  56.945  1.00  0.00     0.073 C 
BRANCH  12  14
HETATM   14  C   UNL     1       7.582  22.522  54.990  1.00  0.00     0.023 A 
HETATM   15  C   UNL     1       7.776  22.489  53.601  1.00  0.00     0.077 A 
HETATM   16  C   UNL     1       8.276  21.346  52.981  1.00  0.00     0.037 A 
HETATM   17  C   UNL     1       8.560  20.211  53.739  1.00  0.00     0.003 A 
HETATM   18  C   UNL     1       8.338  20.218  55.115  1.00  0.00     0.001 A 
HETATM   19  C   UNL     1       7.848  21.369  55.741  1.00  0.00     0.016 A 
BRANCH  15  20
HETATM   20  O   UNL     1       7.505  23.549  52.778  1.00  0.00    -0.360 OA
HETATM   21  H   UNL     1       8.362  23.893  52.431  1.00  0.00     0.217 HD
ENDBRANCH  15  20
ENDBRANCH  12  14
ENDBRANCH   8  11
ENDBRANCH   1   7
BRANCH   4  22
HETATM   22  C   UNL     1       3.730  31.328  57.861  1.00  0.00     0.121 C 
BRANCH  22  23
HETATM   23  S   UNL     1       4.722  32.832  57.632  1.00  0.00    -0.087 SA
BRANCH  23  24
HETATM   24  C   UNL     1       5.884  32.602  58.884  1.00  0.00     0.167 A 
HETATM   25  N   UNL     1       7.136  32.239  58.749  1.00  0.00    -0.223 NA
HETATM   26  C   UNL     1       7.626  32.197  60.032  1.00  0.00     0.086 A 
HETATM   27  C   UNL     1       6.645  32.549  60.956  1.00  0.00     0.063 A 
HETATM   28  C   UNL     1       8.909  31.866  60.490  1.00  0.00     0.034 A 
HETATM   29  N   UNL     1       5.537  32.801  60.187  1.00  0.00    -0.333 N 
HETATM   30  C   UNL     1       6.869  32.595  62.333  1.00  0.00     0.032 A 
HETATM   31  H   UNL     1       4.625  33.086  60.510  1.00  0.00     0.168 HD
HETATM   32  C   UNL     1       8.157  32.261  62.769  1.00  0.00     0.002 A 
HETATM   33  C   UNL     1       9.161  31.901  61.867  1.00  0.00     0.002 A 
ENDBRANCH  23  24
ENDBRANCH  22  23
ENDBRANCH   4  22
TORSDOF 7
ENDMDL
MODEL 7
REMARK VINA RESULT:      -9.6      2.877     11.335
REMARK  7 active torsions:
REMARK  status: ('A' for Active; 'I' for Inactive)
REMARK    1  A    between atoms: C_2  and  C_3 
REMARK    2  A    between atoms: C_4  and  O_5 
REMARK    3  A    between atoms: N_10  and  N_11 
REMARK       I    between atoms: N_11  and  C_12 
REMARK    4  A    between atoms: C_12  and  C_13 
REMARK    5  A    between atoms: C_16  and  C_17 
REMARK    6  A    between atoms: C_17  and  S_18 
REMARK    7  A    between atoms: S_18  and  C_19 
ROOT
HETATM    1  C   UNL     1       6.454  29.630  56.896  1.00  0.00     0.033 A 
HETATM    2  C   UNL     1       5.439  28.979  56.187  1.00  0.00     0.017 A 
HETATM    3  C   UNL     1       5.758  28.065  55.180  1.00  0.00     0.009 A 
HETATM    4  C   UNL     1       7.098  27.797  54.862  1.00  0.00    -0.048 A 
HETATM    5  C   UNL     1       8.110  28.490  55.543  1.00  0.00     0.009 A 
HETATM    6  C   UNL     1       7.793  29.403  56.553  1.00  0.00     0.017 A 
ENDROOT
BRANCH   1   7
HETATM    7  C   UNL     1       6.067  30.543  58.006  1.00  0.00     0.271 C 
HETATM    8  N   UNL     1       7.091  30.875  58.882  1.00  0.00    -0.243 N 
HETATM    9  H   UNL     1       7.998  30.440  58.791  1.00  0.00     0.192 HD
HETATM   10  O   UNL     1       4.898  30.900  58.123  1.00  0.00    -0.266 OA
BRANCH   8  11
HETATM   11  N   UNL     1       6.815  31.647  59.967  1.00  0.00    -0.176 NA
HETATM   12  C   UNL     1       7.682  31.732  60.935  1.00  0.00     0.064 C 
HETATM   13  C   UNL     1       9.009  31.001  60.949  1.00  0.00     0.073 C 
BRANCH  12  14
HETATM   14  C   UNL     1       7.320  32.584  62.110  1.00  0.00     0.023 A 
HETATM   15  C   UNL     1       6.281  33.522  62.010  1.00  0.00     0.077 A 
HETATM   16  C   UNL     1       5.906  34.288  63.112  1.00  0.00     0.037 A 
HETATM   17  C   UNL     1       6.585  34.146  64.321  1.00  0.00     0.003 A 
HETATM   18  C   UNL     1       7.642  33.243  64.425  1.00  0.00     0.001 A 
HETATM   19  C   UNL     1       8.012  32.465  63.324  1.00  0.00     0.016 A 
BRANCH  15  20
HETATM   20  O   UNL     1       5.575  33.742  60.857  1.00  0.00    -0.360 OA
HETATM   21  H   UNL     1       4.615  33.650  61.065  1.00  0.00     0.217 HD
ENDBRANCH  15  20
ENDBRANCH  12  14
ENDBRANCH   8  11
ENDBRANCH   1   7
BRANCH   4  22
HETATM   22  C   UNL     1       7.446  26.777  53.805  1.00  0.00     0.121 C 
BRANCH  22  23
HETATM   23  S   UNL     1       6.043  25.695  53.407  1.00  0.00    -0.087 SA
BRANCH  23  24
HETATM   24  C   UNL     1       6.768  24.161  53.708  1.00  0.00     0.167 A 
HETATM   25  N   UNL     1       7.214  23.306  52.821  1.00  0.00    -0.223 NA
HETATM   26  C   UNL     1       7.687  22.249  53.563  1.00  0.00     0.086 A 
HETATM   27  C   UNL     1       7.525  22.483  54.927  1.00  0.00     0.063 A 
HETATM   28  C   UNL     1       8.274  21.049  53.140  1.00  0.00     0.034 A 
HETATM   29  N   UNL     1       6.930  23.718  54.987  1.00  0.00    -0.333 N 
HETATM   30  C   UNL     1       7.922  21.577  55.912  1.00  0.00     0.032 A 
HETATM   31  H   UNL     1       6.658  24.221  55.817  1.00  0.00     0.168 HD
HETATM   32  C   UNL     1       8.506  20.385  55.468  1.00  0.00     0.002 A 
HETATM   33  C   UNL     1       8.680  20.122  54.107  1.00  0.00     0.002 A 
ENDBRANCH  23  24
ENDBRANCH  22  23
ENDBRANCH   4  22
TORSDOF 7
ENDMDL
MODEL 8
REMARK VINA RESULT:      -9.6      2.092      3.043
REMARK  7 active torsions:
REMARK  status: ('A' for Active; 'I' for Inactive)
REMARK    1  A    between atoms: C_2  and  C_3 
REMARK    2  A    between atoms: C_4  and  O_5 
REMARK    3  A    between atoms: N_10  and  N_11 
REMARK       I    between atoms: N_11  and  C_12 
REMARK    4  A    between atoms: C_12  and  C_13 
REMARK    5  A    between atoms: C_16  and  C_17 
REMARK    6  A    between atoms: C_17  and  S_18 
REMARK    7  A    between atoms: S_18  and  C_19 
ROOT
HETATM    1  C   UNL     1       7.954  30.111  58.533  1.00  0.00     0.033 A 
HETATM    2  C   UNL     1       8.741  30.395  59.654  1.00  0.00     0.017 A 
HETATM    3  C   UNL     1       8.320  31.347  60.586  1.00  0.00     0.009 A 
HETATM    4  C   UNL     1       7.111  32.034  60.405  1.00  0.00    -0.048 A 
HETATM    5  C   UNL     1       6.351  31.781  59.253  1.00  0.00     0.009 A 
HETATM    6  C   UNL     1       6.769  30.826  58.320  1.00  0.00     0.017 A 
ENDROOT
BRANCH   1   7
HETATM    7  C   UNL     1       8.409  29.041  57.603  1.00  0.00     0.271 C 
HETATM    8  N   UNL     1       7.408  28.201  57.136  1.00  0.00    -0.243 N 
HETATM    9  H   UNL     1       6.466  28.287  57.490  1.00  0.00     0.192 HD
HETATM   10  O   UNL     1       9.604  28.921  57.349  1.00  0.00    -0.266 OA
BRANCH   8  11
HETATM   11  N   UNL     1       7.739  27.151  56.338  1.00  0.00    -0.176 NA
HETATM   12  C   UNL     1       6.936  26.129  56.250  1.00  0.00     0.064 C 
HETATM   13  C   UNL     1       5.628  26.014  57.005  1.00  0.00     0.073 C 
BRANCH  12  14
HETATM   14  C   UNL     1       7.358  24.996  55.368  1.00  0.00     0.023 A 
HETATM   15  C   UNL     1       8.340  24.092  55.800  1.00  0.00     0.077 A 
HETATM   16  C   UNL     1       8.706  23.007  55.006  1.00  0.00     0.037 A 
HETATM   17  C   UNL     1       8.115  22.830  53.756  1.00  0.00     0.003 A 
HETATM   18  C   UNL     1       7.164  23.741  53.299  1.00  0.00     0.001 A 
HETATM   19  C   UNL     1       6.786  24.823  54.100  1.00  0.00     0.016 A 
BRANCH  15  20
HETATM   20  O   UNL     1       8.986  24.201  57.003  1.00  0.00    -0.360 OA
HETATM   21  H   UNL     1       8.471  23.693  57.673  1.00  0.00     0.217 HD
ENDBRANCH  15  20
ENDBRANCH  12  14
ENDBRANCH   8  11
ENDBRANCH   1   7
BRANCH   4  22
HETATM   22  C   UNL     1       6.633  33.030  61.433  1.00  0.00     0.121 C 
BRANCH  22  23
HETATM   23  S   UNL     1       4.940  32.682  61.990  1.00  0.00    -0.087 SA
BRANCH  23  24
HETATM   24  C   UNL     1       5.073  33.175  63.637  1.00  0.00     0.167 A 
HETATM   25  N   UNL     1       4.096  33.401  64.480  1.00  0.00    -0.223 NA
HETATM   26  C   UNL     1       4.721  33.768  65.648  1.00  0.00     0.086 A 
HETATM   27  C   UNL     1       6.106  33.754  65.500  1.00  0.00     0.063 A 
HETATM   28  C   UNL     1       4.168  34.127  66.884  1.00  0.00     0.034 A 
HETATM   29  N   UNL     1       6.300  33.372  64.197  1.00  0.00    -0.333 N 
HETATM   30  C   UNL     1       6.990  34.082  66.531  1.00  0.00     0.032 A 
HETATM   31  H   UNL     1       7.183  33.251  63.725  1.00  0.00     0.168 HD
HETATM   32  C   UNL     1       6.417  34.437  67.757  1.00  0.00     0.002 A 
HETATM   33  C   UNL     1       5.031  34.462  67.935  1.00  0.00     0.002 A 
ENDBRANCH  23  24
ENDBRANCH  22  23
ENDBRANCH   4  22
TORSDOF 7
ENDMDL
MODEL 9
REMARK VINA RESULT:      -9.2      2.833     10.368
REMARK  7 active torsions:
REMARK  status: ('A' for Active; 'I' for Inactive)
REMARK    1  A    between atoms: C_2  and  C_3 
REMARK    2  A    between atoms: C_4  and  O_5 
REMARK    3  A    between atoms: N_10  and  N_11 
REMARK       I    between atoms: N_11  and  C_12 
REMARK    4  A    between atoms: C_12  and  C_13 
REMARK    5  A    between atoms: C_16  and  C_17 
REMARK    6  A    between atoms: C_17  and  S_18 
REMARK    7  A    between atoms: S_18  and  C_19 
ROOT
HETATM    1  C   UNL     1       7.025  28.578  56.007  1.00  0.00     0.033 A 
HETATM    2  C   UNL     1       5.692  28.582  55.584  1.00  0.00     0.017 A 
HETATM    3  C   UNL     1       5.366  28.196  54.281  1.00  0.00     0.009 A 
HETATM    4  C   UNL     1       6.372  27.811  53.381  1.00  0.00    -0.048 A 
HETATM    5  C   UNL     1       7.711  27.857  53.797  1.00  0.00     0.009 A 
HETATM    6  C   UNL     1       8.038  28.239  55.102  1.00  0.00     0.017 A 
ENDROOT
BRANCH   1   7
HETATM    7  C   UNL     1       7.317  28.930  57.424  1.00  0.00     0.271 C 
HETATM    8  N   UNL     1       7.141  30.268  57.748  1.00  0.00    -0.243 N 
HETATM    9  H   UNL     1       6.915  30.940  57.028  1.00  0.00     0.192 HD
HETATM   10  O   UNL     1       7.735  28.069  58.193  1.00  0.00    -0.266 OA
BRANCH   8  11
HETATM   11  N   UNL     1       7.451  30.696  59.000  1.00  0.00    -0.176 NA
HETATM   12  C   UNL     1       6.678  31.557  59.598  1.00  0.00     0.064 C 
HETATM   13  C   UNL     1       5.428  32.145  58.976  1.00  0.00     0.073 C 
BRANCH  12  14
HETATM   14  C   UNL     1       7.076  32.004  60.969  1.00  0.00     0.023 A 
HETATM   15  C   UNL     1       8.019  31.271  61.706  1.00  0.00     0.077 A 
HETATM   16  C   UNL     1       8.430  31.704  62.964  1.00  0.00     0.037 A 
HETATM   17  C   UNL     1       7.882  32.861  63.516  1.00  0.00     0.003 A 
HETATM   18  C   UNL     1       6.918  33.579  62.810  1.00  0.00     0.001 A 
HETATM   19  C   UNL     1       6.513  33.153  61.541  1.00  0.00     0.016 A 
BRANCH  15  20
HETATM   20  O   UNL     1       8.594  30.113  61.251  1.00  0.00    -0.360 OA
HETATM   21  H   UNL     1       8.982  30.294  60.363  1.00  0.00     0.217 HD
ENDBRANCH  15  20
ENDBRANCH  12  14
ENDBRANCH   8  11
ENDBRANCH   1   7
BRANCH   4  22
HETATM   22  C   UNL     1       6.018  27.352  51.987  1.00  0.00     0.121 C 
BRANCH  22  23
HETATM   23  S   UNL     1       5.065  25.806  51.995  1.00  0.00    -0.087 SA
BRANCH  23  24
HETATM   24  C   UNL     1       6.156  24.800  52.871  1.00  0.00     0.167 A 
HETATM   25  N   UNL     1       7.170  24.122  52.392  1.00  0.00    -0.223 NA
HETATM   26  C   UNL     1       7.711  23.487  53.485  1.00  0.00     0.086 A 
HETATM   27  C   UNL     1       7.006  23.799  54.646  1.00  0.00     0.063 A 
HETATM   28  C   UNL     1       8.812  22.623  53.564  1.00  0.00     0.034 A 
HETATM   29  N   UNL     1       6.013  24.642  54.218  1.00  0.00    -0.333 N 
HETATM   30  C   UNL     1       7.341  23.295  55.904  1.00  0.00     0.032 A 
HETATM   31  H   UNL     1       5.300  25.077  54.783  1.00  0.00     0.168 HD
HETATM   32  C   UNL     1       8.444  22.435  55.962  1.00  0.00     0.002 A 
HETATM   33  C   UNL     1       9.169  22.102  54.814  1.00  0.00     0.002 A 
ENDBRANCH  23  24
ENDBRANCH  22  23
ENDBRANCH   4  22
TORSDOF 7
ENDMDL
MODEL 10
REMARK VINA RESULT:      -8.8      6.243     10.513
REMARK  7 active torsions:
REMARK  status: ('A' for Active; 'I' for Inactive)
REMARK    1  A    between atoms: C_2  and  C_3 
REMARK    2  A    between atoms: C_4  and  O_5 
REMARK    3  A    between atoms: N_10  and  N_11 
REMARK       I    between atoms: N_11  and  C_12 
REMARK    4  A    between atoms: C_12  and  C_13 
REMARK    5  A    between atoms: C_16  and  C_17 
REMARK    6  A    between atoms: C_17  and  S_18 
REMARK    7  A    between atoms: S_18  and  C_19 
ROOT
HETATM    1  C   UNL     1       4.999  27.923  53.372  1.00  0.00     0.033 A 
HETATM    2  C   UNL     1       4.639  27.729  54.709  1.00  0.00     0.017 A 
HETATM    3  C   UNL     1       5.597  27.331  55.645  1.00  0.00     0.009 A 
HETATM    4  C   UNL     1       6.927  27.113  55.253  1.00  0.00    -0.048 A 
HETATM    5  C   UNL     1       7.269  27.260  53.900  1.00  0.00     0.009 A 
HETATM    6  C   UNL     1       6.313  27.662  52.963  1.00  0.00     0.017 A 
ENDROOT
BRANCH   1   7
HETATM    7  C   UNL     1       3.959  28.413  52.425  1.00  0.00     0.271 C 
HETATM    8  N   UNL     1       4.030  27.883  51.144  1.00  0.00    -0.243 N 
HETATM    9  H   UNL     1       4.797  27.277  50.887  1.00  0.00     0.192 HD
HETATM   10  O   UNL     1       3.157  29.268  52.788  1.00  0.00    -0.266 OA
BRANCH   8  11
HETATM   11  N   UNL     1       3.167  28.324  50.192  1.00  0.00    -0.176 NA
HETATM   12  C   UNL     1       3.378  28.027  48.942  1.00  0.00     0.064 C 
HETATM   13  C   UNL     1       4.558  27.212  48.454  1.00  0.00     0.073 C 
BRANCH  12  14
HETATM   14  C   UNL     1       2.402  28.551  47.935  1.00  0.00     0.023 A 
HETATM   15  C   UNL     1       1.174  27.903  47.736  1.00  0.00     0.077 A 
HETATM   16  C   UNL     1       0.241  28.410  46.835  1.00  0.00     0.037 A 
HETATM   17  C   UNL     1       0.535  29.556  46.099  1.00  0.00     0.003 A 
HETATM   18  C   UNL     1       1.766  30.191  46.262  1.00  0.00     0.001 A 
HETATM   19  C   UNL     1       2.699  29.691  47.174  1.00  0.00     0.016 A 
BRANCH  15  20
HETATM   20  O   UNL     1       0.811  26.761  48.400  1.00  0.00    -0.360 OA
HETATM   21  H   UNL     1       1.620  26.214  48.532  1.00  0.00     0.217 HD
ENDBRANCH  15  20
ENDBRANCH  12  14
ENDBRANCH   8  11
ENDBRANCH   1   7
BRANCH   4  22
HETATM   22  C   UNL     1       7.973  26.726  56.270  1.00  0.00     0.121 C 
BRANCH  22  23
HETATM   23  S   UNL     1       7.348  25.516  57.471  1.00  0.00    -0.087 SA
BRANCH  23  24
HETATM   24  C   UNL     1       7.711  24.059  56.624  1.00  0.00     0.167 A 
HETATM   25  N   UNL     1       8.281  22.982  57.105  1.00  0.00    -0.223 NA
HETATM   26  C   UNL     1       8.347  22.117  56.038  1.00  0.00     0.086 A 
HETATM   27  C   UNL     1       7.796  22.690  54.894  1.00  0.00     0.063 A 
HETATM   28  C   UNL     1       8.864  20.816  55.971  1.00  0.00     0.034 A 
HETATM   29  N   UNL     1       7.399  23.938  55.302  1.00  0.00    -0.333 N 
HETATM   30  C   UNL     1       7.728  22.032  53.664  1.00  0.00     0.032 A 
HETATM   31  H   UNL     1       6.954  24.648  54.741  1.00  0.00     0.168 HD
HETATM   32  C   UNL     1       8.250  20.734  53.618  1.00  0.00     0.002 A 
HETATM   33  C   UNL     1       8.810  20.134  54.749  1.00  0.00     0.002 A 
ENDBRANCH  23  24
ENDBRANCH  22  23
ENDBRANCH   4  22
TORSDOF 7
ENDMDL
