MODEL 1
REMARK VINA RESULT:      -8.8      0.000      0.000
REMARK  7 active torsions:
REMARK  status: ('A' for Active; 'I' for Inactive)
REMARK    1  A    between atoms: C_2  and  O_3 
REMARK    2  A    between atoms: O_3  and  C_4 
REMARK    3  A    between atoms: C_4  and  C_5 
REMARK    4  A    between atoms: C_6  and  C_7 
REMARK    5  A    between atoms: C_18  and  C_19 
REMARK    6  A    between atoms: C_19  and  N_20 
REMARK    7  A    between atoms: N_20  and  C_21 
ROOT
HETATM    1  C   UNL     1       7.335  29.836  56.974  1.00  0.00     0.068 A 
HETATM    2  C   UNL     1       8.162  29.137  55.935  1.00  0.00     0.161 A 
HETATM    3  N   UNL     1       9.574  29.432  56.091  1.00  0.00    -0.330 N 
HETATM    4  C   UNL     1      10.122  30.118  57.120  1.00  0.00     0.321 A 
HETATM    5  O   UNL     1      11.336  30.268  57.221  1.00  0.00    -0.247 OA
HETATM    6  N   UNL     1       9.259  30.640  58.033  1.00  0.00    -0.311 N 
HETATM    7  C   UNL     1       7.884  30.535  57.986  1.00  0.00     0.041 A 
HETATM    8  H   UNL     1      10.234  29.034  55.436  1.00  0.00     0.165 HD
HETATM    9  H   UNL     1       9.705  31.158  58.782  1.00  0.00     0.170 HD
ENDROOT
BRANCH   7  10
HETATM   10  C   UNL     1       7.126  31.237  59.093  1.00  0.00     0.150 C 
BRANCH  10  11
HETATM   11  N   UNL     1       7.667  30.772  60.365  1.00  0.00    -0.287 NA
HETATM   12  H   UNL     1       7.429  29.800  60.547  1.00  0.00     0.128 HD
BRANCH  11  13
HETATM   13  C   UNL     1       7.475  31.576  61.497  1.00  0.00     0.010 A 
HETATM   14  C   UNL     1       6.191  32.059  61.777  1.00  0.00     0.047 A 
HETATM   15  C   UNL     1       5.932  32.825  62.923  1.00  0.00     0.041 A 
HETATM   16 CL   UNL     1       4.318  33.394  63.165  1.00  0.00    -0.084 Cl
HETATM   17  C   UNL     1       6.951  33.107  63.840  1.00  0.00    -0.040 A 
HETATM   18  C   UNL     1       6.714  33.912  65.085  1.00  0.00     0.050 C 
HETATM   19  C   UNL     1       8.222  32.574  63.597  1.00  0.00     0.010 A 
HETATM   20  C   UNL     1       8.473  31.811  62.449  1.00  0.00     0.024 A 
ENDBRANCH  11  13
ENDBRANCH  10  11
ENDBRANCH   7  10
BRANCH   1  21
HETATM   21  C   UNL     1       5.866  29.718  56.836  1.00  0.00     0.293 C 
HETATM   22  O   UNL     1       5.174  28.933  57.463  1.00  0.00    -0.259 OA
BRANCH  21  23
HETATM   23  O   UNL     1       5.432  30.601  55.902  1.00  0.00    -0.318 OA
BRANCH  23  24
HETATM   24  C   UNL     1       4.294  30.181  55.136  1.00  0.00     0.174 C 
HETATM   25  C   UNL     1       4.720  29.277  53.994  1.00  0.00     0.034 C 
ENDBRANCH  23  24
ENDBRANCH  21  23
ENDBRANCH   1  21
BRANCH   2  26
HETATM   26  C   UNL     1       7.950  27.627  55.941  1.00  0.00    -0.031 A 
HETATM   27  C   UNL     1       8.257  26.876  57.088  1.00  0.00     0.011 A 
HETATM   28  C   UNL     1       8.110  25.486  57.088  1.00  0.00     0.024 A 
HETATM   29  C   UNL     1       7.653  24.837  55.943  1.00  0.00     0.034 A 
HETATM   30 CL   UNL     1       7.480  23.125  55.943  1.00  0.00    -0.084 Cl
HETATM   31  C   UNL     1       7.338  25.564  54.798  1.00  0.00     0.024 A 
HETATM   32  C   UNL     1       7.486  26.953  54.796  1.00  0.00     0.011 A 
ENDBRANCH   2  26
TORSDOF 7
ENDMDL
MODEL 2
REMARK VINA RESULT:      -8.8      3.454      9.012
REMARK  7 active torsions:
REMARK  status: ('A' for Active; 'I' for Inactive)
REMARK    1  A    between atoms: C_2  and  O_3 
REMARK    2  A    between atoms: O_3  and  C_4 
REMARK    3  A    between atoms: C_4  and  C_5 
REMARK    4  A    between atoms: C_6  and  C_7 
REMARK    5  A    between atoms: C_18  and  C_19 
REMARK    6  A    between atoms: C_19  and  N_20 
REMARK    7  A    between atoms: N_20  and  C_21 
ROOT
HETATM    1  C   UNL     1       6.574  28.254  56.307  1.00  0.00     0.068 A 
HETATM    2  C   UNL     1       6.014  29.562  55.830  1.00  0.00     0.161 A 
HETATM    3  N   UNL     1       5.000  29.367  54.811  1.00  0.00    -0.330 N 
HETATM    4  C   UNL     1       4.492  28.172  54.428  1.00  0.00     0.321 A 
HETATM    5  O   UNL     1       3.584  28.092  53.608  1.00  0.00    -0.247 OA
HETATM    6  N   UNL     1       5.046  27.066  54.993  1.00  0.00    -0.311 N 
HETATM    7  C   UNL     1       6.079  27.066  55.909  1.00  0.00     0.041 A 
HETATM    8  H   UNL     1       4.560  30.177  54.395  1.00  0.00     0.165 HD
HETATM    9  H   UNL     1       4.649  26.189  54.673  1.00  0.00     0.170 HD
ENDROOT
BRANCH   7  10
HETATM   10  C   UNL     1       6.561  25.705  56.367  1.00  0.00     0.150 C 
BRANCH  10  11
HETATM   11  N   UNL     1       7.815  25.424  55.677  1.00  0.00    -0.287 NA
HETATM   12  H   UNL     1       8.134  26.218  55.128  1.00  0.00     0.128 HD
BRANCH  11  13
HETATM   13  C   UNL     1       7.919  24.221  54.963  1.00  0.00     0.010 A 
HETATM   14  C   UNL     1       7.865  23.010  55.663  1.00  0.00     0.047 A 
HETATM   15  C   UNL     1       7.912  21.778  54.995  1.00  0.00     0.041 A 
HETATM   16 CL   UNL     1       7.865  20.339  55.951  1.00  0.00    -0.084 Cl
HETATM   17  C   UNL     1       7.987  21.724  53.598  1.00  0.00    -0.040 A 
HETATM   18  C   UNL     1       8.026  20.427  52.843  1.00  0.00     0.050 C 
HETATM   19  C   UNL     1       7.977  22.932  52.891  1.00  0.00     0.010 A 
HETATM   20  C   UNL     1       7.931  24.158  53.566  1.00  0.00     0.024 A 
ENDBRANCH  11  13
ENDBRANCH  10  11
ENDBRANCH   7  10
BRANCH   1  21
HETATM   21  C   UNL     1       7.710  28.329  57.252  1.00  0.00     0.293 C 
HETATM   22  O   UNL     1       7.648  28.031  58.433  1.00  0.00    -0.259 OA
BRANCH  21  23
HETATM   23  O   UNL     1       8.806  28.792  56.598  1.00  0.00    -0.318 OA
BRANCH  23  24
HETATM   24  C   UNL     1       9.596  29.749  57.319  1.00  0.00     0.174 C 
HETATM   25  C   UNL     1      11.057  29.649  56.918  1.00  0.00     0.034 C 
ENDBRANCH  23  24
ENDBRANCH  21  23
ENDBRANCH   1  21
BRANCH   2  26
HETATM   26  C   UNL     1       5.442  30.399  56.968  1.00  0.00    -0.031 A 
HETATM   27  C   UNL     1       4.140  30.157  57.439  1.00  0.00     0.011 A 
HETATM   28  C   UNL     1       3.591  30.949  58.450  1.00  0.00     0.024 A 
HETATM   29  C   UNL     1       4.338  31.989  59.001  1.00  0.00     0.034 A 
HETATM   30 CL   UNL     1       3.656  32.967  60.240  1.00  0.00    -0.084 Cl
HETATM   31  C   UNL     1       5.631  32.242  58.551  1.00  0.00     0.024 A 
HETATM   32  C   UNL     1       6.181  31.451  57.540  1.00  0.00     0.011 A 
ENDBRANCH   2  26
TORSDOF 7
ENDMDL
MODEL 3
REMARK VINA RESULT:      -8.7      4.054      8.712
REMARK  7 active torsions:
REMARK  status: ('A' for Active; 'I' for Inactive)
REMARK    1  A    between atoms: C_2  and  O_3 
REMARK    2  A    between atoms: O_3  and  C_4 
REMARK    3  A    between atoms: C_4  and  C_5 
REMARK    4  A    between atoms: C_6  and  C_7 
REMARK    5  A    between atoms: C_18  and  C_19 
REMARK    6  A    between atoms: C_19  and  N_20 
REMARK    7  A    between atoms: N_20  and  C_21 
ROOT
HETATM    1  C   UNL     1       5.502  27.513  54.878  1.00  0.00     0.068 A 
HETATM    2  C   UNL     1       5.091  28.080  56.206  1.00  0.00     0.161 A 
HETATM    3  N   UNL     1       4.631  27.041  57.109  1.00  0.00    -0.330 N 
HETATM    4  C   UNL     1       4.698  25.710  56.872  1.00  0.00     0.321 A 
HETATM    5  O   UNL     1       4.354  24.888  57.714  1.00  0.00    -0.247 OA
HETATM    6  N   UNL     1       5.159  25.331  55.649  1.00  0.00    -0.311 N 
HETATM    7  C   UNL     1       5.549  26.189  54.640  1.00  0.00     0.041 A 
HETATM    8  H   UNL     1       4.307  27.300  58.031  1.00  0.00     0.165 HD
HETATM    9  H   UNL     1       5.183  24.328  55.504  1.00  0.00     0.170 HD
ENDROOT
BRANCH   7  10
HETATM   10  C   UNL     1       5.986  25.535  53.345  1.00  0.00     0.150 C 
BRANCH  10  11
HETATM   11  N   UNL     1       7.419  25.276  53.442  1.00  0.00    -0.287 NA
HETATM   12  H   UNL     1       7.898  25.452  52.562  1.00  0.00     0.128 HD
BRANCH  11  13
HETATM   13  C   UNL     1       7.832  24.071  54.029  1.00  0.00     0.010 A 
HETATM   14  C   UNL     1       7.886  22.915  53.240  1.00  0.00     0.047 A 
HETATM   15  C   UNL     1       8.341  21.696  53.762  1.00  0.00     0.041 A 
HETATM   16 CL   UNL     1       8.346  20.322  52.713  1.00  0.00    -0.084 Cl
HETATM   17  C   UNL     1       8.783  21.605  55.087  1.00  0.00    -0.040 A 
HETATM   18  C   UNL     1       9.290  20.322  55.680  1.00  0.00     0.050 C 
HETATM   19  C   UNL     1       8.790  22.771  55.860  1.00  0.00     0.010 A 
HETATM   20  C   UNL     1       8.333  23.985  55.332  1.00  0.00     0.024 A 
ENDBRANCH  11  13
ENDBRANCH  10  11
ENDBRANCH   7  10
BRANCH   1  21
HETATM   21  C   UNL     1       5.864  28.491  53.828  1.00  0.00     0.293 C 
HETATM   22  O   UNL     1       6.957  28.556  53.291  1.00  0.00    -0.259 OA
BRANCH  21  23
HETATM   23  O   UNL     1       4.800  29.297  53.582  1.00  0.00    -0.318 OA
BRANCH  23  24
HETATM   24  C   UNL     1       3.694  28.673  52.914  1.00  0.00     0.174 C 
HETATM   25  C   UNL     1       3.945  28.593  51.420  1.00  0.00     0.034 C 
ENDBRANCH  23  24
ENDBRANCH  21  23
ENDBRANCH   1  21
BRANCH   2  26
HETATM   26  C   UNL     1       6.206  28.879  56.869  1.00  0.00    -0.031 A 
HETATM   27  C   UNL     1       7.477  28.305  57.047  1.00  0.00     0.011 A 
HETATM   28  C   UNL     1       8.492  29.013  57.695  1.00  0.00     0.024 A 
HETATM   29  C   UNL     1       8.248  30.300  58.169  1.00  0.00     0.034 A 
HETATM   30 CL   UNL     1       9.498  31.166  58.973  1.00  0.00    -0.084 Cl
HETATM   31  C   UNL     1       6.997  30.888  57.998  1.00  0.00     0.024 A 
HETATM   32  C   UNL     1       5.981  30.181  57.352  1.00  0.00     0.011 A 
ENDBRANCH   2  26
TORSDOF 7
ENDMDL
MODEL 4
REMARK VINA RESULT:      -8.7      2.506      8.416
REMARK  7 active torsions:
REMARK  status: ('A' for Active; 'I' for Inactive)
REMARK    1  A    between atoms: C_2  and  O_3 
REMARK    2  A    between atoms: O_3  and  C_4 
REMARK    3  A    between atoms: C_4  and  C_5 
REMARK    4  A    between atoms: C_6  and  C_7 
REMARK    5  A    between atoms: C_18  and  C_19 
REMARK    6  A    between atoms: C_19  and  N_20 
REMARK    7  A    between atoms: N_20  and  C_21 
ROOT
HETATM    1  C   UNL     1       6.400  29.676  57.429  1.00  0.00     0.068 A 
HETATM    2  C   UNL     1       6.352  31.163  57.623  1.00  0.00     0.161 A 
HETATM    3  N   UNL     1       5.026  31.691  57.367  1.00  0.00    -0.330 N 
HETATM    4  C   UNL     1       3.918  30.950  57.133  1.00  0.00     0.321 A 
HETATM    5  O   UNL     1       2.814  31.466  56.995  1.00  0.00    -0.247 OA
HETATM    6  N   UNL     1       4.092  29.603  57.053  1.00  0.00    -0.311 N 
HETATM    7  C   UNL     1       5.298  28.943  57.178  1.00  0.00     0.041 A 
HETATM    8  H   UNL     1       4.870  32.687  57.444  1.00  0.00     0.165 HD
HETATM    9  H   UNL     1       3.243  29.082  56.864  1.00  0.00     0.170 HD
ENDROOT
BRANCH   7  10
HETATM   10  C   UNL     1       5.253  27.439  57.006  1.00  0.00     0.150 C 
BRANCH  10  11
HETATM   11  N   UNL     1       4.938  27.162  55.609  1.00  0.00    -0.287 NA
HETATM   12  H   UNL     1       3.936  27.080  55.454  1.00  0.00     0.128 HD
BRANCH  11  13
HETATM   13  C   UNL     1       5.652  26.142  54.962  1.00  0.00     0.010 A 
HETATM   14  C   UNL     1       6.726  25.539  55.627  1.00  0.00     0.047 A 
HETATM   15  C   UNL     1       7.441  24.481  55.048  1.00  0.00     0.041 A 
HETATM   16 CL   UNL     1       8.767  23.821  55.940  1.00  0.00    -0.084 Cl
HETATM   17  C   UNL     1       7.081  23.976  53.794  1.00  0.00    -0.040 A 
HETATM   18  C   UNL     1       7.812  22.836  53.145  1.00  0.00     0.050 C 
HETATM   19  C   UNL     1       5.969  24.533  53.154  1.00  0.00     0.010 A 
HETATM   20  C   UNL     1       5.261  25.592  53.737  1.00  0.00     0.024 A 
ENDBRANCH  11  13
ENDBRANCH  10  11
ENDBRANCH   7  10
BRANCH   1  21
HETATM   21  C   UNL     1       7.732  29.040  57.533  1.00  0.00     0.293 C 
HETATM   22  O   UNL     1       8.047  28.231  58.389  1.00  0.00    -0.259 OA
BRANCH  21  23
HETATM   23  O   UNL     1       8.532  29.514  56.544  1.00  0.00    -0.318 OA
BRANCH  23  24
HETATM   24  C   UNL     1       9.906  29.105  56.612  1.00  0.00     0.174 C 
HETATM   25  C   UNL     1      10.766  30.209  57.197  1.00  0.00     0.034 C 
ENDBRANCH  23  24
ENDBRANCH  21  23
ENDBRANCH   1  21
BRANCH   2  26
HETATM   26  C   UNL     1       6.812  31.584  59.014  1.00  0.00    -0.031 A 
HETATM   27  C   UNL     1       8.181  31.602  59.330  1.00  0.00     0.011 A 
HETATM   28  C   UNL     1       8.610  31.942  60.616  1.00  0.00     0.024 A 
HETATM   29  C   UNL     1       7.674  32.267  61.596  1.00  0.00     0.034 A 
HETATM   30 CL   UNL     1       8.204  32.677  63.180  1.00  0.00    -0.084 Cl
HETATM   31  C   UNL     1       6.313  32.259  61.301  1.00  0.00     0.024 A 
HETATM   32  C   UNL     1       5.883  31.919  60.017  1.00  0.00     0.011 A 
ENDBRANCH   2  26
TORSDOF 7
ENDMDL
MODEL 5
REMARK VINA RESULT:      -8.5      6.324      8.940
REMARK  7 active torsions:
REMARK  status: ('A' for Active; 'I' for Inactive)
REMARK    1  A    between atoms: C_2  and  O_3 
REMARK    2  A    between atoms: O_3  and  C_4 
REMARK    3  A    between atoms: C_4  and  C_5 
REMARK    4  A    between atoms: C_6  and  C_7 
REMARK    5  A    between atoms: C_18  and  C_19 
REMARK    6  A    between atoms: C_19  and  N_20 
REMARK    7  A    between atoms: N_20  and  C_21 
ROOT
HETATM    1  C   UNL     1       5.926  26.576  52.693  1.00  0.00     0.068 A 
HETATM    2  C   UNL     1       7.357  26.220  52.973  1.00  0.00     0.161 A 
HETATM    3  N   UNL     1       7.969  27.159  53.893  1.00  0.00    -0.330 N 
HETATM    4  C   UNL     1       7.322  28.148  54.551  1.00  0.00     0.321 A 
HETATM    5  O   UNL     1       7.894  28.860  55.370  1.00  0.00    -0.247 OA
HETATM    6  N   UNL     1       6.005  28.317  54.255  1.00  0.00    -0.311 N 
HETATM    7  C   UNL     1       5.289  27.574  53.337  1.00  0.00     0.041 A 
HETATM    8  H   UNL     1       8.941  27.038  54.144  1.00  0.00     0.165 HD
HETATM    9  H   UNL     1       5.556  29.074  54.758  1.00  0.00     0.170 HD
ENDROOT
BRANCH   7  10
HETATM   10  C   UNL     1       3.842  27.974  53.142  1.00  0.00     0.150 C 
BRANCH  10  11
HETATM   11  N   UNL     1       3.825  29.344  52.639  1.00  0.00    -0.287 NA
HETATM   12  H   UNL     1       3.029  29.869  52.992  1.00  0.00     0.128 HD
BRANCH  11  13
HETATM   13  C   UNL     1       4.013  29.543  51.264  1.00  0.00     0.010 A 
HETATM   14  C   UNL     1       2.903  29.490  50.412  1.00  0.00     0.047 A 
HETATM   15  C   UNL     1       3.025  29.732  49.037  1.00  0.00     0.041 A 
HETATM   16 CL   UNL     1       1.598  29.617  48.067  1.00  0.00    -0.084 Cl
HETATM   17  C   UNL     1       4.264  30.064  48.476  1.00  0.00    -0.040 A 
HETATM   18  C   UNL     1       4.436  30.344  47.011  1.00  0.00     0.050 C 
HETATM   19  C   UNL     1       5.364  30.181  49.333  1.00  0.00     0.010 A 
HETATM   20  C   UNL     1       5.234  29.935  50.706  1.00  0.00     0.024 A 
ENDBRANCH  11  13
ENDBRANCH  10  11
ENDBRANCH   7  10
BRANCH   1  21
HETATM   21  C   UNL     1       5.234  25.768  51.665  1.00  0.00     0.293 C 
HETATM   22  O   UNL     1       4.623  24.737  51.893  1.00  0.00    -0.259 OA
BRANCH  21  23
HETATM   23  O   UNL     1       5.405  26.347  50.450  1.00  0.00    -0.318 OA
BRANCH  23  24
HETATM   24  C   UNL     1       4.308  26.203  49.537  1.00  0.00     0.174 C 
HETATM   25  C   UNL     1       4.746  26.515  48.118  1.00  0.00     0.034 C 
ENDBRANCH  23  24
ENDBRANCH  21  23
ENDBRANCH   1  21
BRANCH   2  26
HETATM   26  C   UNL     1       7.508  24.802  53.510  1.00  0.00    -0.031 A 
HETATM   27  C   UNL     1       7.986  23.777  52.676  1.00  0.00     0.011 A 
HETATM   28  C   UNL     1       8.085  22.465  53.146  1.00  0.00     0.024 A 
HETATM   29  C   UNL     1       7.708  22.166  54.454  1.00  0.00     0.034 A 
HETATM   30 CL   UNL     1       7.823  20.549  55.028  1.00  0.00    -0.084 Cl
HETATM   31  C   UNL     1       7.236  23.169  55.298  1.00  0.00     0.024 A 
HETATM   32  C   UNL     1       7.136  24.480  54.829  1.00  0.00     0.011 A 
ENDBRANCH   2  26
TORSDOF 7
ENDMDL
MODEL 6
REMARK VINA RESULT:      -8.4      2.325      3.838
REMARK  7 active torsions:
REMARK  status: ('A' for Active; 'I' for Inactive)
REMARK    1  A    between atoms: C_2  and  O_3 
REMARK    2  A    between atoms: O_3  and  C_4 
REMARK    3  A    between atoms: C_4  and  C_5 
REMARK    4  A    between atoms: C_6  and  C_7 
REMARK    5  A    between atoms: C_18  and  C_19 
REMARK    6  A    between atoms: C_19  and  N_20 
REMARK    7  A    between atoms: N_20  and  C_21 
ROOT
HETATM    1  C   UNL     1       6.627  28.704  57.431  1.00  0.00     0.068 A 
HETATM    2  C   UNL     1       5.341  28.110  56.934  1.00  0.00     0.161 A 
HETATM    3  N   UNL     1       4.211  28.974  57.218  1.00  0.00    -0.330 N 
HETATM    4  C   UNL     1       4.289  30.227  57.724  1.00  0.00     0.321 A 
HETATM    5  O   UNL     1       3.292  30.926  57.871  1.00  0.00    -0.247 OA
HETATM    6  N   UNL     1       5.529  30.669  58.068  1.00  0.00    -0.311 N 
HETATM    7  C   UNL     1       6.698  29.944  57.952  1.00  0.00     0.041 A 
HETATM    8  H   UNL     1       3.283  28.674  56.950  1.00  0.00     0.165 HD
HETATM    9  H   UNL     1       5.547  31.606  58.455  1.00  0.00     0.170 HD
ENDROOT
BRANCH   7  10
HETATM   10  C   UNL     1       7.956  30.630  58.441  1.00  0.00     0.150 C 
BRANCH  10  11
HETATM   11  N   UNL     1       7.593  31.981  58.852  1.00  0.00    -0.287 NA
HETATM   12  H   UNL     1       8.069  32.689  58.298  1.00  0.00     0.128 HD
BRANCH  11  13
HETATM   13  C   UNL     1       7.622  32.284  60.221  1.00  0.00     0.010 A 
HETATM   14  C   UNL     1       6.486  32.846  60.816  1.00  0.00     0.047 A 
HETATM   15  C   UNL     1       6.443  33.121  62.191  1.00  0.00     0.041 A 
HETATM   16 CL   UNL     1       5.003  33.838  62.825  1.00  0.00    -0.084 Cl
HETATM   17  C   UNL     1       7.530  32.814  63.017  1.00  0.00    -0.040 A 
HETATM   18  C   UNL     1       7.519  33.080  64.494  1.00  0.00     0.050 C 
HETATM   19  C   UNL     1       8.643  32.195  62.437  1.00  0.00     0.010 A 
HETATM   20  C   UNL     1       8.680  31.925  61.063  1.00  0.00     0.024 A 
ENDBRANCH  11  13
ENDBRANCH  10  11
ENDBRANCH   7  10
BRANCH   1  21
HETATM   21  C   UNL     1       7.832  27.853  57.317  1.00  0.00     0.293 C 
HETATM   22  O   UNL     1       8.828  28.148  56.679  1.00  0.00    -0.259 OA
BRANCH  21  23
HETATM   23  O   UNL     1       7.638  26.706  58.016  1.00  0.00    -0.318 OA
BRANCH  23  24
HETATM   24  C   UNL     1       8.365  25.564  57.542  1.00  0.00     0.174 C 
HETATM   25  C   UNL     1       7.417  24.514  56.992  1.00  0.00     0.034 C 
ENDBRANCH  23  24
ENDBRANCH  21  23
ENDBRANCH   1  21
BRANCH   2  26
HETATM   26  C   UNL     1       5.383  27.795  55.444  1.00  0.00    -0.031 A 
HETATM   27  C   UNL     1       5.300  26.464  55.000  1.00  0.00     0.011 A 
HETATM   28  C   UNL     1       5.385  26.161  53.639  1.00  0.00     0.024 A 
HETATM   29  C   UNL     1       5.552  27.185  52.709  1.00  0.00     0.034 A 
HETATM   30 CL   UNL     1       5.664  26.809  51.034  1.00  0.00    -0.084 Cl
HETATM   31  C   UNL     1       5.633  28.511  53.128  1.00  0.00     0.024 A 
HETATM   32  C   UNL     1       5.549  28.815  54.489  1.00  0.00     0.011 A 
ENDBRANCH   2  26
TORSDOF 7
ENDMDL
MODEL 7
REMARK VINA RESULT:      -8.1      7.567     10.313
REMARK  7 active torsions:
REMARK  status: ('A' for Active; 'I' for Inactive)
REMARK    1  A    between atoms: C_2  and  O_3 
REMARK    2  A    between atoms: O_3  and  C_4 
REMARK    3  A    between atoms: C_4  and  C_5 
REMARK    4  A    between atoms: C_6  and  C_7 
REMARK    5  A    between atoms: C_18  and  C_19 
REMARK    6  A    between atoms: C_19  and  N_20 
REMARK    7  A    between atoms: N_20  and  C_21 
ROOT
HETATM    1  C   UNL     1       4.491  27.380  50.542  1.00  0.00     0.068 A 
HETATM    2  C   UNL     1       3.656  28.610  50.749  1.00  0.00     0.161 A 
HETATM    3  N   UNL     1       3.492  28.911  52.159  1.00  0.00    -0.330 N 
HETATM    4  C   UNL     1       4.122  28.277  53.175  1.00  0.00     0.321 A 
HETATM    5  O   UNL     1       3.987  28.634  54.340  1.00  0.00    -0.247 OA
HETATM    6  N   UNL     1       4.908  27.218  52.838  1.00  0.00    -0.311 N 
HETATM    7  C   UNL     1       5.101  26.740  51.557  1.00  0.00     0.041 A 
HETATM    8  H   UNL     1       2.931  29.707  52.429  1.00  0.00     0.165 HD
HETATM    9  H   UNL     1       5.354  26.761  53.625  1.00  0.00     0.170 HD
ENDROOT
BRANCH   7  10
HETATM   10  C   UNL     1       5.988  25.518  51.431  1.00  0.00     0.150 C 
BRANCH  10  11
HETATM   11  N   UNL     1       6.988  25.586  52.491  1.00  0.00    -0.287 NA
HETATM   12  H   UNL     1       7.883  25.928  52.149  1.00  0.00     0.128 HD
BRANCH  11  13
HETATM   13  C   UNL     1       7.140  24.468  53.325  1.00  0.00     0.010 A 
HETATM   14  C   UNL     1       7.584  23.262  52.769  1.00  0.00     0.047 A 
HETATM   15  C   UNL     1       7.803  22.129  53.565  1.00  0.00     0.041 A 
HETATM   16 CL   UNL     1       8.326  20.681  52.779  1.00  0.00    -0.084 Cl
HETATM   17  C   UNL     1       7.610  22.179  54.950  1.00  0.00    -0.040 A 
HETATM   18  C   UNL     1       7.846  20.992  55.839  1.00  0.00     0.050 C 
HETATM   19  C   UNL     1       7.228  23.399  55.518  1.00  0.00     0.010 A 
HETATM   20  C   UNL     1       7.009  24.527  54.717  1.00  0.00     0.024 A 
ENDBRANCH  11  13
ENDBRANCH  10  11
ENDBRANCH   7  10
BRANCH   1  21
HETATM   21  C   UNL     1       4.618  26.898  49.149  1.00  0.00     0.293 C 
HETATM   22  O   UNL     1       5.455  27.293  48.354  1.00  0.00    -0.259 OA
BRANCH  21  23
HETATM   23  O   UNL     1       3.655  25.973  48.906  1.00  0.00    -0.318 OA
BRANCH  23  24
HETATM   24  C   UNL     1       2.904  26.166  47.699  1.00  0.00     0.174 C 
HETATM   25  C   UNL     1       1.708  27.067  47.950  1.00  0.00     0.034 C 
ENDBRANCH  23  24
ENDBRANCH  21  23
ENDBRANCH   1  21
BRANCH   2  26
HETATM   26  C   UNL     1       4.224  29.827  50.028  1.00  0.00    -0.031 A 
HETATM   27  C   UNL     1       3.498  30.437  48.992  1.00  0.00     0.011 A 
HETATM   28  C   UNL     1       4.030  31.524  48.294  1.00  0.00     0.024 A 
HETATM   29  C   UNL     1       5.293  32.011  48.626  1.00  0.00     0.034 A 
HETATM   30 CL   UNL     1       5.949  33.345  47.760  1.00  0.00    -0.084 Cl
HETATM   31  C   UNL     1       6.027  31.424  49.654  1.00  0.00     0.024 A 
HETATM   32  C   UNL     1       5.496  30.336  50.351  1.00  0.00     0.011 A 
ENDBRANCH   2  26
TORSDOF 7
ENDMDL
MODEL 8
REMARK VINA RESULT:      -8.0      6.497     10.265
REMARK  7 active torsions:
REMARK  status: ('A' for Active; 'I' for Inactive)
REMARK    1  A    between atoms: C_2  and  O_3 
REMARK    2  A    between atoms: O_3  and  C_4 
REMARK    3  A    between atoms: C_4  and  C_5 
REMARK    4  A    between atoms: C_6  and  C_7 
REMARK    5  A    between atoms: C_18  and  C_19 
REMARK    6  A    between atoms: C_19  and  N_20 
REMARK    7  A    between atoms: N_20  and  C_21 
ROOT
HETATM    1  C   UNL     1       5.079  27.739  51.211  1.00  0.00     0.068 A 
HETATM    2  C   UNL     1       4.959  28.770  50.127  1.00  0.00     0.161 A 
HETATM    3  N   UNL     1       5.024  28.168  48.809  1.00  0.00    -0.330 N 
HETATM    4  C   UNL     1       5.035  26.839  48.554  1.00  0.00     0.321 A 
HETATM    5  O   UNL     1       5.019  26.403  47.408  1.00  0.00    -0.247 OA
HETATM    6  N   UNL     1       5.072  26.012  49.633  1.00  0.00    -0.311 N 
HETATM    7  C   UNL     1       5.110  26.418  50.952  1.00  0.00     0.041 A 
HETATM    8  H   UNL     1       4.974  28.764  47.993  1.00  0.00     0.165 HD
HETATM    9  H   UNL     1       5.092  25.024  49.404  1.00  0.00     0.170 HD
ENDROOT
BRANCH   7  10
HETATM   10  C   UNL     1       5.192  25.313  51.985  1.00  0.00     0.150 C 
BRANCH  10  11
HETATM   11  N   UNL     1       6.605  25.047  52.236  1.00  0.00    -0.287 NA
HETATM   12  H   UNL     1       7.130  24.935  51.372  1.00  0.00     0.128 HD
BRANCH  11  13
HETATM   13  C   UNL     1       6.932  24.060  53.178  1.00  0.00     0.010 A 
HETATM   14  C   UNL     1       7.561  22.888  52.741  1.00  0.00     0.047 A 
HETATM   15  C   UNL     1       7.956  21.892  53.645  1.00  0.00     0.041 A 
HETATM   16 CL   UNL     1       8.702  20.470  53.004  1.00  0.00    -0.084 Cl
HETATM   17  C   UNL     1       7.758  22.055  55.021  1.00  0.00    -0.040 A 
HETATM   18  C   UNL     1       8.178  21.019  56.024  1.00  0.00     0.050 C 
HETATM   19  C   UNL     1       7.188  23.252  55.467  1.00  0.00     0.010 A 
HETATM   20  C   UNL     1       6.793  24.242  54.558  1.00  0.00     0.024 A 
ENDBRANCH  11  13
ENDBRANCH  10  11
ENDBRANCH   7  10
BRANCH   1  21
HETATM   21  C   UNL     1       5.160  28.248  52.598  1.00  0.00     0.293 C 
HETATM   22  O   UNL     1       4.195  28.548  53.281  1.00  0.00    -0.259 OA
BRANCH  21  23
HETATM   23  O   UNL     1       6.463  28.337  52.967  1.00  0.00    -0.318 OA
BRANCH  23  24
HETATM   24  C   UNL     1       6.752  27.939  54.315  1.00  0.00     0.174 C 
HETATM   25  C   UNL     1       8.095  28.487  54.760  1.00  0.00     0.034 C 
ENDBRANCH  23  24
ENDBRANCH  21  23
ENDBRANCH   1  21
BRANCH   2  26
HETATM   26  C   UNL     1       3.685  29.598  50.250  1.00  0.00    -0.031 A 
HETATM   27  C   UNL     1       2.429  28.989  50.095  1.00  0.00     0.011 A 
HETATM   28  C   UNL     1       1.257  29.748  50.160  1.00  0.00     0.024 A 
HETATM   29  C   UNL     1       1.331  31.121  50.383  1.00  0.00     0.034 A 
HETATM   30 CL   UNL     1      -0.112  32.054  50.455  1.00  0.00    -0.084 Cl
HETATM   31  C   UNL     1       2.567  31.743  50.544  1.00  0.00     0.024 A 
HETATM   32  C   UNL     1       3.738  30.986  50.478  1.00  0.00     0.011 A 
ENDBRANCH   2  26
TORSDOF 7
ENDMDL
MODEL 9
REMARK VINA RESULT:      -8.0      5.141      9.698
REMARK  7 active torsions:
REMARK  status: ('A' for Active; 'I' for Inactive)
REMARK    1  A    between atoms: C_2  and  O_3 
REMARK    2  A    between atoms: O_3  and  C_4 
REMARK    3  A    between atoms: C_4  and  C_5 
REMARK    4  A    between atoms: C_6  and  C_7 
REMARK    5  A    between atoms: C_18  and  C_19 
REMARK    6  A    between atoms: C_19  and  N_20 
REMARK    7  A    between atoms: N_20  and  C_21 
ROOT
HETATM    1  C   UNL     1       4.096  34.339  63.032  1.00  0.00     0.068 A 
HETATM    2  C   UNL     1       3.455  35.544  63.656  1.00  0.00     0.161 A 
HETATM    3  N   UNL     1       3.382  35.422  65.099  1.00  0.00    -0.330 N 
HETATM    4  C   UNL     1       3.948  34.436  65.833  1.00  0.00     0.321 A 
HETATM    5  O   UNL     1       3.905  34.438  67.058  1.00  0.00    -0.247 OA
HETATM    6  N   UNL     1       4.562  33.438  65.141  1.00  0.00    -0.311 N 
HETATM    7  C   UNL     1       4.641  33.349  63.765  1.00  0.00     0.041 A 
HETATM    8  H   UNL     1       2.951  36.164  65.634  1.00  0.00     0.165 HD
HETATM    9  H   UNL     1       4.963  32.711  65.722  1.00  0.00     0.170 HD
ENDROOT
BRANCH   7  10
HETATM   10  C   UNL     1       5.338  32.120  63.218  1.00  0.00     0.150 C 
BRANCH  10  11
HETATM   11  N   UNL     1       6.776  32.348  63.313  1.00  0.00    -0.287 NA
HETATM   12  H   UNL     1       6.992  33.249  63.731  1.00  0.00     0.128 HD
BRANCH  11  13
HETATM   13  C   UNL     1       7.559  32.098  62.177  1.00  0.00     0.010 A 
HETATM   14  C   UNL     1       6.925  31.929  60.940  1.00  0.00     0.047 A 
HETATM   15  C   UNL     1       7.662  31.729  59.764  1.00  0.00     0.041 A 
HETATM   16 CL   UNL     1       6.785  31.505  58.291  1.00  0.00    -0.084 Cl
HETATM   17  C   UNL     1       9.061  31.720  59.789  1.00  0.00    -0.040 A 
HETATM   18  C   UNL     1       9.888  31.522  58.551  1.00  0.00     0.050 C 
HETATM   19  C   UNL     1       9.700  31.952  61.013  1.00  0.00     0.010 A 
HETATM   20  C   UNL     1       8.957  32.149  62.184  1.00  0.00     0.024 A 
ENDBRANCH  11  13
ENDBRANCH  10  11
ENDBRANCH   7  10
BRANCH   1  21
HETATM   21  C   UNL     1       4.106  34.288  61.554  1.00  0.00     0.293 C 
HETATM   22  O   UNL     1       4.997  34.738  60.853  1.00  0.00    -0.259 OA
BRANCH  21  23
HETATM   23  O   UNL     1       2.971  33.684  61.119  1.00  0.00    -0.318 OA
BRANCH  23  24
HETATM   24  C   UNL     1       3.038  33.119  59.802  1.00  0.00     0.174 C 
HETATM   25  C   UNL     1       3.343  31.634  59.869  1.00  0.00     0.034 C 
ENDBRANCH  23  24
ENDBRANCH  21  23
ENDBRANCH   1  21
BRANCH   2  26
HETATM   26  C   UNL     1       4.167  36.839  63.285  1.00  0.00    -0.031 A 
HETATM   27  C   UNL     1       3.594  37.719  62.352  1.00  0.00     0.011 A 
HETATM   28  C   UNL     1       4.262  38.886  61.971  1.00  0.00     0.024 A 
HETATM   29  C   UNL     1       5.507  39.184  62.520  1.00  0.00     0.034 A 
HETATM   30 CL   UNL     1       6.330  40.617  62.044  1.00  0.00    -0.084 Cl
HETATM   31  C   UNL     1       6.090  38.327  63.450  1.00  0.00     0.024 A 
HETATM   32  C   UNL     1       5.424  37.160  63.831  1.00  0.00     0.011 A 
ENDBRANCH   2  26
TORSDOF 7
ENDMDL
MODEL 10
REMARK VINA RESULT:      -7.8      7.408     10.419
REMARK  7 active torsions:
REMARK  status: ('A' for Active; 'I' for Inactive)
REMARK    1  A    between atoms: C_2  and  O_3 
REMARK    2  A    between atoms: O_3  and  C_4 
REMARK    3  A    between atoms: C_4  and  C_5 
REMARK    4  A    between atoms: C_6  and  C_7 
REMARK    5  A    between atoms: C_18  and  C_19 
REMARK    6  A    between atoms: C_19  and  N_20 
REMARK    7  A    between atoms: N_20  and  C_21 
ROOT
HETATM    1  C   UNL     1       3.932  27.506  49.507  1.00  0.00     0.068 A 
HETATM    2  C   UNL     1       3.080  28.735  49.373  1.00  0.00     0.161 A 
HETATM    3  N   UNL     1       2.824  29.349  50.662  1.00  0.00    -0.330 N 
HETATM    4  C   UNL     1       3.390  28.977  51.834  1.00  0.00     0.321 A 
HETATM    5  O   UNL     1       3.178  29.590  52.875  1.00  0.00    -0.247 OA
HETATM    6  N   UNL     1       4.200  27.885  51.800  1.00  0.00    -0.311 N 
HETATM    7  C   UNL     1       4.478  27.129  50.679  1.00  0.00     0.041 A 
HETATM    8  H   UNL     1       2.243  30.175  50.706  1.00  0.00     0.165 HD
HETATM    9  H   UNL     1       4.595  27.629  52.698  1.00  0.00     0.170 HD
ENDROOT
BRANCH   7  10
HETATM   10  C   UNL     1       5.375  25.928  50.893  1.00  0.00     0.150 C 
BRANCH  10  11
HETATM   11  N   UNL     1       4.877  25.205  52.058  1.00  0.00    -0.287 NA
HETATM   12  H   UNL     1       4.053  25.648  52.457  1.00  0.00     0.128 HD
BRANCH  11  13
HETATM   13  C   UNL     1       5.799  24.832  53.047  1.00  0.00     0.010 A 
HETATM   14  C   UNL     1       5.521  25.140  54.384  1.00  0.00     0.047 A 
HETATM   15  C   UNL     1       6.383  24.745  55.417  1.00  0.00     0.041 A 
HETATM   16 CL   UNL     1       5.964  25.196  57.033  1.00  0.00    -0.084 Cl
HETATM   17  C   UNL     1       7.538  24.005  55.143  1.00  0.00    -0.040 A 
HETATM   18  C   UNL     1       8.480  23.552  56.221  1.00  0.00     0.050 C 
HETATM   19  C   UNL     1       7.786  23.640  53.815  1.00  0.00     0.010 A 
HETATM   20  C   UNL     1       6.922  24.040  52.787  1.00  0.00     0.024 A 
ENDBRANCH  11  13
ENDBRANCH  10  11
ENDBRANCH   7  10
BRANCH   1  21
HETATM   21  C   UNL     1       4.151  26.719  48.273  1.00  0.00     0.293 C 
HETATM   22  O   UNL     1       5.112  26.847  47.534  1.00  0.00    -0.259 OA
BRANCH  21  23
HETATM   23  O   UNL     1       3.114  25.861  48.101  1.00  0.00    -0.318 OA
BRANCH  23  24
HETATM   24  C   UNL     1       2.484  25.904  46.812  1.00  0.00     0.174 C 
HETATM   25  C   UNL     1       1.288  26.838  46.831  1.00  0.00     0.034 C 
ENDBRANCH  23  24
ENDBRANCH  21  23
ENDBRANCH   1  21
BRANCH   2  26
HETATM   26  C   UNL     1       3.689  29.764  48.427  1.00  0.00    -0.031 A 
HETATM   27  C   UNL     1       4.682  30.645  48.886  1.00  0.00     0.011 A 
HETATM   28  C   UNL     1       5.213  31.622  48.040  1.00  0.00     0.024 A 
HETATM   29  C   UNL     1       4.757  31.726  46.728  1.00  0.00     0.034 A 
HETATM   30 CL   UNL     1       5.406  32.935  45.690  1.00  0.00    -0.084 Cl
HETATM   31  C   UNL     1       3.776  30.859  46.252  1.00  0.00     0.024 A 
HETATM   32  C   UNL     1       3.243  29.883  47.098  1.00  0.00     0.011 A 
ENDBRANCH   2  26
TORSDOF 7
ENDMDL
