MODEL 1
REMARK VINA RESULT:      -8.4      0.000      0.000
REMARK  6 active torsions:
REMARK  status: ('A' for Active; 'I' for Inactive)
REMARK    1  A    between atoms: O_2  and  C_3 
REMARK    2  A    between atoms: C_6  and  C_7 
REMARK    3  A    between atoms: C_7  and  N_8 
REMARK    4  A    between atoms: N_8  and  C_9 
REMARK    5  A    between atoms: C_15  and  C_16 
REMARK       I    between atoms: C_16  and  N_17 
REMARK    6  A    between atoms: N_17  and  C_18 
ROOT
HETATM    1  C   UNL     1       8.663  22.651  55.027  1.00  0.00     0.096 A 
HETATM    2  N   UNL     1       9.018  21.449  55.516  1.00  0.00    -0.356 N 
HETATM    3  H   UNL     1       9.496  21.444  56.416  1.00  0.00     0.166 HD
HETATM    4  C   UNL     1       8.835  20.292  54.863  1.00  0.00     0.089 A 
HETATM    5  C   UNL     1       8.273  20.294  53.596  1.00  0.00     0.018 A 
HETATM    6  C   UNL     1       7.945  21.510  53.002  1.00  0.00     0.022 A 
HETATM    7  C   UNL     1       8.171  22.703  53.697  1.00  0.00     0.070 A 
ENDROOT
BRANCH   1   8
HETATM    8  N   UNL     1       8.934  23.780  55.802  1.00  0.00    -0.274 NA
HETATM    9  H   UNL     1       8.695  24.622  55.248  1.00  0.00     0.129 HD
BRANCH   8  10
HETATM   10  C   UNL     1       8.264  23.901  57.100  1.00  0.00     0.132 C 
BRANCH  10  11
HETATM   11  C   UNL     1       7.430  25.156  57.147  1.00  0.00    -0.045 A 
HETATM   12  C   UNL     1       8.045  26.405  57.324  1.00  0.00     0.011 A 
HETATM   13  C   UNL     1       7.294  27.584  57.314  1.00  0.00     0.037 A 
HETATM   14  C   UNL     1       5.916  27.531  57.122  1.00  0.00     0.068 A 
HETATM   15  C   UNL     1       5.294  26.289  56.963  1.00  0.00     0.037 A 
HETATM   16  C   UNL     1       6.043  25.109  56.961  1.00  0.00     0.011 A 
BRANCH  14  17
HETATM   17  O   UNL     1       5.076  28.607  57.080  1.00  0.00    -0.356 OA
HETATM   18  C   UNL     1       4.128  28.629  56.017  1.00  0.00     0.210 C 
ENDBRANCH  14  17
ENDBRANCH  10  11
ENDBRANCH   8  10
ENDBRANCH   1   8
BRANCH   7  19
HETATM   19  C   UNL     1       7.869  24.033  53.097  1.00  0.00     0.259 C 
HETATM   20  N   UNL     1       7.023  24.860  53.803  1.00  0.00    -0.320 N 
HETATM   21  H   UNL     1       6.681  24.574  54.715  1.00  0.00     0.169 HD
HETATM   22  O   UNL     1       8.373  24.271  52.003  1.00  0.00    -0.267 OA
BRANCH  20  23
HETATM   23  C   UNL     1       6.491  26.108  53.375  1.00  0.00     0.075 A 
HETATM   24  C   UNL     1       5.342  26.130  52.572  1.00  0.00     0.152 A 
HETATM   25 CL   UNL     1       4.538  24.669  52.125  1.00  0.00    -0.060 Cl
HETATM   26  N   UNL     1       4.755  27.238  52.072  1.00  0.00    -0.247 NA
HETATM   27  C   UNL     1       5.341  28.412  52.383  1.00  0.00     0.118 A 
HETATM   28  C   UNL     1       6.478  28.513  53.169  1.00  0.00     0.022 A 
HETATM   29  C   UNL     1       7.056  27.346  53.674  1.00  0.00     0.034 A 
ENDBRANCH  20  23
ENDBRANCH   7  19
TORSDOF 6
ENDMDL
MODEL 2
REMARK VINA RESULT:      -8.2      2.965      6.347
REMARK  6 active torsions:
REMARK  status: ('A' for Active; 'I' for Inactive)
REMARK    1  A    between atoms: O_2  and  C_3 
REMARK    2  A    between atoms: C_6  and  C_7 
REMARK    3  A    between atoms: C_7  and  N_8 
REMARK    4  A    between atoms: N_8  and  C_9 
REMARK    5  A    between atoms: C_15  and  C_16 
REMARK       I    between atoms: C_16  and  N_17 
REMARK    6  A    between atoms: N_17  and  C_18 
ROOT
HETATM    1  C   UNL     1       5.547  26.946  51.280  1.00  0.00     0.096 A 
HETATM    2  N   UNL     1       5.536  27.036  49.938  1.00  0.00    -0.356 N 
HETATM    3  H   UNL     1       5.724  26.179  49.420  1.00  0.00     0.166 HD
HETATM    4  C   UNL     1       5.358  28.182  49.266  1.00  0.00     0.089 A 
HETATM    5  C   UNL     1       5.197  29.373  49.959  1.00  0.00     0.018 A 
HETATM    6  C   UNL     1       5.266  29.362  51.349  1.00  0.00     0.022 A 
HETATM    7  C   UNL     1       5.478  28.153  52.022  1.00  0.00     0.070 A 
ENDROOT
BRANCH   1   8
HETATM    8  N   UNL     1       5.768  25.691  51.852  1.00  0.00    -0.274 NA
HETATM    9  H   UNL     1       5.178  24.998  51.356  1.00  0.00     0.129 HD
BRANCH   8  10
HETATM   10  C   UNL     1       7.139  25.174  51.866  1.00  0.00     0.132 C 
BRANCH  10  11
HETATM   11  C   UNL     1       7.336  24.238  53.031  1.00  0.00    -0.045 A 
HETATM   12  C   UNL     1       7.944  22.987  52.836  1.00  0.00     0.011 A 
HETATM   13  C   UNL     1       8.186  22.130  53.913  1.00  0.00     0.037 A 
HETATM   14  C   UNL     1       7.826  22.513  55.203  1.00  0.00     0.068 A 
HETATM   15  C   UNL     1       7.205  23.749  55.402  1.00  0.00     0.037 A 
HETATM   16  C   UNL     1       6.972  24.614  54.330  1.00  0.00     0.011 A 
BRANCH  14  17
HETATM   17  O   UNL     1       8.018  21.773  56.336  1.00  0.00    -0.356 OA
HETATM   18  C   UNL     1       7.974  20.358  56.181  1.00  0.00     0.210 C 
ENDBRANCH  14  17
ENDBRANCH  10  11
ENDBRANCH   8  10
ENDBRANCH   1   8
BRANCH   7  19
HETATM   19  C   UNL     1       5.594  28.089  53.507  1.00  0.00     0.259 C 
HETATM   20  N   UNL     1       6.646  28.767  54.082  1.00  0.00    -0.320 N 
HETATM   21  H   UNL     1       7.266  29.325  53.503  1.00  0.00     0.169 HD
HETATM   22  O   UNL     1       4.760  27.406  54.095  1.00  0.00    -0.267 OA
BRANCH  20  23
HETATM   23  C   UNL     1       7.034  28.745  55.450  1.00  0.00     0.075 A 
HETATM   24  C   UNL     1       6.500  29.692  56.335  1.00  0.00     0.152 A 
HETATM   25 CL   UNL     1       5.347  30.861  55.801  1.00  0.00    -0.060 Cl
HETATM   26  N   UNL     1       6.807  29.803  57.645  1.00  0.00    -0.247 NA
HETATM   27  C   UNL     1       7.707  28.919  58.121  1.00  0.00     0.118 A 
HETATM   28  C   UNL     1       8.300  27.939  57.341  1.00  0.00     0.022 A 
HETATM   29  C   UNL     1       7.956  27.850  55.991  1.00  0.00     0.034 A 
ENDBRANCH  20  23
ENDBRANCH   7  19
TORSDOF 6
ENDMDL
MODEL 3
REMARK VINA RESULT:      -8.1      2.359      5.637
REMARK  6 active torsions:
REMARK  status: ('A' for Active; 'I' for Inactive)
REMARK    1  A    between atoms: O_2  and  C_3 
REMARK    2  A    between atoms: C_6  and  C_7 
REMARK    3  A    between atoms: C_7  and  N_8 
REMARK    4  A    between atoms: N_8  and  C_9 
REMARK    5  A    between atoms: C_15  and  C_16 
REMARK       I    between atoms: C_16  and  N_17 
REMARK    6  A    between atoms: N_17  and  C_18 
ROOT
HETATM    1  C   UNL     1       6.022  27.850  52.602  1.00  0.00     0.096 A 
HETATM    2  N   UNL     1       5.851  29.030  51.978  1.00  0.00    -0.356 N 
HETATM    3  H   UNL     1       6.022  29.869  52.531  1.00  0.00     0.166 HD
HETATM    4  C   UNL     1       5.416  29.154  50.716  1.00  0.00     0.089 A 
HETATM    5  C   UNL     1       5.087  28.022  49.984  1.00  0.00     0.018 A 
HETATM    6  C   UNL     1       5.175  26.773  50.592  1.00  0.00     0.022 A 
HETATM    7  C   UNL     1       5.609  26.678  51.919  1.00  0.00     0.070 A 
ENDROOT
BRANCH   1   8
HETATM    8  N   UNL     1       6.458  27.867  53.929  1.00  0.00    -0.274 NA
HETATM    9  H   UNL     1       6.290  26.932  54.339  1.00  0.00     0.129 HD
BRANCH   8  10
HETATM   10  C   UNL     1       7.858  28.218  54.189  1.00  0.00     0.132 C 
BRANCH  10  11
HETATM   11  C   UNL     1       8.024  28.705  55.605  1.00  0.00    -0.045 A 
HETATM   12  C   UNL     1       6.969  28.579  56.523  1.00  0.00     0.011 A 
HETATM   13  C   UNL     1       7.124  28.973  57.854  1.00  0.00     0.037 A 
HETATM   14  C   UNL     1       8.340  29.497  58.289  1.00  0.00     0.068 A 
HETATM   15  C   UNL     1       9.388  29.641  57.377  1.00  0.00     0.037 A 
HETATM   16  C   UNL     1       9.241  29.237  56.047  1.00  0.00     0.011 A 
BRANCH  14  17
HETATM   17  O   UNL     1       8.620  29.906  59.562  1.00  0.00    -0.356 OA
HETATM   18  C   UNL     1       7.914  31.052  60.028  1.00  0.00     0.210 C 
ENDBRANCH  14  17
ENDBRANCH  10  11
ENDBRANCH   8  10
ENDBRANCH   1   8
BRANCH   7  19
HETATM   19  C   UNL     1       5.691  25.369  52.629  1.00  0.00     0.259 C 
HETATM   20  N   UNL     1       6.943  24.951  53.024  1.00  0.00    -0.320 N 
HETATM   21  H   UNL     1       7.747  25.552  52.877  1.00  0.00     0.169 HD
HETATM   22  O   UNL     1       4.639  24.754  52.773  1.00  0.00    -0.267 OA
BRANCH  20  23
HETATM   23  C   UNL     1       7.285  23.693  53.593  1.00  0.00     0.075 A 
HETATM   24  C   UNL     1       7.167  23.507  54.978  1.00  0.00     0.152 A 
HETATM   25 CL   UNL     1       6.575  24.766  56.000  1.00  0.00    -0.060 Cl
HETATM   26  N   UNL     1       7.488  22.380  55.648  1.00  0.00    -0.247 NA
HETATM   27  C   UNL     1       7.961  21.360  54.904  1.00  0.00     0.118 A 
HETATM   28  C   UNL     1       8.119  21.428  53.528  1.00  0.00     0.022 A 
HETATM   29  C   UNL     1       7.773  22.608  52.866  1.00  0.00     0.034 A 
ENDBRANCH  20  23
ENDBRANCH   7  19
TORSDOF 6
ENDMDL
MODEL 4
REMARK VINA RESULT:      -8.1      2.722      6.761
REMARK  6 active torsions:
REMARK  status: ('A' for Active; 'I' for Inactive)
REMARK    1  A    between atoms: O_2  and  C_3 
REMARK    2  A    between atoms: C_6  and  C_7 
REMARK    3  A    between atoms: C_7  and  N_8 
REMARK    4  A    between atoms: N_8  and  C_9 
REMARK    5  A    between atoms: C_15  and  C_16 
REMARK       I    between atoms: C_16  and  N_17 
REMARK    6  A    between atoms: N_17  and  C_18 
ROOT
HETATM    1  C   UNL     1       7.290  27.759  54.719  1.00  0.00     0.096 A 
HETATM    2  N   UNL     1       7.697  28.996  55.059  1.00  0.00    -0.356 N 
HETATM    3  H   UNL     1       7.759  29.680  54.306  1.00  0.00     0.166 HD
HETATM    4  C   UNL     1       8.075  29.347  56.296  1.00  0.00     0.089 A 
HETATM    5  C   UNL     1       8.088  28.400  57.310  1.00  0.00     0.018 A 
HETATM    6  C   UNL     1       7.744  27.084  57.012  1.00  0.00     0.022 A 
HETATM    7  C   UNL     1       7.378  26.743  55.705  1.00  0.00     0.070 A 
ENDROOT
BRANCH   1   8
HETATM    8  N   UNL     1       6.947  27.525  53.386  1.00  0.00    -0.274 NA
HETATM    9  H   UNL     1       6.714  26.521  53.281  1.00  0.00     0.129 HD
BRANCH   8  10
HETATM   10  C   UNL     1       5.839  28.297  52.815  1.00  0.00     0.132 C 
BRANCH  10  11
HETATM   11  C   UNL     1       5.495  27.785  51.440  1.00  0.00    -0.045 A 
HETATM   12  C   UNL     1       5.171  26.432  51.251  1.00  0.00     0.011 A 
HETATM   13  C   UNL     1       4.795  25.951  49.994  1.00  0.00     0.037 A 
HETATM   14  C   UNL     1       4.733  26.819  48.906  1.00  0.00     0.068 A 
HETATM   15  C   UNL     1       5.071  28.163  49.083  1.00  0.00     0.037 A 
HETATM   16  C   UNL     1       5.436  28.650  50.341  1.00  0.00     0.011 A 
BRANCH  14  17
HETATM   17  O   UNL     1       4.370  26.476  47.634  1.00  0.00    -0.356 OA
HETATM   18  C   UNL     1       3.271  25.578  47.511  1.00  0.00     0.210 C 
ENDBRANCH  14  17
ENDBRANCH  10  11
ENDBRANCH   8  10
ENDBRANCH   1   8
BRANCH   7  19
HETATM   19  C   UNL     1       7.033  25.344  55.324  1.00  0.00     0.259 C 
HETATM   20  N   UNL     1       8.069  24.438  55.270  1.00  0.00    -0.320 N 
HETATM   21  H   UNL     1       9.005  24.723  55.539  1.00  0.00     0.169 HD
HETATM   22  O   UNL     1       5.856  25.121  55.055  1.00  0.00    -0.267 OA
BRANCH  20  23
HETATM   23  C   UNL     1       8.008  23.093  54.810  1.00  0.00     0.075 A 
HETATM   24  C   UNL     1       7.943  22.837  53.433  1.00  0.00     0.152 A 
HETATM   25 CL   UNL     1       7.976  24.125  52.284  1.00  0.00    -0.060 Cl
HETATM   26  N   UNL     1       7.848  21.616  52.865  1.00  0.00    -0.247 NA
HETATM   27  C   UNL     1       7.813  20.568  53.713  1.00  0.00     0.118 A 
HETATM   28  C   UNL     1       7.872  20.699  55.092  1.00  0.00     0.022 A 
HETATM   29  C   UNL     1       7.974  21.978  55.645  1.00  0.00     0.034 A 
ENDBRANCH  20  23
ENDBRANCH   7  19
TORSDOF 6
ENDMDL
MODEL 5
REMARK VINA RESULT:      -8.0      1.826      2.455
REMARK  6 active torsions:
REMARK  status: ('A' for Active; 'I' for Inactive)
REMARK    1  A    between atoms: O_2  and  C_3 
REMARK    2  A    between atoms: C_6  and  C_7 
REMARK    3  A    between atoms: C_7  and  N_8 
REMARK    4  A    between atoms: N_8  and  C_9 
REMARK    5  A    between atoms: C_15  and  C_16 
REMARK       I    between atoms: C_16  and  N_17 
REMARK    6  A    between atoms: N_17  and  C_18 
ROOT
HETATM    1  C   UNL     1       7.222  23.460  54.853  1.00  0.00     0.096 A 
HETATM    2  N   UNL     1       7.462  22.373  55.610  1.00  0.00    -0.356 N 
HETATM    3  H   UNL     1       7.381  22.492  56.619  1.00  0.00     0.166 HD
HETATM    4  C   UNL     1       7.855  21.190  55.118  1.00  0.00     0.089 A 
HETATM    5  C   UNL     1       8.062  21.042  53.755  1.00  0.00     0.018 A 
HETATM    6  C   UNL     1       7.899  22.145  52.921  1.00  0.00     0.022 A 
HETATM    7  C   UNL     1       7.513  23.374  53.467  1.00  0.00     0.070 A 
ENDROOT
BRANCH   1   8
HETATM    8  N   UNL     1       6.842  24.638  55.499  1.00  0.00    -0.274 NA
HETATM    9  H   UNL     1       5.863  24.533  55.820  1.00  0.00     0.129 HD
BRANCH   8  10
HETATM   10  C   UNL     1       7.638  25.081  56.647  1.00  0.00     0.132 C 
BRANCH  10  11
HETATM   11  C   UNL     1       7.387  26.539  56.931  1.00  0.00    -0.045 A 
HETATM   12  C   UNL     1       6.073  27.031  56.987  1.00  0.00     0.011 A 
HETATM   13  C   UNL     1       5.819  28.368  57.304  1.00  0.00     0.037 A 
HETATM   14  C   UNL     1       6.876  29.233  57.575  1.00  0.00     0.068 A 
HETATM   15  C   UNL     1       8.187  28.755  57.505  1.00  0.00     0.037 A 
HETATM   16  C   UNL     1       8.445  27.416  57.200  1.00  0.00     0.011 A 
BRANCH  14  17
HETATM   17  O   UNL     1       6.759  30.553  57.908  1.00  0.00    -0.356 OA
HETATM   18  C   UNL     1       7.479  30.982  59.060  1.00  0.00     0.210 C 
ENDBRANCH  14  17
ENDBRANCH  10  11
ENDBRANCH   8  10
ENDBRANCH   1   8
BRANCH   7  19
HETATM   19  C   UNL     1       7.355  24.595  52.626  1.00  0.00     0.259 C 
HETATM   20  N   UNL     1       6.095  25.148  52.559  1.00  0.00    -0.320 N 
HETATM   21  H   UNL     1       5.340  24.756  53.112  1.00  0.00     0.169 HD
HETATM   22  O   UNL     1       8.355  24.987  52.033  1.00  0.00    -0.267 OA
BRANCH  20  23
HETATM   23  C   UNL     1       5.675  26.223  51.727  1.00  0.00     0.075 A 
HETATM   24  C   UNL     1       5.920  27.543  52.129  1.00  0.00     0.152 A 
HETATM   25 CL   UNL     1       6.760  27.887  53.599  1.00  0.00    -0.060 Cl
HETATM   26  N   UNL     1       5.548  28.652  51.455  1.00  0.00    -0.247 NA
HETATM   27  C   UNL     1       4.883  28.448  50.299  1.00  0.00     0.118 A 
HETATM   28  C   UNL     1       4.585  27.189  49.801  1.00  0.00     0.022 A 
HETATM   29  C   UNL     1       4.990  26.064  50.524  1.00  0.00     0.034 A 
ENDBRANCH  20  23
ENDBRANCH   7  19
TORSDOF 6
ENDMDL
MODEL 6
REMARK VINA RESULT:      -7.6      2.958      7.211
REMARK  6 active torsions:
REMARK  status: ('A' for Active; 'I' for Inactive)
REMARK    1  A    between atoms: O_2  and  C_3 
REMARK    2  A    between atoms: C_6  and  C_7 
REMARK    3  A    between atoms: C_7  and  N_8 
REMARK    4  A    between atoms: N_8  and  C_9 
REMARK    5  A    between atoms: C_15  and  C_16 
REMARK       I    between atoms: C_16  and  N_17 
REMARK    6  A    between atoms: N_17  and  C_18 
ROOT
HETATM    1  C   UNL     1       5.553  28.264  54.638  1.00  0.00     0.096 A 
HETATM    2  N   UNL     1       5.417  29.592  54.806  1.00  0.00    -0.356 N 
HETATM    3  H   UNL     1       5.239  30.144  53.968  1.00  0.00     0.166 HD
HETATM    4  C   UNL     1       5.565  30.217  55.983  1.00  0.00     0.089 A 
HETATM    5  C   UNL     1       5.903  29.490  57.114  1.00  0.00     0.018 A 
HETATM    6  C   UNL     1       6.126  28.120  56.998  1.00  0.00     0.022 A 
HETATM    7  C   UNL     1       5.988  27.500  55.751  1.00  0.00     0.070 A 
ENDROOT
BRANCH   1   8
HETATM    8  N   UNL     1       5.396  27.746  53.351  1.00  0.00    -0.274 NA
HETATM    9  H   UNL     1       4.389  27.563  53.193  1.00  0.00     0.129 HD
BRANCH   8  10
HETATM   10  C   UNL     1       5.879  28.549  52.223  1.00  0.00     0.132 C 
BRANCH  10  11
HETATM   11  C   UNL     1       5.414  27.957  50.918  1.00  0.00    -0.045 A 
HETATM   12  C   UNL     1       5.430  28.730  49.746  1.00  0.00     0.011 A 
HETATM   13  C   UNL     1       5.055  28.181  48.517  1.00  0.00     0.037 A 
HETATM   14  C   UNL     1       4.662  26.847  48.441  1.00  0.00     0.068 A 
HETATM   15  C   UNL     1       4.626  26.076  49.606  1.00  0.00     0.037 A 
HETATM   16  C   UNL     1       5.011  26.618  50.835  1.00  0.00     0.011 A 
BRANCH  14  17
HETATM   17  O   UNL     1       4.285  26.192  47.302  1.00  0.00    -0.356 OA
HETATM   18  C   UNL     1       3.067  25.457  47.370  1.00  0.00     0.210 C 
ENDBRANCH  14  17
ENDBRANCH  10  11
ENDBRANCH   8  10
ENDBRANCH   1   8
BRANCH   7  19
HETATM   19  C   UNL     1       6.246  26.044  55.563  1.00  0.00     0.259 C 
HETATM   20  N   UNL     1       7.408  25.695  54.910  1.00  0.00    -0.320 N 
HETATM   21  H   UNL     1       8.068  26.414  54.631  1.00  0.00     0.169 HD
HETATM   22  O   UNL     1       5.384  25.274  55.976  1.00  0.00    -0.267 OA
BRANCH  20  23
HETATM   23  C   UNL     1       7.802  24.390  54.502  1.00  0.00     0.075 A 
HETATM   24  C   UNL     1       8.606  23.616  55.350  1.00  0.00     0.152 A 
HETATM   25 CL   UNL     1       9.094  24.202  56.899  1.00  0.00    -0.060 Cl
HETATM   26  N   UNL     1       9.077  22.381  55.073  1.00  0.00    -0.247 NA
HETATM   27  C   UNL     1       8.733  21.870  53.874  1.00  0.00     0.118 A 
HETATM   28  C   UNL     1       7.942  22.542  52.955  1.00  0.00     0.022 A 
HETATM   29  C   UNL     1       7.469  23.816  53.276  1.00  0.00     0.034 A 
ENDBRANCH  20  23
ENDBRANCH   7  19
TORSDOF 6
ENDMDL
MODEL 7
REMARK VINA RESULT:      -7.6      2.884      6.870
REMARK  6 active torsions:
REMARK  status: ('A' for Active; 'I' for Inactive)
REMARK    1  A    between atoms: O_2  and  C_3 
REMARK    2  A    between atoms: C_6  and  C_7 
REMARK    3  A    between atoms: C_7  and  N_8 
REMARK    4  A    between atoms: N_8  and  C_9 
REMARK    5  A    between atoms: C_15  and  C_16 
REMARK       I    between atoms: C_16  and  N_17 
REMARK    6  A    between atoms: N_17  and  C_18 
ROOT
HETATM    1  C   UNL     1       3.811  28.002  52.873  1.00  0.00     0.096 A 
HETATM    2  N   UNL     1       3.332  28.143  51.623  1.00  0.00    -0.356 N 
HETATM    3  H   UNL     1       3.294  27.302  51.050  1.00  0.00     0.166 HD
HETATM    4  C   UNL     1       2.972  29.318  51.088  1.00  0.00     0.089 A 
HETATM    5  C   UNL     1       3.109  30.485  51.825  1.00  0.00     0.018 A 
HETATM    6  C   UNL     1       3.662  30.420  53.101  1.00  0.00     0.022 A 
HETATM    7  C   UNL     1       4.052  29.181  53.624  1.00  0.00     0.070 A 
ENDROOT
BRANCH   1   8
HETATM    8  N   UNL     1       4.172  26.721  53.296  1.00  0.00    -0.274 NA
HETATM    9  H   UNL     1       3.308  26.190  53.505  1.00  0.00     0.129 HD
BRANCH   8  10
HETATM   10  C   UNL     1       4.986  25.902  52.393  1.00  0.00     0.132 C 
BRANCH  10  11
HETATM   11  C   UNL     1       5.975  25.079  53.176  1.00  0.00    -0.045 A 
HETATM   12  C   UNL     1       7.041  24.443  52.519  1.00  0.00     0.011 A 
HETATM   13  C   UNL     1       8.000  23.722  53.236  1.00  0.00     0.037 A 
HETATM   14  C   UNL     1       7.910  23.631  54.623  1.00  0.00     0.068 A 
HETATM   15  C   UNL     1       6.842  24.246  55.282  1.00  0.00     0.037 A 
HETATM   16  C   UNL     1       5.887  24.978  54.570  1.00  0.00     0.011 A 
BRANCH  14  17
HETATM   17  O   UNL     1       8.786  22.968  55.436  1.00  0.00    -0.356 OA
HETATM   18  C   UNL     1       8.509  21.592  55.676  1.00  0.00     0.210 C 
ENDBRANCH  14  17
ENDBRANCH  10  11
ENDBRANCH   8  10
ENDBRANCH   1   8
BRANCH   7  19
HETATM   19  C   UNL     1       4.680  29.058  54.970  1.00  0.00     0.259 C 
HETATM   20  N   UNL     1       5.795  29.829  55.213  1.00  0.00    -0.320 N 
HETATM   21  H   UNL     1       6.120  30.485  54.509  1.00  0.00     0.169 HD
HETATM   22  O   UNL     1       4.170  28.251  55.743  1.00  0.00    -0.267 OA
BRANCH  20  23
HETATM   23  C   UNL     1       6.633  29.785  56.361  1.00  0.00     0.075 A 
HETATM   24  C   UNL     1       7.676  28.851  56.421  1.00  0.00     0.152 A 
HETATM   25 CL   UNL     1       7.987  27.777  55.105  1.00  0.00    -0.060 Cl
HETATM   26  N   UNL     1       8.520  28.681  57.460  1.00  0.00    -0.247 NA
HETATM   27  C   UNL     1       8.324  29.489  58.522  1.00  0.00     0.118 A 
HETATM   28  C   UNL     1       7.327  30.451  58.576  1.00  0.00     0.022 A 
HETATM   29  C   UNL     1       6.474  30.601  57.480  1.00  0.00     0.034 A 
ENDBRANCH  20  23
ENDBRANCH   7  19
TORSDOF 6
ENDMDL
MODEL 8
REMARK VINA RESULT:      -7.6      3.030      6.322
REMARK  6 active torsions:
REMARK  status: ('A' for Active; 'I' for Inactive)
REMARK    1  A    between atoms: O_2  and  C_3 
REMARK    2  A    between atoms: C_6  and  C_7 
REMARK    3  A    between atoms: C_7  and  N_8 
REMARK    4  A    between atoms: N_8  and  C_9 
REMARK    5  A    between atoms: C_15  and  C_16 
REMARK       I    between atoms: C_16  and  N_17 
REMARK    6  A    between atoms: N_17  and  C_18 
ROOT
HETATM    1  C   UNL     1       5.493  27.378  54.078  1.00  0.00     0.096 A 
HETATM    2  N   UNL     1       5.421  27.326  55.421  1.00  0.00    -0.356 N 
HETATM    3  H   UNL     1       5.646  26.433  55.857  1.00  0.00     0.166 HD
HETATM    4  C   UNL     1       5.017  28.347  56.190  1.00  0.00     0.089 A 
HETATM    5  C   UNL     1       4.616  29.538  55.603  1.00  0.00     0.018 A 
HETATM    6  C   UNL     1       4.600  29.638  54.214  1.00  0.00     0.022 A 
HETATM    7  C   UNL     1       5.003  28.546  53.437  1.00  0.00     0.070 A 
ENDROOT
BRANCH   1   8
HETATM    8  N   UNL     1       5.908  26.232  53.398  1.00  0.00    -0.274 NA
HETATM    9  H   UNL     1       5.594  26.304  52.414  1.00  0.00     0.129 HD
BRANCH   8  10
HETATM   10  C   UNL     1       7.341  25.922  53.382  1.00  0.00     0.132 C 
BRANCH  10  11
HETATM   11  C   UNL     1       7.570  24.474  53.732  1.00  0.00    -0.045 A 
HETATM   12  C   UNL     1       7.500  24.052  55.069  1.00  0.00     0.011 A 
HETATM   13  C   UNL     1       7.654  22.705  55.406  1.00  0.00     0.037 A 
HETATM   14  C   UNL     1       7.877  21.758  54.410  1.00  0.00     0.068 A 
HETATM   15  C   UNL     1       7.966  22.173  53.078  1.00  0.00     0.037 A 
HETATM   16  C   UNL     1       7.801  23.518  52.736  1.00  0.00     0.011 A 
BRANCH  14  17
HETATM   17  O   UNL     1       8.032  20.415  54.608  1.00  0.00    -0.356 OA
HETATM   18  C   UNL     1       8.465  20.013  55.904  1.00  0.00     0.210 C 
ENDBRANCH  14  17
ENDBRANCH  10  11
ENDBRANCH   8  10
ENDBRANCH   1   8
BRANCH   7  19
HETATM   19  C   UNL     1       4.975  28.586  51.947  1.00  0.00     0.259 C 
HETATM   20  N   UNL     1       4.037  27.796  51.319  1.00  0.00    -0.320 N 
HETATM   21  H   UNL     1       3.370  27.266  51.871  1.00  0.00     0.169 HD
HETATM   22  O   UNL     1       5.815  29.294  51.400  1.00  0.00    -0.267 OA
BRANCH  20  23
HETATM   23  C   UNL     1       3.905  27.570  49.921  1.00  0.00     0.075 A 
HETATM   24  C   UNL     1       2.873  28.201  49.213  1.00  0.00     0.152 A 
HETATM   25 CL   UNL     1       1.781  29.281  50.003  1.00  0.00    -0.060 Cl
HETATM   26  N   UNL     1       2.616  28.049  47.897  1.00  0.00    -0.247 NA
HETATM   27  C   UNL     1       3.434  27.213  47.226  1.00  0.00     0.118 A 
HETATM   28  C   UNL     1       4.488  26.536  47.819  1.00  0.00     0.022 A 
HETATM   29  C   UNL     1       4.727  26.720  49.182  1.00  0.00     0.034 A 
ENDBRANCH  20  23
ENDBRANCH   7  19
TORSDOF 6
ENDMDL
MODEL 9
REMARK VINA RESULT:      -7.4      2.438      6.087
REMARK  6 active torsions:
REMARK  status: ('A' for Active; 'I' for Inactive)
REMARK    1  A    between atoms: O_2  and  C_3 
REMARK    2  A    between atoms: C_6  and  C_7 
REMARK    3  A    between atoms: C_7  and  N_8 
REMARK    4  A    between atoms: N_8  and  C_9 
REMARK    5  A    between atoms: C_15  and  C_16 
REMARK       I    between atoms: C_16  and  N_17 
REMARK    6  A    between atoms: N_17  and  C_18 
ROOT
HETATM    1  C   UNL     1       5.915  27.677  55.326  1.00  0.00     0.096 A 
HETATM    2  N   UNL     1       6.321  27.859  56.596  1.00  0.00    -0.356 N 
HETATM    3  H   UNL     1       6.680  27.039  57.083  1.00  0.00     0.166 HD
HETATM    4  C   UNL     1       6.220  29.022  57.255  1.00  0.00     0.089 A 
HETATM    5  C   UNL     1       5.645  30.121  56.635  1.00  0.00     0.018 A 
HETATM    6  C   UNL     1       5.140  29.984  55.345  1.00  0.00     0.022 A 
HETATM    7  C   UNL     1       5.238  28.750  54.691  1.00  0.00     0.070 A 
ENDROOT
BRANCH   1   8
HETATM    8  N   UNL     1       6.056  26.405  54.767  1.00  0.00    -0.274 NA
HETATM    9  H   UNL     1       5.377  26.312  53.990  1.00  0.00     0.129 HD
BRANCH   8  10
HETATM   10  C   UNL     1       7.374  26.024  54.249  1.00  0.00     0.132 C 
BRANCH  10  11
HETATM   11  C   UNL     1       7.514  24.524  54.221  1.00  0.00    -0.045 A 
HETATM   12  C   UNL     1       7.724  23.857  53.003  1.00  0.00     0.011 A 
HETATM   13  C   UNL     1       7.912  22.473  52.964  1.00  0.00     0.037 A 
HETATM   14  C   UNL     1       7.897  21.734  54.144  1.00  0.00     0.068 A 
HETATM   15  C   UNL     1       7.670  22.388  55.358  1.00  0.00     0.037 A 
HETATM   16  C   UNL     1       7.493  23.773  55.403  1.00  0.00     0.011 A 
BRANCH  14  17
HETATM   17  O   UNL     1       8.079  20.383  54.240  1.00  0.00    -0.356 OA
HETATM   18  C   UNL     1       8.601  19.902  55.474  1.00  0.00     0.210 C 
ENDBRANCH  14  17
ENDBRANCH  10  11
ENDBRANCH   8  10
ENDBRANCH   1   8
BRANCH   7  19
HETATM   19  C   UNL     1       4.686  28.539  53.322  1.00  0.00     0.259 C 
HETATM   20  N   UNL     1       5.595  28.375  52.300  1.00  0.00    -0.320 N 
HETATM   21  H   UNL     1       6.588  28.347  52.507  1.00  0.00     0.169 HD
HETATM   22  O   UNL     1       3.463  28.562  53.212  1.00  0.00    -0.267 OA
BRANCH  20  23
HETATM   23  C   UNL     1       5.313  28.291  50.909  1.00  0.00     0.075 A 
HETATM   24  C   UNL     1       5.052  27.041  50.331  1.00  0.00     0.152 A 
HETATM   25 CL   UNL     1       5.026  25.604  51.289  1.00  0.00    -0.060 Cl
HETATM   26  N   UNL     1       4.804  26.816  49.024  1.00  0.00    -0.247 NA
HETATM   27  C   UNL     1       4.815  27.901  48.223  1.00  0.00     0.118 A 
HETATM   28  C   UNL     1       5.060  29.186  48.681  1.00  0.00     0.022 A 
HETATM   29  C   UNL     1       5.309  29.382  50.041  1.00  0.00     0.034 A 
ENDBRANCH  20  23
ENDBRANCH   7  19
TORSDOF 6
ENDMDL
MODEL 10
REMARK VINA RESULT:      -7.4      9.378     12.705
REMARK  6 active torsions:
REMARK  status: ('A' for Active; 'I' for Inactive)
REMARK    1  A    between atoms: O_2  and  C_3 
REMARK    2  A    between atoms: C_6  and  C_7 
REMARK    3  A    between atoms: C_7  and  N_8 
REMARK    4  A    between atoms: N_8  and  C_9 
REMARK    5  A    between atoms: C_15  and  C_16 
REMARK       I    between atoms: C_16  and  N_17 
REMARK    6  A    between atoms: N_17  and  C_18 
ROOT
HETATM    1  C   UNL     1       5.521  33.760  65.258  1.00  0.00     0.096 A 
HETATM    2  N   UNL     1       6.150  33.812  66.447  1.00  0.00    -0.356 N 
HETATM    3  H   UNL     1       6.970  33.217  66.558  1.00  0.00     0.166 HD
HETATM    4  C   UNL     1       5.724  34.542  67.487  1.00  0.00     0.089 A 
HETATM    5  C   UNL     1       4.555  35.282  67.381  1.00  0.00     0.018 A 
HETATM    6  C   UNL     1       3.818  35.219  66.202  1.00  0.00     0.022 A 
HETATM    7  C   UNL     1       4.275  34.428  65.141  1.00  0.00     0.070 A 
ENDROOT
BRANCH   1   8
HETATM    8  N   UNL     1       6.061  32.938  64.267  1.00  0.00    -0.274 NA
HETATM    9  H   UNL     1       5.565  33.129  63.378  1.00  0.00     0.129 HD
BRANCH   8  10
HETATM   10  C   UNL     1       7.499  33.037  63.998  1.00  0.00     0.132 C 
BRANCH  10  11
HETATM   11  C   UNL     1       7.842  32.342  62.706  1.00  0.00    -0.045 A 
HETATM   12  C   UNL     1       7.440  32.894  61.479  1.00  0.00     0.011 A 
HETATM   13  C   UNL     1       7.798  32.294  60.269  1.00  0.00     0.037 A 
HETATM   14  C   UNL     1       8.567  31.133  60.267  1.00  0.00     0.068 A 
HETATM   15  C   UNL     1       8.956  30.568  61.485  1.00  0.00     0.037 A 
HETATM   16  C   UNL     1       8.611  31.172  62.697  1.00  0.00     0.011 A 
BRANCH  14  17
HETATM   17  O   UNL     1       8.990  30.460  59.156  1.00  0.00    -0.356 OA
HETATM   18  C   UNL     1       8.026  29.629  58.515  1.00  0.00     0.210 C 
ENDBRANCH  14  17
ENDBRANCH  10  11
ENDBRANCH   8  10
ENDBRANCH   1   8
BRANCH   7  19
HETATM   19  C   UNL     1       3.510  34.298  63.869  1.00  0.00     0.259 C 
HETATM   20  N   UNL     1       4.155  34.674  62.711  1.00  0.00    -0.320 N 
HETATM   21  H   UNL     1       5.126  34.968  62.745  1.00  0.00     0.169 HD
HETATM   22  O   UNL     1       2.353  33.898  63.961  1.00  0.00    -0.267 OA
BRANCH  20  23
HETATM   23  C   UNL     1       3.592  34.763  61.407  1.00  0.00     0.075 A 
HETATM   24  C   UNL     1       3.436  33.598  60.642  1.00  0.00     0.152 A 
HETATM   25 CL   UNL     1       3.878  32.052  61.271  1.00  0.00    -0.060 Cl
HETATM   26  N   UNL     1       2.949  33.545  59.384  1.00  0.00    -0.247 NA
HETATM   27  C   UNL     1       2.590  34.724  58.836  1.00  0.00     0.118 A 
HETATM   28  C   UNL     1       2.698  35.938  59.497  1.00  0.00     0.022 A 
HETATM   29  C   UNL     1       3.202  35.955  60.800  1.00  0.00     0.034 A 
ENDBRANCH  20  23
ENDBRANCH   7  19
TORSDOF 6
ENDMDL
