MODEL 1
REMARK VINA RESULT:      -9.7      0.000      0.000
REMARK  5 active torsions:
REMARK  status: ('A' for Active; 'I' for Inactive)
REMARK    1  A    between atoms: C_3  and  C_4 
REMARK    2  A    between atoms: C_9  and  N_10 
REMARK       I    between atoms: N_10  and  C_11 
REMARK    3  A    between atoms: C_11  and  C_12 
REMARK    4  A    between atoms: C_14  and  C_15 
REMARK    5  A    between atoms: C_17  and  O_18 
ROOT
HETATM    1  C   UNL     1       5.563  34.152  66.510  1.00  0.00     0.149 A 
HETATM    2  N   UNL     1       6.620  34.025  67.407  1.00  0.00    -0.223 NA
HETATM    3  C   UNL     1       6.274  34.703  68.488  1.00  0.00     0.139 A 
HETATM    4  N   UNL     1       5.039  35.282  68.302  1.00  0.00    -0.342 N 
HETATM    5  H   UNL     1       4.573  35.882  68.968  1.00  0.00     0.167 HD
HETATM    6  C   UNL     1       4.573  34.946  67.059  1.00  0.00     0.041 A 
HETATM    7  C   UNL     1       3.270  35.408  66.531  1.00  0.00     0.071 C 
ENDROOT
BRANCH   1   8
HETATM    8  C   UNL     1       5.563  33.518  65.183  1.00  0.00     0.276 C 
HETATM    9  N   UNL     1       6.783  33.666  64.554  1.00  0.00    -0.322 N 
HETATM   10  H   UNL     1       7.470  34.169  65.111  1.00  0.00     0.169 HD
HETATM   11  O   UNL     1       4.576  32.942  64.740  1.00  0.00    -0.266 OA
BRANCH   9  12
HETATM   12  C   UNL     1       7.159  33.220  63.274  1.00  0.00     0.035 A 
HETATM   13  C   UNL     1       6.683  33.776  62.089  1.00  0.00     0.030 A 
HETATM   14  C   UNL     1       7.121  33.296  60.851  1.00  0.00     0.018 A 
HETATM   15  C   UNL     1       8.040  32.241  60.775  1.00  0.00     0.015 A 
HETATM   16  C   UNL     1       8.520  31.656  61.963  1.00  0.00    -0.046 A 
HETATM   17  C   UNL     1       9.508  30.520  61.964  1.00  0.00     0.049 C 
HETATM   18  C   UNL     1       8.076  32.163  63.201  1.00  0.00     0.037 A 
BRANCH  15  19
HETATM   19  C   UNL     1       8.506  31.785  59.429  1.00  0.00     0.156 C 
HETATM   20  C   UNL     1       7.699  30.733  58.710  1.00  0.00     0.097 C 
HETATM   21  O   UNL     1       9.505  32.278  58.912  1.00  0.00    -0.293 OA
ENDBRANCH  15  19
ENDBRANCH   9  12
ENDBRANCH   1   8
BRANCH   3  22
HETATM   22  C   UNL     1       7.072  34.878  69.705  1.00  0.00     0.013 A 
HETATM   23  C   UNL     1       7.302  33.777  70.548  1.00  0.00     0.052 A 
HETATM   24  C   UNL     1       8.082  33.909  71.699  1.00  0.00     0.069 A 
HETATM   25  C   UNL     1       8.624  35.155  72.020  1.00  0.00     0.037 A 
HETATM   26  C   UNL     1       8.393  36.261  71.204  1.00  0.00     0.004 A 
HETATM   27  C   UNL     1       7.620  36.123  70.051  1.00  0.00     0.015 A 
BRANCH  24  28
HETATM   28  O   UNL     1       8.389  32.912  72.584  1.00  0.00    -0.356 OA
HETATM   29  C   UNL     1       7.890  31.614  72.288  1.00  0.00     0.210 C 
ENDBRANCH  24  28
ENDBRANCH   3  22
TORSDOF 5
ENDMDL
MODEL 2
REMARK VINA RESULT:      -9.6      4.692     11.704
REMARK  5 active torsions:
REMARK  status: ('A' for Active; 'I' for Inactive)
REMARK    1  A    between atoms: C_3  and  C_4 
REMARK    2  A    between atoms: C_9  and  N_10 
REMARK       I    between atoms: N_10  and  C_11 
REMARK    3  A    between atoms: C_11  and  C_12 
REMARK    4  A    between atoms: C_14  and  C_15 
REMARK    5  A    between atoms: C_17  and  O_18 
ROOT
HETATM    1  C   UNL     1       8.670  29.987  58.483  1.00  0.00     0.149 A 
HETATM    2  N   UNL     1       7.752  28.945  58.382  1.00  0.00    -0.223 NA
HETATM    3  C   UNL     1       8.274  28.070  57.539  1.00  0.00     0.139 A 
HETATM    4  N   UNL     1       9.486  28.531  57.077  1.00  0.00    -0.342 N 
HETATM    5  H   UNL     1      10.063  28.061  56.394  1.00  0.00     0.167 HD
HETATM    6  C   UNL     1       9.754  29.739  57.662  1.00  0.00     0.041 A 
HETATM    7  C   UNL     1      10.980  30.520  57.381  1.00  0.00     0.071 C 
ENDROOT
BRANCH   1   8
HETATM    8  C   UNL     1       8.456  31.158  59.348  1.00  0.00     0.276 C 
HETATM    9  N   UNL     1       7.910  30.793  60.562  1.00  0.00    -0.322 N 
HETATM   10  H   UNL     1       7.762  29.791  60.658  1.00  0.00     0.169 HD
HETATM   11  O   UNL     1       8.747  32.292  58.986  1.00  0.00    -0.266 OA
BRANCH   9  12
HETATM   12  C   UNL     1       7.545  31.627  61.635  1.00  0.00     0.035 A 
HETATM   13  C   UNL     1       8.414  31.998  62.658  1.00  0.00     0.030 A 
HETATM   14  C   UNL     1       7.987  32.851  63.680  1.00  0.00     0.018 A 
HETATM   15  C   UNL     1       6.675  33.343  63.702  1.00  0.00     0.015 A 
HETATM   16  C   UNL     1       5.778  32.967  62.684  1.00  0.00    -0.046 A 
HETATM   17  C   UNL     1       4.355  33.455  62.638  1.00  0.00     0.049 C 
HETATM   18  C   UNL     1       6.233  32.116  61.656  1.00  0.00     0.037 A 
BRANCH  15  19
HETATM   19  C   UNL     1       6.275  34.281  64.797  1.00  0.00     0.156 C 
HETATM   20  C   UNL     1       6.563  33.883  66.222  1.00  0.00     0.097 C 
HETATM   21  O   UNL     1       5.752  35.361  64.536  1.00  0.00    -0.293 OA
ENDBRANCH  15  19
ENDBRANCH   9  12
ENDBRANCH   1   8
BRANCH   3  22
HETATM   22  C   UNL     1       7.668  26.810  57.098  1.00  0.00     0.013 A 
HETATM   23  C   UNL     1       8.376  25.606  57.260  1.00  0.00     0.052 A 
HETATM   24  C   UNL     1       7.812  24.388  56.875  1.00  0.00     0.069 A 
HETATM   25  C   UNL     1       6.536  24.373  56.309  1.00  0.00     0.037 A 
HETATM   26  C   UNL     1       5.826  25.558  56.127  1.00  0.00     0.004 A 
HETATM   27  C   UNL     1       6.390  26.772  56.520  1.00  0.00     0.015 A 
BRANCH  24  28
HETATM   28  O   UNL     1       8.393  23.156  56.997  1.00  0.00    -0.356 OA
HETATM   29  C   UNL     1       8.067  22.190  56.005  1.00  0.00     0.210 C 
ENDBRANCH  24  28
ENDBRANCH   3  22
TORSDOF 5
ENDMDL
MODEL 3
REMARK VINA RESULT:      -9.5      5.927     10.151
REMARK  5 active torsions:
REMARK  status: ('A' for Active; 'I' for Inactive)
REMARK    1  A    between atoms: C_3  and  C_4 
REMARK    2  A    between atoms: C_9  and  N_10 
REMARK       I    between atoms: N_10  and  C_11 
REMARK    3  A    between atoms: C_11  and  C_12 
REMARK    4  A    between atoms: C_14  and  C_15 
REMARK    5  A    between atoms: C_17  and  O_18 
ROOT
HETATM    1  C   UNL     1       7.838  29.457  58.123  1.00  0.00     0.149 A 
HETATM    2  N   UNL     1       8.234  29.877  59.389  1.00  0.00    -0.223 NA
HETATM    3  C   UNL     1       7.441  30.884  59.713  1.00  0.00     0.139 A 
HETATM    4  N   UNL     1       6.564  31.138  58.683  1.00  0.00    -0.342 N 
HETATM    5  H   UNL     1       5.882  31.884  58.673  1.00  0.00     0.167 HD
HETATM    6  C   UNL     1       6.798  30.248  57.670  1.00  0.00     0.041 A 
HETATM    7  C   UNL     1       6.033  30.245  56.402  1.00  0.00     0.071 C 
ENDROOT
BRANCH   1   8
HETATM    8  C   UNL     1       8.475  28.335  57.418  1.00  0.00     0.276 C 
HETATM    9  N   UNL     1       7.652  27.227  57.387  1.00  0.00    -0.322 N 
HETATM   10  H   UNL     1       6.752  27.375  57.838  1.00  0.00     0.169 HD
HETATM   11  O   UNL     1       9.597  28.426  56.935  1.00  0.00    -0.266 OA
BRANCH   9  12
HETATM   12  C   UNL     1       7.917  25.964  56.827  1.00  0.00     0.035 A 
HETATM   13  C   UNL     1       8.635  24.964  57.477  1.00  0.00     0.030 A 
HETATM   14  C   UNL     1       8.839  23.722  56.868  1.00  0.00     0.018 A 
HETATM   15  C   UNL     1       8.333  23.461  55.587  1.00  0.00     0.015 A 
HETATM   16  C   UNL     1       7.617  24.465  54.908  1.00  0.00    -0.046 A 
HETATM   17  C   UNL     1       7.042  24.260  53.532  1.00  0.00     0.049 C 
HETATM   18  C   UNL     1       7.412  25.705  55.546  1.00  0.00     0.037 A 
BRANCH  15  19
HETATM   19  C   UNL     1       8.546  22.106  54.990  1.00  0.00     0.156 C 
HETATM   20  C   UNL     1       7.719  20.956  55.509  1.00  0.00     0.097 C 
HETATM   21  O   UNL     1       9.354  21.942  54.080  1.00  0.00    -0.293 OA
ENDBRANCH  15  19
ENDBRANCH   9  12
ENDBRANCH   1   8
BRANCH   3  22
HETATM   22  C   UNL     1       7.483  31.669  60.950  1.00  0.00     0.013 A 
HETATM   23  C   UNL     1       6.688  32.822  61.066  1.00  0.00     0.052 A 
HETATM   24  C   UNL     1       6.687  33.573  62.244  1.00  0.00     0.069 A 
HETATM   25  C   UNL     1       7.499  33.179  63.309  1.00  0.00     0.037 A 
HETATM   26  C   UNL     1       8.305  32.047  63.205  1.00  0.00     0.004 A 
HETATM   27  C   UNL     1       8.297  31.295  62.030  1.00  0.00     0.015 A 
BRANCH  24  28
HETATM   28  O   UNL     1       5.948  34.700  62.481  1.00  0.00    -0.356 OA
HETATM   29  C   UNL     1       4.876  34.967  61.586  1.00  0.00     0.210 C 
ENDBRANCH  24  28
ENDBRANCH   3  22
TORSDOF 5
ENDMDL
MODEL 4
REMARK VINA RESULT:      -9.4      8.478     14.937
REMARK  5 active torsions:
REMARK  status: ('A' for Active; 'I' for Inactive)
REMARK    1  A    between atoms: C_3  and  C_4 
REMARK    2  A    between atoms: C_9  and  N_10 
REMARK       I    between atoms: N_10  and  C_11 
REMARK    3  A    between atoms: C_11  and  C_12 
REMARK    4  A    between atoms: C_14  and  C_15 
REMARK    5  A    between atoms: C_17  and  O_18 
ROOT
HETATM    1  C   UNL     1       7.110  26.222  53.996  1.00  0.00     0.149 A 
HETATM    2  N   UNL     1       7.691  25.067  54.511  1.00  0.00    -0.223 NA
HETATM    3  C   UNL     1       7.446  24.106  53.637  1.00  0.00     0.139 A 
HETATM    4  N   UNL     1       6.704  24.604  52.589  1.00  0.00    -0.342 N 
HETATM    5  H   UNL     1       6.358  24.059  51.812  1.00  0.00     0.167 HD
HETATM    6  C   UNL     1       6.482  25.939  52.797  1.00  0.00     0.041 A 
HETATM    7  C   UNL     1       5.708  26.786  51.862  1.00  0.00     0.071 C 
ENDROOT
BRANCH   1   8
HETATM    8  C   UNL     1       7.180  27.524  54.678  1.00  0.00     0.276 C 
HETATM    9  N   UNL     1       7.876  27.432  55.867  1.00  0.00    -0.322 N 
HETATM   10  H   UNL     1       8.229  26.497  56.061  1.00  0.00     0.169 HD
HETATM   11  O   UNL     1       6.671  28.532  54.205  1.00  0.00    -0.266 OA
BRANCH   9  12
HETATM   12  C   UNL     1       8.133  28.449  56.804  1.00  0.00     0.035 A 
HETATM   13  C   UNL     1       7.195  28.908  57.725  1.00  0.00     0.030 A 
HETATM   14  C   UNL     1       7.529  29.907  58.644  1.00  0.00     0.018 A 
HETATM   15  C   UNL     1       8.811  30.475  58.652  1.00  0.00     0.015 A 
HETATM   16  C   UNL     1       9.768  30.034  57.717  1.00  0.00    -0.046 A 
HETATM   17  C   UNL     1      11.164  30.593  57.664  1.00  0.00     0.049 C 
HETATM   18  C   UNL     1       9.414  29.016  56.809  1.00  0.00     0.037 A 
BRANCH  15  19
HETATM   19  C   UNL     1       9.132  31.516  59.676  1.00  0.00     0.156 C 
HETATM   20  C   UNL     1       9.338  31.076  61.104  1.00  0.00     0.097 C 
HETATM   21  O   UNL     1       9.254  32.695  59.355  1.00  0.00    -0.293 OA
ENDBRANCH  15  19
ENDBRANCH   9  12
ENDBRANCH   1   8
BRANCH   3  22
HETATM   22  C   UNL     1       7.843  22.699  53.747  1.00  0.00     0.013 A 
HETATM   23  C   UNL     1       8.181  22.171  55.004  1.00  0.00     0.052 A 
HETATM   24  C   UNL     1       8.536  20.827  55.142  1.00  0.00     0.069 A 
HETATM   25  C   UNL     1       8.570  20.008  54.013  1.00  0.00     0.037 A 
HETATM   26  C   UNL     1       8.253  20.519  52.755  1.00  0.00     0.004 A 
HETATM   27  C   UNL     1       7.890  21.860  52.623  1.00  0.00     0.015 A 
BRANCH  24  28
HETATM   28  O   UNL     1       8.868  20.196  56.310  1.00  0.00    -0.356 OA
HETATM   29  C   UNL     1       8.643  20.916  57.516  1.00  0.00     0.210 C 
ENDBRANCH  24  28
ENDBRANCH   3  22
TORSDOF 5
ENDMDL
MODEL 5
REMARK VINA RESULT:      -9.4      4.591     12.030
REMARK  5 active torsions:
REMARK  status: ('A' for Active; 'I' for Inactive)
REMARK    1  A    between atoms: C_3  and  C_4 
REMARK    2  A    between atoms: C_9  and  N_10 
REMARK       I    between atoms: N_10  and  C_11 
REMARK    3  A    between atoms: C_11  and  C_12 
REMARK    4  A    between atoms: C_14  and  C_15 
REMARK    5  A    between atoms: C_17  and  O_18 
ROOT
HETATM    1  C   UNL     1       8.715  30.077  58.396  1.00  0.00     0.149 A 
HETATM    2  N   UNL     1       7.701  29.151  58.172  1.00  0.00    -0.223 NA
HETATM    3  C   UNL     1       8.175  28.285  57.293  1.00  0.00     0.139 A 
HETATM    4  N   UNL     1       9.453  28.642  56.927  1.00  0.00    -0.342 N 
HETATM    5  H   UNL     1      10.016  28.160  56.240  1.00  0.00     0.167 HD
HETATM    6  C   UNL     1       9.812  29.771  57.613  1.00  0.00     0.041 A 
HETATM    7  C   UNL     1      11.127  30.432  57.453  1.00  0.00     0.071 C 
ENDROOT
BRANCH   1   8
HETATM    8  C   UNL     1       8.576  31.201  59.334  1.00  0.00     0.276 C 
HETATM    9  N   UNL     1       7.886  30.827  60.470  1.00  0.00    -0.322 N 
HETATM   10  H   UNL     1       7.605  29.849  60.472  1.00  0.00     0.169 HD
HETATM   11  O   UNL     1       9.037  32.310  59.090  1.00  0.00    -0.266 OA
BRANCH   9  12
HETATM   12  C   UNL     1       7.537  31.623  61.576  1.00  0.00     0.035 A 
HETATM   13  C   UNL     1       8.394  31.888  62.641  1.00  0.00     0.030 A 
HETATM   14  C   UNL     1       7.986  32.710  63.696  1.00  0.00     0.018 A 
HETATM   15  C   UNL     1       6.705  33.277  63.709  1.00  0.00     0.015 A 
HETATM   16  C   UNL     1       5.818  33.008  62.648  1.00  0.00    -0.046 A 
HETATM   17  C   UNL     1       4.427  33.579  62.590  1.00  0.00     0.049 C 
HETATM   18  C   UNL     1       6.254  32.187  61.588  1.00  0.00     0.037 A 
BRANCH  15  19
HETATM   19  C   UNL     1       6.326  34.178  64.841  1.00  0.00     0.156 C 
HETATM   20  C   UNL     1       6.803  33.825  66.228  1.00  0.00     0.097 C 
HETATM   21  O   UNL     1       5.668  35.195  64.640  1.00  0.00    -0.293 OA
ENDBRANCH  15  19
ENDBRANCH   9  12
ENDBRANCH   1   8
BRANCH   3  22
HETATM   22  C   UNL     1       7.467  27.131  56.730  1.00  0.00     0.013 A 
HETATM   23  C   UNL     1       6.874  27.234  55.460  1.00  0.00     0.052 A 
HETATM   24  C   UNL     1       6.218  26.142  54.887  1.00  0.00     0.069 A 
HETATM   25  C   UNL     1       6.139  24.942  55.595  1.00  0.00     0.037 A 
HETATM   26  C   UNL     1       6.709  24.826  56.862  1.00  0.00     0.004 A 
HETATM   27  C   UNL     1       7.371  25.917  57.427  1.00  0.00     0.015 A 
BRANCH  24  28
HETATM   28  O   UNL     1       5.618  26.116  53.657  1.00  0.00    -0.356 OA
HETATM   29  C   UNL     1       4.990  24.899  53.275  1.00  0.00     0.210 C 
ENDBRANCH  24  28
ENDBRANCH   3  22
TORSDOF 5
ENDMDL
MODEL 6
REMARK VINA RESULT:      -9.2      5.954     10.389
REMARK  5 active torsions:
REMARK  status: ('A' for Active; 'I' for Inactive)
REMARK    1  A    between atoms: C_3  and  C_4 
REMARK    2  A    between atoms: C_9  and  N_10 
REMARK       I    between atoms: N_10  and  C_11 
REMARK    3  A    between atoms: C_11  and  C_12 
REMARK    4  A    between atoms: C_14  and  C_15 
REMARK    5  A    between atoms: C_17  and  O_18 
ROOT
HETATM    1  C   UNL     1       8.625  29.455  57.704  1.00  0.00     0.149 A 
HETATM    2  N   UNL     1       7.640  29.918  58.570  1.00  0.00    -0.223 NA
HETATM    3  C   UNL     1       8.189  30.895  59.271  1.00  0.00     0.139 A 
HETATM    4  N   UNL     1       9.505  31.055  58.898  1.00  0.00    -0.342 N 
HETATM    5  H   UNL     1      10.150  31.713  59.314  1.00  0.00     0.167 HD
HETATM    6  C   UNL     1       9.799  30.156  57.909  1.00  0.00     0.041 A 
HETATM    7  C   UNL     1      11.136  30.051  57.282  1.00  0.00     0.071 C 
ENDROOT
BRANCH   1   8
HETATM    8  C   UNL     1       8.394  28.369  56.738  1.00  0.00     0.276 C 
HETATM    9  N   UNL     1       8.452  27.132  57.349  1.00  0.00    -0.322 N 
HETATM   10  H   UNL     1       8.629  27.180  58.350  1.00  0.00     0.169 HD
HETATM   11  O   UNL     1       8.178  28.591  55.553  1.00  0.00    -0.266 OA
BRANCH   9  12
HETATM   12  C   UNL     1       8.305  25.865  56.757  1.00  0.00     0.035 A 
HETATM   13  C   UNL     1       9.015  24.736  57.160  1.00  0.00     0.030 A 
HETATM   14  C   UNL     1       8.799  23.501  56.540  1.00  0.00     0.018 A 
HETATM   15  C   UNL     1       7.872  23.375  55.496  1.00  0.00     0.015 A 
HETATM   16  C   UNL     1       7.157  24.509  55.065  1.00  0.00    -0.046 A 
HETATM   17  C   UNL     1       6.145  24.454  53.952  1.00  0.00     0.049 C 
HETATM   18  C   UNL     1       7.380  25.741  55.712  1.00  0.00     0.037 A 
BRANCH  15  19
HETATM   19  C   UNL     1       7.650  22.027  54.887  1.00  0.00     0.156 C 
HETATM   20  C   UNL     1       8.014  21.826  53.438  1.00  0.00     0.097 C 
HETATM   21  O   UNL     1       7.209  21.100  55.562  1.00  0.00    -0.293 OA
ENDBRANCH  15  19
ENDBRANCH   9  12
ENDBRANCH   1   8
BRANCH   3  22
HETATM   22  C   UNL     1       7.548  31.684  60.327  1.00  0.00     0.013 A 
HETATM   23  C   UNL     1       8.169  31.795  61.583  1.00  0.00     0.052 A 
HETATM   24  C   UNL     1       7.594  32.564  62.598  1.00  0.00     0.069 A 
HETATM   25  C   UNL     1       6.382  33.213  62.363  1.00  0.00     0.037 A 
HETATM   26  C   UNL     1       5.744  33.101  61.129  1.00  0.00     0.004 A 
HETATM   27  C   UNL     1       6.326  32.339  60.114  1.00  0.00     0.015 A 
BRANCH  24  28
HETATM   28  O   UNL     1       8.109  32.760  63.851  1.00  0.00    -0.356 OA
HETATM   29  C   UNL     1       7.359  33.586  64.732  1.00  0.00     0.210 C 
ENDBRANCH  24  28
ENDBRANCH   3  22
TORSDOF 5
ENDMDL
MODEL 7
REMARK VINA RESULT:      -8.9      8.863     16.400
REMARK  5 active torsions:
REMARK  status: ('A' for Active; 'I' for Inactive)
REMARK    1  A    between atoms: C_3  and  C_4 
REMARK    2  A    between atoms: C_9  and  N_10 
REMARK       I    between atoms: N_10  and  C_11 
REMARK    3  A    between atoms: C_11  and  C_12 
REMARK    4  A    between atoms: C_14  and  C_15 
REMARK    5  A    between atoms: C_17  and  O_18 
ROOT
HETATM    1  C   UNL     1       6.557  26.849  53.248  1.00  0.00     0.149 A 
HETATM    2  N   UNL     1       5.841  27.620  52.337  1.00  0.00    -0.223 NA
HETATM    3  C   UNL     1       5.825  26.938  51.204  1.00  0.00     0.139 A 
HETATM    4  N   UNL     1       6.530  25.765  51.354  1.00  0.00    -0.342 N 
HETATM    5  H   UNL     1       6.695  25.089  50.622  1.00  0.00     0.167 HD
HETATM    6  C   UNL     1       7.000  25.690  52.638  1.00  0.00     0.041 A 
HETATM    7  C   UNL     1       7.809  24.556  53.139  1.00  0.00     0.071 C 
ENDROOT
BRANCH   1   8
HETATM    8  C   UNL     1       6.783  27.265  54.641  1.00  0.00     0.276 C 
HETATM    9  N   UNL     1       7.397  28.500  54.704  1.00  0.00    -0.322 N 
HETATM   10  H   UNL     1       7.575  28.914  53.792  1.00  0.00     0.169 HD
HETATM   11  O   UNL     1       6.447  26.565  55.589  1.00  0.00    -0.266 OA
BRANCH   9  12
HETATM   12  C   UNL     1       7.794  29.214  55.849  1.00  0.00     0.035 A 
HETATM   13  C   UNL     1       6.901  29.794  56.747  1.00  0.00     0.030 A 
HETATM   14  C   UNL     1       7.368  30.470  57.879  1.00  0.00     0.018 A 
HETATM   15  C   UNL     1       8.743  30.586  58.129  1.00  0.00     0.015 A 
HETATM   16  C   UNL     1       9.660  30.018  57.223  1.00  0.00    -0.046 A 
HETATM   17  C   UNL     1      11.150  30.099  57.423  1.00  0.00     0.049 C 
HETATM   18  C   UNL     1       9.168  29.330  56.096  1.00  0.00     0.037 A 
BRANCH  15  19
HETATM   19  C   UNL     1       9.194  31.287  59.371  1.00  0.00     0.156 C 
HETATM   20  C   UNL     1       9.152  30.532  60.675  1.00  0.00     0.097 C 
HETATM   21  O   UNL     1       9.615  32.439  59.321  1.00  0.00    -0.293 OA
ENDBRANCH  15  19
ENDBRANCH   9  12
ENDBRANCH   1   8
BRANCH   3  22
HETATM   22  C   UNL     1       5.204  27.350  49.942  1.00  0.00     0.013 A 
HETATM   23  C   UNL     1       4.332  26.469  49.279  1.00  0.00     0.052 A 
HETATM   24  C   UNL     1       3.703  26.846  48.090  1.00  0.00     0.069 A 
HETATM   25  C   UNL     1       3.961  28.107  47.549  1.00  0.00     0.037 A 
HETATM   26  C   UNL     1       4.835  28.987  48.186  1.00  0.00     0.004 A 
HETATM   27  C   UNL     1       5.453  28.610  49.378  1.00  0.00     0.015 A 
BRANCH  24  28
HETATM   28  O   UNL     1       2.827  26.087  47.364  1.00  0.00    -0.356 OA
HETATM   29  C   UNL     1       2.862  24.682  47.581  1.00  0.00     0.210 C 
ENDBRANCH  24  28
ENDBRANCH   3  22
TORSDOF 5
ENDMDL
MODEL 8
REMARK VINA RESULT:      -8.8      4.917      8.553
REMARK  5 active torsions:
REMARK  status: ('A' for Active; 'I' for Inactive)
REMARK    1  A    between atoms: C_3  and  C_4 
REMARK    2  A    between atoms: C_9  and  N_10 
REMARK       I    between atoms: N_10  and  C_11 
REMARK    3  A    between atoms: C_11  and  C_12 
REMARK    4  A    between atoms: C_14  and  C_15 
REMARK    5  A    between atoms: C_17  and  O_18 
ROOT
HETATM    1  C   UNL     1       7.568  31.391  59.088  1.00  0.00     0.149 A 
HETATM    2  N   UNL     1       6.802  31.839  60.160  1.00  0.00    -0.223 NA
HETATM    3  C   UNL     1       7.635  32.457  60.981  1.00  0.00     0.139 A 
HETATM    4  N   UNL     1       8.915  32.398  60.479  1.00  0.00    -0.342 N 
HETATM    5  H   UNL     1       9.736  32.765  60.940  1.00  0.00     0.167 HD
HETATM    6  C   UNL     1       8.894  31.730  59.285  1.00  0.00     0.041 A 
HETATM    7  C   UNL     1      10.108  31.480  58.475  1.00  0.00     0.071 C 
ENDROOT
BRANCH   1   8
HETATM    8  C   UNL     1       6.994  30.663  57.946  1.00  0.00     0.276 C 
HETATM    9  N   UNL     1       7.565  29.413  57.808  1.00  0.00    -0.322 N 
HETATM   10  H   UNL     1       8.266  29.205  58.516  1.00  0.00     0.169 HD
HETATM   11  O   UNL     1       6.119  31.150  57.240  1.00  0.00    -0.266 OA
BRANCH   9  12
HETATM   12  C   UNL     1       7.297  28.441  56.828  1.00  0.00     0.035 A 
HETATM   13  C   UNL     1       7.716  28.540  55.503  1.00  0.00     0.030 A 
HETATM   14  C   UNL     1       7.434  27.521  54.589  1.00  0.00     0.018 A 
HETATM   15  C   UNL     1       6.717  26.383  54.983  1.00  0.00     0.015 A 
HETATM   16  C   UNL     1       6.273  26.272  56.315  1.00  0.00    -0.046 A 
HETATM   17  C   UNL     1       5.499  25.081  56.814  1.00  0.00     0.049 C 
HETATM   18  C   UNL     1       6.579  27.305  57.223  1.00  0.00     0.037 A 
BRANCH  15  19
HETATM   19  C   UNL     1       6.470  25.302  53.978  1.00  0.00     0.156 C 
HETATM   20  C   UNL     1       7.539  24.260  53.769  1.00  0.00     0.097 C 
HETATM   21  O   UNL     1       5.409  25.251  53.361  1.00  0.00    -0.293 OA
ENDBRANCH  15  19
ENDBRANCH   9  12
ENDBRANCH   1   8
BRANCH   3  22
HETATM   22  C   UNL     1       7.298  33.084  62.262  1.00  0.00     0.013 A 
HETATM   23  C   UNL     1       6.378  34.145  62.294  1.00  0.00     0.052 A 
HETATM   24  C   UNL     1       6.018  34.742  63.505  1.00  0.00     0.069 A 
HETATM   25  C   UNL     1       6.594  34.286  64.691  1.00  0.00     0.037 A 
HETATM   26  C   UNL     1       7.520  33.245  64.677  1.00  0.00     0.004 A 
HETATM   27  C   UNL     1       7.870  32.646  63.466  1.00  0.00     0.015 A 
BRANCH  24  28
HETATM   28  O   UNL     1       5.125  35.767  63.665  1.00  0.00    -0.356 OA
HETATM   29  C   UNL     1       3.822  35.574  63.131  1.00  0.00     0.210 C 
ENDBRANCH  24  28
ENDBRANCH   3  22
TORSDOF 5
ENDMDL
MODEL 9
REMARK VINA RESULT:      -8.6      7.148     11.892
REMARK  5 active torsions:
REMARK  status: ('A' for Active; 'I' for Inactive)
REMARK    1  A    between atoms: C_3  and  C_4 
REMARK    2  A    between atoms: C_9  and  N_10 
REMARK       I    between atoms: N_10  and  C_11 
REMARK    3  A    between atoms: C_11  and  C_12 
REMARK    4  A    between atoms: C_14  and  C_15 
REMARK    5  A    between atoms: C_17  and  O_18 
ROOT
HETATM    1  C   UNL     1       6.369  28.329  56.084  1.00  0.00     0.149 A 
HETATM    2  N   UNL     1       7.290  28.632  57.083  1.00  0.00    -0.223 NA
HETATM    3  C   UNL     1       7.124  29.912  57.367  1.00  0.00     0.139 A 
HETATM    4  N   UNL     1       6.141  30.445  56.564  1.00  0.00    -0.342 N 
HETATM    5  H   UNL     1       5.855  31.414  56.562  1.00  0.00     0.167 HD
HETATM    6  C   UNL     1       5.652  29.461  55.747  1.00  0.00     0.041 A 
HETATM    7  C   UNL     1       4.584  29.694  54.749  1.00  0.00     0.071 C 
ENDROOT
BRANCH   1   8
HETATM    8  C   UNL     1       6.232  26.983  55.507  1.00  0.00     0.276 C 
HETATM    9  N   UNL     1       7.385  26.242  55.677  1.00  0.00    -0.322 N 
HETATM   10  H   UNL     1       8.118  26.739  56.178  1.00  0.00     0.169 HD
HETATM   11  O   UNL     1       5.201  26.616  54.956  1.00  0.00    -0.266 OA
BRANCH   9  12
HETATM   12  C   UNL     1       7.645  24.929  55.244  1.00  0.00     0.035 A 
HETATM   13  C   UNL     1       7.756  24.563  53.905  1.00  0.00     0.030 A 
HETATM   14  C   UNL     1       8.040  23.241  53.549  1.00  0.00     0.018 A 
HETATM   15  C   UNL     1       8.211  22.256  54.531  1.00  0.00     0.015 A 
HETATM   16  C   UNL     1       8.088  22.604  55.890  1.00  0.00    -0.046 A 
HETATM   17  C   UNL     1       8.259  21.604  57.001  1.00  0.00     0.049 C 
HETATM   18  C   UNL     1       7.814  23.945  56.227  1.00  0.00     0.037 A 
BRANCH  15  19
HETATM   19  C   UNL     1       8.549  20.863  54.103  1.00  0.00     0.156 C 
HETATM   20  C   UNL     1       8.173  20.431  52.709  1.00  0.00     0.097 C 
HETATM   21  O   UNL     1       9.145  20.102  54.861  1.00  0.00    -0.293 OA
ENDBRANCH  15  19
ENDBRANCH   9  12
ENDBRANCH   1   8
BRANCH   3  22
HETATM   22  C   UNL     1       7.879  30.698  58.347  1.00  0.00     0.013 A 
HETATM   23  C   UNL     1       7.195  31.361  59.380  1.00  0.00     0.052 A 
HETATM   24  C   UNL     1       7.892  32.093  60.344  1.00  0.00     0.069 A 
HETATM   25  C   UNL     1       9.283  32.177  60.267  1.00  0.00     0.037 A 
HETATM   26  C   UNL     1       9.976  31.539  59.240  1.00  0.00     0.004 A 
HETATM   27  C   UNL     1       9.277  30.802  58.284  1.00  0.00     0.015 A 
BRANCH  24  28
HETATM   28  O   UNL     1       7.340  32.765  61.401  1.00  0.00    -0.356 OA
HETATM   29  C   UNL     1       7.780  32.391  62.700  1.00  0.00     0.210 C 
ENDBRANCH  24  28
ENDBRANCH   3  22
TORSDOF 5
ENDMDL
MODEL 10
REMARK VINA RESULT:      -8.5     14.015     16.990
REMARK  5 active torsions:
REMARK  status: ('A' for Active; 'I' for Inactive)
REMARK    1  A    between atoms: C_3  and  C_4 
REMARK    2  A    between atoms: C_9  and  N_10 
REMARK       I    between atoms: N_10  and  C_11 
REMARK    3  A    between atoms: C_11  and  C_12 
REMARK    4  A    between atoms: C_14  and  C_15 
REMARK    5  A    between atoms: C_17  and  O_18 
ROOT
HETATM    1  C   UNL     1       6.262  26.054  52.902  1.00  0.00     0.149 A 
HETATM    2  N   UNL     1       6.367  24.676  52.737  1.00  0.00    -0.223 NA
HETATM    3  C   UNL     1       7.219  24.254  53.656  1.00  0.00     0.139 A 
HETATM    4  N   UNL     1       7.683  25.323  54.389  1.00  0.00    -0.342 N 
HETATM    5  H   UNL     1       8.372  25.266  55.126  1.00  0.00     0.167 HD
HETATM    6  C   UNL     1       7.090  26.468  53.929  1.00  0.00     0.041 A 
HETATM    7  C   UNL     1       7.370  27.808  54.493  1.00  0.00     0.071 C 
ENDROOT
BRANCH   1   8
HETATM    8  C   UNL     1       5.387  26.893  52.070  1.00  0.00     0.276 C 
HETATM    9  N   UNL     1       5.906  27.057  50.801  1.00  0.00    -0.322 N 
HETATM   10  H   UNL     1       6.786  26.567  50.654  1.00  0.00     0.169 HD
HETATM   11  O   UNL     1       4.339  27.361  52.498  1.00  0.00    -0.266 OA
BRANCH   9  12
HETATM   12  C   UNL     1       5.374  27.806  49.735  1.00  0.00     0.035 A 
HETATM   13  C   UNL     1       4.737  27.240  48.634  1.00  0.00     0.030 A 
HETATM   14  C   UNL     1       4.210  28.050  47.623  1.00  0.00     0.018 A 
HETATM   15  C   UNL     1       4.320  29.446  47.692  1.00  0.00     0.015 A 
HETATM   16  C   UNL     1       4.975  30.035  48.791  1.00  0.00    -0.046 A 
HETATM   17  C   UNL     1       5.131  31.525  48.936  1.00  0.00     0.049 C 
HETATM   18  C   UNL     1       5.487  29.201  49.805  1.00  0.00     0.037 A 
BRANCH  15  19
HETATM   19  C   UNL     1       3.710  30.272  46.604  1.00  0.00     0.156 C 
HETATM   20  C   UNL     1       2.208  30.401  46.560  1.00  0.00     0.097 C 
HETATM   21  O   UNL     1       4.418  30.853  45.786  1.00  0.00    -0.293 OA
ENDBRANCH  15  19
ENDBRANCH   9  12
ENDBRANCH   1   8
BRANCH   3  22
HETATM   22  C   UNL     1       7.667  22.874  53.869  1.00  0.00     0.013 A 
HETATM   23  C   UNL     1       7.984  22.441  55.167  1.00  0.00     0.052 A 
HETATM   24  C   UNL     1       8.386  21.124  55.403  1.00  0.00     0.069 A 
HETATM   25  C   UNL     1       8.488  20.237  54.330  1.00  0.00     0.037 A 
HETATM   26  C   UNL     1       8.192  20.654  53.034  1.00  0.00     0.004 A 
HETATM   27  C   UNL     1       7.782  21.968  52.804  1.00  0.00     0.015 A 
BRANCH  24  28
HETATM   28  O   UNL     1       8.704  20.583  56.619  1.00  0.00    -0.356 OA
HETATM   29  C   UNL     1       8.340  21.332  57.771  1.00  0.00     0.210 C 
ENDBRANCH  24  28
ENDBRANCH   3  22
TORSDOF 5
ENDMDL
