MODEL 1
REMARK VINA RESULT:      -9.5      0.000      0.000
REMARK  3 active torsions:
REMARK  status: ('A' for Active; 'I' for Inactive)
REMARK    1  A    between atoms: C_2  and  C_3 
REMARK    2  A    between atoms: N_4  and  N_5 
REMARK    3  A    between atoms: C_23  and  O_24 
ROOT
HETATM    1  N   UNL     1       7.382  26.717  56.172  1.00  0.00    -0.189 N 
HETATM    2  C   UNL     1       6.346  27.608  55.839  1.00  0.00     0.298 A 
HETATM    3  O   UNL     1       5.525  27.460  54.938  1.00  0.00    -0.264 OA
HETATM    4  C   UNL     1       6.339  28.752  56.693  1.00  0.00     0.133 A 
HETATM    5  C   UNL     1       7.246  28.962  57.689  1.00  0.00     0.103 A 
HETATM    6  N   UNL     1       8.294  28.081  57.957  1.00  0.00    -0.239 NA
HETATM    7  C   UNL     1       8.297  27.037  57.176  1.00  0.00     0.239 A 
HETATM    8  N   UNL     1       5.480  29.815  56.683  1.00  0.00    -0.349 N 
HETATM    9  H   UNL     1       4.708  29.926  56.037  1.00  0.00     0.166 HD
HETATM   10  C   UNL     1       5.835  30.710  57.675  1.00  0.00     0.045 A 
HETATM   11  C   UNL     1       6.957  30.183  58.333  1.00  0.00     0.024 A 
HETATM   12  C   UNL     1       5.258  31.933  58.034  1.00  0.00     0.032 A 
HETATM   13  C   UNL     1       5.841  32.634  59.095  1.00  0.00     0.026 A 
HETATM   14  C   UNL     1       6.954  32.127  59.764  1.00  0.00     0.035 A 
HETATM   15 CL   UNL     1       7.640  33.023  61.066  1.00  0.00    -0.084 Cl
HETATM   16  C   UNL     1       7.527  30.906  59.397  1.00  0.00     0.040 A 
ENDROOT
BRANCH   1  17
HETATM   17  N   UNL     1       7.488  25.594  55.367  1.00  0.00    -0.175 NA
HETATM   18  C   UNL     1       7.591  24.410  55.872  1.00  0.00     0.150 C 
BRANCH  18  19
HETATM   19  C   UNL     1       7.731  23.224  54.998  1.00  0.00    -0.017 A 
HETATM   20  C   UNL     1       7.865  23.368  53.614  1.00  0.00     0.016 A 
HETATM   21  C   UNL     1       7.994  22.236  52.809  1.00  0.00     0.037 A 
HETATM   22  C   UNL     1       7.993  20.973  53.390  1.00  0.00     0.065 A 
HETATM   23  C   UNL     1       7.862  20.818  54.768  1.00  0.00     0.037 A 
HETATM   24  C   UNL     1       7.727  21.950  55.578  1.00  0.00     0.016 A 
BRANCH  22  25
HETATM   25  O   UNL     1       8.125  19.896  52.564  1.00  0.00    -0.361 OA
HETATM   26  H   UNL     1       9.041  19.579  52.601  1.00  0.00     0.217 HD
ENDBRANCH  22  25
ENDBRANCH  18  19
ENDBRANCH   1  17
TORSDOF 3
ENDMDL
MODEL 2
REMARK VINA RESULT:      -9.1      1.940      2.478
REMARK  3 active torsions:
REMARK  status: ('A' for Active; 'I' for Inactive)
REMARK    1  A    between atoms: C_2  and  C_3 
REMARK    2  A    between atoms: N_4  and  N_5 
REMARK    3  A    between atoms: C_23  and  O_24 
ROOT
HETATM    1  N   UNL     1       7.061  26.656  55.903  1.00  0.00    -0.189 N 
HETATM    2  C   UNL     1       7.280  27.271  57.150  1.00  0.00     0.298 A 
HETATM    3  O   UNL     1       7.848  26.767  58.115  1.00  0.00    -0.264 OA
HETATM    4  C   UNL     1       6.757  28.599  57.182  1.00  0.00     0.133 A 
HETATM    5  C   UNL     1       6.103  29.183  56.139  1.00  0.00     0.103 A 
HETATM    6  N   UNL     1       5.857  28.524  54.935  1.00  0.00    -0.239 NA
HETATM    7  C   UNL     1       6.336  27.312  54.908  1.00  0.00     0.239 A 
HETATM    8  N   UNL     1       6.795  29.502  58.208  1.00  0.00    -0.349 N 
HETATM    9  H   UNL     1       7.215  29.330  59.112  1.00  0.00     0.166 HD
HETATM   10  C   UNL     1       6.163  30.669  57.822  1.00  0.00     0.045 A 
HETATM   11  C   UNL     1       5.718  30.490  56.505  1.00  0.00     0.024 A 
HETATM   12  C   UNL     1       5.950  31.856  58.534  1.00  0.00     0.032 A 
HETATM   13  C   UNL     1       5.267  32.886  57.879  1.00  0.00     0.026 A 
HETATM   14  C   UNL     1       4.819  32.730  56.568  1.00  0.00     0.035 A 
HETATM   15 CL   UNL     1       3.983  34.025  55.798  1.00  0.00    -0.084 Cl
HETATM   16  C   UNL     1       5.033  31.540  55.865  1.00  0.00     0.040 A 
ENDROOT
BRANCH   1  17
HETATM   17  N   UNL     1       7.502  25.347  55.796  1.00  0.00    -0.175 NA
HETATM   18  C   UNL     1       7.260  24.639  54.743  1.00  0.00     0.150 C 
BRANCH  18  19
HETATM   19  C   UNL     1       7.714  23.233  54.656  1.00  0.00    -0.017 A 
HETATM   20  C   UNL     1       7.968  22.640  53.415  1.00  0.00     0.016 A 
HETATM   21  C   UNL     1       8.393  21.312  53.356  1.00  0.00     0.037 A 
HETATM   22  C   UNL     1       8.564  20.590  54.532  1.00  0.00     0.065 A 
HETATM   23  C   UNL     1       8.315  21.172  55.772  1.00  0.00     0.037 A 
HETATM   24  C   UNL     1       7.884  22.501  55.836  1.00  0.00     0.016 A 
BRANCH  22  25
HETATM   25  O   UNL     1       8.984  19.298  54.425  1.00  0.00    -0.361 OA
HETATM   26  H   UNL     1       9.099  18.928  55.314  1.00  0.00     0.217 HD
ENDBRANCH  22  25
ENDBRANCH  18  19
ENDBRANCH   1  17
TORSDOF 3
ENDMDL
MODEL 3
REMARK VINA RESULT:      -9.1      5.501      8.186
REMARK  3 active torsions:
REMARK  status: ('A' for Active; 'I' for Inactive)
REMARK    1  A    between atoms: C_2  and  C_3 
REMARK    2  A    between atoms: N_4  and  N_5 
REMARK    3  A    between atoms: C_23  and  O_24 
ROOT
HETATM    1  N   UNL     1       7.008  32.025  61.669  1.00  0.00    -0.189 N 
HETATM    2  C   UNL     1       5.688  32.300  62.067  1.00  0.00     0.298 A 
HETATM    3  O   UNL     1       4.676  32.114  61.397  1.00  0.00    -0.264 OA
HETATM    4  C   UNL     1       5.636  32.836  63.390  1.00  0.00     0.133 A 
HETATM    5  C   UNL     1       6.738  33.076  64.154  1.00  0.00     0.103 A 
HETATM    6  N   UNL     1       8.038  32.840  63.707  1.00  0.00    -0.239 NA
HETATM    7  C   UNL     1       8.081  32.350  62.499  1.00  0.00     0.239 A 
HETATM    8  N   UNL     1       4.538  33.207  64.114  1.00  0.00    -0.349 N 
HETATM    9  H   UNL     1       3.583  33.145  63.785  1.00  0.00     0.166 HD
HETATM   10  C   UNL     1       4.936  33.686  65.348  1.00  0.00     0.045 A 
HETATM   11  C   UNL     1       6.335  33.608  65.398  1.00  0.00     0.024 A 
HETATM   12  C   UNL     1       4.171  34.182  66.411  1.00  0.00     0.032 A 
HETATM   13  C   UNL     1       4.857  34.604  67.555  1.00  0.00     0.026 A 
HETATM   14  C   UNL     1       6.247  34.532  67.626  1.00  0.00     0.035 A 
HETATM   15 CL   UNL     1       7.051  35.061  69.055  1.00  0.00    -0.084 Cl
HETATM   16  C   UNL     1       7.003  34.038  66.559  1.00  0.00     0.040 A 
ENDROOT
BRANCH   1  17
HETATM   17  N   UNL     1       7.155  31.537  60.380  1.00  0.00    -0.175 NA
HETATM   18  C   UNL     1       8.161  30.797  60.050  1.00  0.00     0.150 C 
BRANCH  18  19
HETATM   19  C   UNL     1       8.318  30.308  58.663  1.00  0.00    -0.017 A 
HETATM   20  C   UNL     1       9.589  30.138  58.105  1.00  0.00     0.016 A 
HETATM   21  C   UNL     1       9.713  29.677  56.793  1.00  0.00     0.037 A 
HETATM   22  C   UNL     1       8.573  29.386  56.053  1.00  0.00     0.065 A 
HETATM   23  C   UNL     1       7.303  29.551  56.601  1.00  0.00     0.037 A 
HETATM   24  C   UNL     1       7.173  30.017  57.912  1.00  0.00     0.016 A 
BRANCH  22  25
HETATM   25  O   UNL     1       8.744  28.936  54.778  1.00  0.00    -0.361 OA
HETATM   26  H   UNL     1       9.352  28.180  54.788  1.00  0.00     0.217 HD
ENDBRANCH  22  25
ENDBRANCH  18  19
ENDBRANCH   1  17
TORSDOF 3
ENDMDL
MODEL 4
REMARK VINA RESULT:      -8.8      3.880      9.215
REMARK  3 active torsions:
REMARK  status: ('A' for Active; 'I' for Inactive)
REMARK    1  A    between atoms: C_2  and  C_3 
REMARK    2  A    between atoms: N_4  and  N_5 
REMARK    3  A    between atoms: C_23  and  O_24 
ROOT
HETATM    1  N   UNL     1       7.002  27.042  56.436  1.00  0.00    -0.189 N 
HETATM    2  C   UNL     1       7.455  26.078  57.354  1.00  0.00     0.298 A 
HETATM    3  O   UNL     1       7.626  26.249  58.558  1.00  0.00    -0.264 OA
HETATM    4  C   UNL     1       7.701  24.821  56.722  1.00  0.00     0.133 A 
HETATM    5  C   UNL     1       7.543  24.600  55.386  1.00  0.00     0.103 A 
HETATM    6  N   UNL     1       7.142  25.596  54.495  1.00  0.00    -0.239 NA
HETATM    7  C   UNL     1       6.917  26.741  55.076  1.00  0.00     0.239 A 
HETATM    8  N   UNL     1       8.131  23.654  57.289  1.00  0.00    -0.349 N 
HETATM    9  H   UNL     1       8.338  23.534  58.272  1.00  0.00     0.166 HD
HETATM   10  C   UNL     1       8.249  22.680  56.315  1.00  0.00     0.045 A 
HETATM   11  C   UNL     1       7.874  23.260  55.094  1.00  0.00     0.024 A 
HETATM   12  C   UNL     1       8.658  21.346  56.421  1.00  0.00     0.032 A 
HETATM   13  C   UNL     1       8.681  20.585  55.247  1.00  0.00     0.026 A 
HETATM   14  C   UNL     1       8.309  21.141  54.024  1.00  0.00     0.035 A 
HETATM   15 CL   UNL     1       8.350  20.166  52.603  1.00  0.00    -0.084 Cl
HETATM   16  C   UNL     1       7.904  22.475  53.927  1.00  0.00     0.040 A 
ENDROOT
BRANCH   1  17
HETATM   17  N   UNL     1       6.775  28.306  56.958  1.00  0.00    -0.175 NA
HETATM   18  C   UNL     1       5.579  28.731  57.196  1.00  0.00     0.150 C 
BRANCH  18  19
HETATM   19  C   UNL     1       5.352  30.094  57.727  1.00  0.00    -0.017 A 
HETATM   20  C   UNL     1       4.066  30.641  57.764  1.00  0.00     0.016 A 
HETATM   21  C   UNL     1       3.876  31.929  58.267  1.00  0.00     0.037 A 
HETATM   22  C   UNL     1       4.965  32.656  58.732  1.00  0.00     0.065 A 
HETATM   23  C   UNL     1       6.251  32.119  58.700  1.00  0.00     0.037 A 
HETATM   24  C   UNL     1       6.447  30.831  58.193  1.00  0.00     0.016 A 
BRANCH  22  25
HETATM   25  O   UNL     1       4.731  33.908  59.217  1.00  0.00    -0.361 OA
HETATM   26  H   UNL     1       3.879  33.913  59.683  1.00  0.00     0.217 HD
ENDBRANCH  22  25
ENDBRANCH  18  19
ENDBRANCH   1  17
TORSDOF 3
ENDMDL
MODEL 5
REMARK VINA RESULT:      -8.7      3.839      4.759
REMARK  3 active torsions:
REMARK  status: ('A' for Active; 'I' for Inactive)
REMARK    1  A    between atoms: C_2  and  C_3 
REMARK    2  A    between atoms: N_4  and  N_5 
REMARK    3  A    between atoms: C_23  and  O_24 
ROOT
HETATM    1  N   UNL     1       5.298  25.919  54.237  1.00  0.00    -0.189 N 
HETATM    2  C   UNL     1       4.800  26.198  52.951  1.00  0.00     0.298 A 
HETATM    3  O   UNL     1       4.758  25.416  52.005  1.00  0.00    -0.264 OA
HETATM    4  C   UNL     1       4.321  27.540  52.851  1.00  0.00     0.133 A 
HETATM    5  C   UNL     1       4.370  28.442  53.871  1.00  0.00     0.103 A 
HETATM    6  N   UNL     1       4.920  28.146  55.118  1.00  0.00    -0.239 NA
HETATM    7  C   UNL     1       5.355  26.920  55.207  1.00  0.00     0.239 A 
HETATM    8  N   UNL     1       3.758  28.162  51.771  1.00  0.00    -0.349 N 
HETATM    9  H   UNL     1       3.606  27.728  50.870  1.00  0.00     0.166 HD
HETATM   10  C   UNL     1       3.444  29.468  52.100  1.00  0.00     0.045 A 
HETATM   11  C   UNL     1       3.821  29.667  53.436  1.00  0.00     0.024 A 
HETATM   12  C   UNL     1       2.864  30.478  51.324  1.00  0.00     0.032 A 
HETATM   13  C   UNL     1       2.663  31.722  51.931  1.00  0.00     0.026 A 
HETATM   14  C   UNL     1       3.028  31.940  53.258  1.00  0.00     0.035 A 
HETATM   15 CL   UNL     1       2.761  33.487  53.968  1.00  0.00    -0.084 Cl
HETATM   16  C   UNL     1       3.609  30.926  54.027  1.00  0.00     0.040 A 
ENDROOT
BRANCH   1  17
HETATM   17  N   UNL     1       5.821  24.648  54.413  1.00  0.00    -0.175 NA
HETATM   18  C   UNL     1       7.031  24.363  54.063  1.00  0.00     0.150 C 
BRANCH  18  19
HETATM   19  C   UNL     1       7.565  22.993  54.232  1.00  0.00    -0.017 A 
HETATM   20  C   UNL     1       7.652  22.412  55.501  1.00  0.00     0.016 A 
HETATM   21  C   UNL     1       8.162  21.120  55.636  1.00  0.00     0.037 A 
HETATM   22  C   UNL     1       8.574  20.419  54.509  1.00  0.00     0.065 A 
HETATM   23  C   UNL     1       8.490  20.989  53.241  1.00  0.00     0.037 A 
HETATM   24  C   UNL     1       7.985  22.285  53.100  1.00  0.00     0.016 A 
BRANCH  22  25
HETATM   25  O   UNL     1       9.062  19.159  54.691  1.00  0.00    -0.361 OA
HETATM   26  H   UNL     1       9.407  19.080  55.594  1.00  0.00     0.217 HD
ENDBRANCH  22  25
ENDBRANCH  18  19
ENDBRANCH   1  17
TORSDOF 3
ENDMDL
MODEL 6
REMARK VINA RESULT:      -8.5      3.451      4.855
REMARK  3 active torsions:
REMARK  status: ('A' for Active; 'I' for Inactive)
REMARK    1  A    between atoms: C_2  and  C_3 
REMARK    2  A    between atoms: N_4  and  N_5 
REMARK    3  A    between atoms: C_23  and  O_24 
ROOT
HETATM    1  N   UNL     1       6.996  30.440  57.409  1.00  0.00    -0.189 N 
HETATM    2  C   UNL     1       7.752  29.950  58.489  1.00  0.00     0.298 A 
HETATM    3  O   UNL     1       8.461  28.947  58.480  1.00  0.00    -0.264 OA
HETATM    4  C   UNL     1       7.613  30.773  59.647  1.00  0.00     0.133 A 
HETATM    5  C   UNL     1       6.820  31.880  59.701  1.00  0.00     0.103 A 
HETATM    6  N   UNL     1       6.042  32.308  58.626  1.00  0.00    -0.239 NA
HETATM    7  C   UNL     1       6.172  31.555  57.569  1.00  0.00     0.239 A 
HETATM    8  N   UNL     1       8.203  30.623  60.872  1.00  0.00    -0.349 N 
HETATM    9  H   UNL     1       8.838  29.875  61.117  1.00  0.00     0.166 HD
HETATM   10  C   UNL     1       7.788  31.638  61.714  1.00  0.00     0.045 A 
HETATM   11  C   UNL     1       6.909  32.454  60.987  1.00  0.00     0.024 A 
HETATM   12  C   UNL     1       8.117  31.889  63.051  1.00  0.00     0.032 A 
HETATM   13  C   UNL     1       7.534  33.007  63.658  1.00  0.00     0.026 A 
HETATM   14  C   UNL     1       6.660  33.833  62.953  1.00  0.00     0.035 A 
HETATM   15 CL   UNL     1       5.966  35.200  63.739  1.00  0.00    -0.084 Cl
HETATM   16  C   UNL     1       6.335  33.573  61.618  1.00  0.00     0.040 A 
ENDROOT
BRANCH   1  17
HETATM   17  N   UNL     1       7.042  29.679  56.252  1.00  0.00    -0.175 NA
HETATM   18  C   UNL     1       6.048  28.934  55.896  1.00  0.00     0.150 C 
BRANCH  18  19
HETATM   19  C   UNL     1       6.124  28.106  54.672  1.00  0.00    -0.017 A 
HETATM   20  C   UNL     1       7.321  27.486  54.302  1.00  0.00     0.016 A 
HETATM   21  C   UNL     1       7.370  26.711  53.142  1.00  0.00     0.037 A 
HETATM   22  C   UNL     1       6.226  26.558  52.366  1.00  0.00     0.065 A 
HETATM   23  C   UNL     1       5.028  27.170  52.727  1.00  0.00     0.037 A 
HETATM   24  C   UNL     1       4.976  27.952  53.885  1.00  0.00     0.016 A 
BRANCH  22  25
HETATM   25  O   UNL     1       6.321  25.789  51.245  1.00  0.00    -0.361 OA
HETATM   26  H   UNL     1       6.054  26.317  50.475  1.00  0.00     0.217 HD
ENDBRANCH  22  25
ENDBRANCH  18  19
ENDBRANCH   1  17
TORSDOF 3
ENDMDL
MODEL 7
REMARK VINA RESULT:      -8.4      5.579      6.659
REMARK  3 active torsions:
REMARK  status: ('A' for Active; 'I' for Inactive)
REMARK    1  A    between atoms: C_2  and  C_3 
REMARK    2  A    between atoms: N_4  and  N_5 
REMARK    3  A    between atoms: C_23  and  O_24 
ROOT
HETATM    1  N   UNL     1       5.837  25.768  52.167  1.00  0.00    -0.189 N 
HETATM    2  C   UNL     1       6.089  27.041  52.709  1.00  0.00     0.298 A 
HETATM    3  O   UNL     1       6.618  27.274  53.793  1.00  0.00    -0.264 OA
HETATM    4  C   UNL     1       5.656  28.083  51.835  1.00  0.00     0.133 A 
HETATM    5  C   UNL     1       5.046  27.863  50.636  1.00  0.00     0.103 A 
HETATM    6  N   UNL     1       4.763  26.585  50.153  1.00  0.00    -0.239 NA
HETATM    7  C   UNL     1       5.161  25.637  50.953  1.00  0.00     0.239 A 
HETATM    8  N   UNL     1       5.747  29.435  52.014  1.00  0.00    -0.349 N 
HETATM    9  H   UNL     1       6.151  29.883  52.826  1.00  0.00     0.166 HD
HETATM   10  C   UNL     1       5.195  30.085  50.926  1.00  0.00     0.045 A 
HETATM   11  C   UNL     1       4.746  29.102  50.032  1.00  0.00     0.024 A 
HETATM   12  C   UNL     1       5.057  31.455  50.670  1.00  0.00     0.032 A 
HETATM   13  C   UNL     1       4.447  31.827  49.467  1.00  0.00     0.026 A 
HETATM   14  C   UNL     1       3.996  30.865  48.564  1.00  0.00     0.035 A 
HETATM   15 CL   UNL     1       3.252  31.368  47.093  1.00  0.00    -0.084 Cl
HETATM   16  C   UNL     1       4.135  29.500  48.828  1.00  0.00     0.040 A 
ENDROOT
BRANCH   1  17
HETATM   17  N   UNL     1       6.191  24.694  52.968  1.00  0.00    -0.175 NA
HETATM   18  C   UNL     1       7.272  24.021  52.753  1.00  0.00     0.150 C 
BRANCH  18  19
HETATM   19  C   UNL     1       7.622  22.860  53.601  1.00  0.00    -0.017 A 
HETATM   20  C   UNL     1       7.700  22.988  54.991  1.00  0.00     0.016 A 
HETATM   21  C   UNL     1       8.034  21.880  55.771  1.00  0.00     0.037 A 
HETATM   22  C   UNL     1       8.281  20.656  55.161  1.00  0.00     0.065 A 
HETATM   23  C   UNL     1       8.205  20.517  53.777  1.00  0.00     0.037 A 
HETATM   24  C   UNL     1       7.875  21.626  52.991  1.00  0.00     0.016 A 
BRANCH  22  25
HETATM   25  O   UNL     1       8.601  19.602  55.963  1.00  0.00    -0.361 OA
HETATM   26  H   UNL     1       7.807  19.316  56.442  1.00  0.00     0.217 HD
ENDBRANCH  22  25
ENDBRANCH  18  19
ENDBRANCH   1  17
TORSDOF 3
ENDMDL
MODEL 8
REMARK VINA RESULT:      -8.4      2.436      3.064
REMARK  3 active torsions:
REMARK  status: ('A' for Active; 'I' for Inactive)
REMARK    1  A    between atoms: C_2  and  C_3 
REMARK    2  A    between atoms: N_4  and  N_5 
REMARK    3  A    between atoms: C_23  and  O_24 
ROOT
HETATM    1  N   UNL     1       5.677  26.107  55.395  1.00  0.00    -0.189 N 
HETATM    2  C   UNL     1       5.059  26.785  54.329  1.00  0.00     0.298 A 
HETATM    3  O   UNL     1       4.891  26.348  53.194  1.00  0.00    -0.264 OA
HETATM    4  C   UNL     1       4.623  28.089  54.714  1.00  0.00     0.133 A 
HETATM    5  C   UNL     1       4.811  28.616  55.957  1.00  0.00     0.103 A 
HETATM    6  N   UNL     1       5.475  27.934  56.976  1.00  0.00    -0.239 NA
HETATM    7  C   UNL     1       5.872  26.744  56.621  1.00  0.00     0.239 A 
HETATM    8  N   UNL     1       3.974  29.025  53.959  1.00  0.00    -0.349 N 
HETATM    9  H   UNL     1       3.713  28.903  52.989  1.00  0.00     0.166 HD
HETATM   10  C   UNL     1       3.744  30.157  54.719  1.00  0.00     0.045 A 
HETATM   11  C   UNL     1       4.266  29.917  55.999  1.00  0.00     0.024 A 
HETATM   12  C   UNL     1       3.125  31.364  54.373  1.00  0.00     0.032 A 
HETATM   13  C   UNL     1       3.035  32.348  55.364  1.00  0.00     0.026 A 
HETATM   14  C   UNL     1       3.544  32.128  56.642  1.00  0.00     0.035 A 
HETATM   15 CL   UNL     1       3.409  33.367  57.833  1.00  0.00    -0.084 Cl
HETATM   16  C   UNL     1       4.163  30.921  56.979  1.00  0.00     0.040 A 
ENDROOT
BRANCH   1  17
HETATM   17  N   UNL     1       6.168  24.846  55.099  1.00  0.00    -0.175 NA
HETATM   18  C   UNL     1       7.101  24.302  55.807  1.00  0.00     0.150 C 
BRANCH  18  19
HETATM   19  C   UNL     1       7.634  22.966  55.460  1.00  0.00    -0.017 A 
HETATM   20  C   UNL     1       8.190  22.141  56.443  1.00  0.00     0.016 A 
HETATM   21  C   UNL     1       8.689  20.886  56.092  1.00  0.00     0.037 A 
HETATM   22  C   UNL     1       8.625  20.463  54.770  1.00  0.00     0.065 A 
HETATM   23  C   UNL     1       8.071  21.276  53.784  1.00  0.00     0.037 A 
HETATM   24  C   UNL     1       7.575  22.537  54.129  1.00  0.00     0.016 A 
BRANCH  22  25
HETATM   25  O   UNL     1       9.121  19.228  54.475  1.00  0.00    -0.361 OA
HETATM   26  H   UNL     1       8.758  18.583  55.102  1.00  0.00     0.217 HD
ENDBRANCH  22  25
ENDBRANCH  18  19
ENDBRANCH   1  17
TORSDOF 3
ENDMDL
MODEL 9
REMARK VINA RESULT:      -8.3      5.933      8.313
REMARK  3 active torsions:
REMARK  status: ('A' for Active; 'I' for Inactive)
REMARK    1  A    between atoms: C_2  and  C_3 
REMARK    2  A    between atoms: N_4  and  N_5 
REMARK    3  A    between atoms: C_23  and  O_24 
ROOT
HETATM    1  N   UNL     1       5.277  26.476  52.048  1.00  0.00    -0.189 N 
HETATM    2  C   UNL     1       5.962  27.148  53.076  1.00  0.00     0.298 A 
HETATM    3  O   UNL     1       6.061  28.365  53.205  1.00  0.00    -0.264 OA
HETATM    4  C   UNL     1       6.555  26.235  54.000  1.00  0.00     0.133 A 
HETATM    5  C   UNL     1       6.485  24.879  53.878  1.00  0.00     0.103 A 
HETATM    6  N   UNL     1       5.841  24.246  52.815  1.00  0.00    -0.239 NA
HETATM    7  C   UNL     1       5.301  25.083  51.974  1.00  0.00     0.239 A 
HETATM    8  N   UNL     1       7.279  26.515  55.125  1.00  0.00    -0.349 N 
HETATM    9  H   UNL     1       7.495  27.447  55.454  1.00  0.00     0.166 HD
HETATM   10  C   UNL     1       7.676  25.336  55.728  1.00  0.00     0.045 A 
HETATM   11  C   UNL     1       7.176  24.279  54.952  1.00  0.00     0.024 A 
HETATM   12  C   UNL     1       8.434  25.126  56.886  1.00  0.00     0.032 A 
HETATM   13  C   UNL     1       8.684  23.802  57.261  1.00  0.00     0.026 A 
HETATM   14  C   UNL     1       8.194  22.737  56.505  1.00  0.00     0.035 A 
HETATM   15 CL   UNL     1       8.525  21.122  57.005  1.00  0.00    -0.084 Cl
HETATM   16  C   UNL     1       7.440  22.955  55.349  1.00  0.00     0.040 A 
ENDROOT
BRANCH   1  17
HETATM   17  N   UNL     1       4.704  27.287  51.081  1.00  0.00    -0.175 NA
HETATM   18  C   UNL     1       4.662  26.930  49.841  1.00  0.00     0.150 C 
BRANCH  18  19
HETATM   19  C   UNL     1       4.071  27.820  48.817  1.00  0.00    -0.017 A 
HETATM   20  C   UNL     1       2.706  27.759  48.519  1.00  0.00     0.016 A 
HETATM   21  C   UNL     1       2.171  28.606  47.548  1.00  0.00     0.037 A 
HETATM   22  C   UNL     1       2.997  29.507  46.887  1.00  0.00     0.065 A 
HETATM   23  C   UNL     1       4.358  29.576  47.177  1.00  0.00     0.037 A 
HETATM   24  C   UNL     1       4.900  28.726  48.145  1.00  0.00     0.016 A 
BRANCH  22  25
HETATM   25  O   UNL     1       2.429  30.316  45.949  1.00  0.00    -0.361 OA
HETATM   26  H   UNL     1       2.693  31.234  46.120  1.00  0.00     0.217 HD
ENDBRANCH  22  25
ENDBRANCH  18  19
ENDBRANCH   1  17
TORSDOF 3
ENDMDL
MODEL 10
REMARK VINA RESULT:      -8.1      3.850      9.036
REMARK  3 active torsions:
REMARK  status: ('A' for Active; 'I' for Inactive)
REMARK    1  A    between atoms: C_2  and  C_3 
REMARK    2  A    between atoms: N_4  and  N_5 
REMARK    3  A    between atoms: C_23  and  O_24 
ROOT
HETATM    1  N   UNL     1       5.353  26.914  55.346  1.00  0.00    -0.189 N 
HETATM    2  C   UNL     1       5.450  26.281  54.094  1.00  0.00     0.298 A 
HETATM    3  O   UNL     1       4.967  26.683  53.040  1.00  0.00    -0.264 OA
HETATM    4  C   UNL     1       6.205  25.071  54.172  1.00  0.00     0.133 A 
HETATM    5  C   UNL     1       6.739  24.582  55.326  1.00  0.00     0.103 A 
HETATM    6  N   UNL     1       6.578  25.210  56.561  1.00  0.00    -0.239 NA
HETATM    7  C   UNL     1       5.889  26.314  56.487  1.00  0.00     0.239 A 
HETATM    8  N   UNL     1       6.521  24.201  53.166  1.00  0.00    -0.349 N 
HETATM    9  H   UNL     1       6.244  24.313  52.199  1.00  0.00     0.166 HD
HETATM   10  C   UNL     1       7.261  23.150  53.676  1.00  0.00     0.045 A 
HETATM   11  C   UNL     1       7.416  23.375  55.052  1.00  0.00     0.024 A 
HETATM   12  C   UNL     1       7.794  22.028  53.032  1.00  0.00     0.032 A 
HETATM   13  C   UNL     1       8.507  21.114  53.815  1.00  0.00     0.026 A 
HETATM   14  C   UNL     1       8.676  21.320  55.184  1.00  0.00     0.035 A 
HETATM   15 CL   UNL     1       9.563  20.170  56.111  1.00  0.00    -0.084 Cl
HETATM   16  C   UNL     1       8.137  22.442  55.820  1.00  0.00     0.040 A 
ENDROOT
BRANCH   1  17
HETATM   17  N   UNL     1       4.602  28.078  55.372  1.00  0.00    -0.175 NA
HETATM   18  C   UNL     1       5.072  29.173  55.870  1.00  0.00     0.150 C 
BRANCH  18  19
HETATM   19  C   UNL     1       4.247  30.400  55.915  1.00  0.00    -0.017 A 
HETATM   20  C   UNL     1       3.366  30.707  54.873  1.00  0.00     0.016 A 
HETATM   21  C   UNL     1       2.599  31.871  54.936  1.00  0.00     0.037 A 
HETATM   22  C   UNL     1       2.713  32.714  56.035  1.00  0.00     0.065 A 
HETATM   23  C   UNL     1       3.586  32.417  57.079  1.00  0.00     0.037 A 
HETATM   24  C   UNL     1       4.360  31.254  57.018  1.00  0.00     0.016 A 
BRANCH  22  25
HETATM   25  O   UNL     1       1.941  33.838  56.054  1.00  0.00    -0.361 OA
HETATM   26  H   UNL     1       2.472  34.582  56.380  1.00  0.00     0.217 HD
ENDBRANCH  22  25
ENDBRANCH  18  19
ENDBRANCH   1  17
TORSDOF 3
ENDMDL
