MODEL 1
REMARK VINA RESULT:     -11.1      0.000      0.000
REMARK  7 active torsions:
REMARK  status: ('A' for Active; 'I' for Inactive)
REMARK    1  A    between atoms: C_2  and  C_3 
REMARK    2  A    between atoms: N_16  and  C_17 
REMARK    3  A    between atoms: C_17  and  C_18 
REMARK       I    between atoms: C_18  and  N_19 
REMARK    4  A    between atoms: N_19  and  C_20 
REMARK    5  A    between atoms: C_21  and  C_22 
REMARK       I    between atoms: C_22  and  N_23 
REMARK    6  A    between atoms: N_23  and  C_24 
REMARK    7  A    between atoms: C_24  and  C_25 
ROOT
HETATM    1  C   UNL     1       6.336  29.868  56.641  1.00  0.00     0.240 C 
ENDROOT
BRANCH   1   2
HETATM    2  N   UNL     1       6.366  28.446  56.876  1.00  0.00    -0.259 N 
HETATM    3  C   UNL     1       7.443  27.816  57.395  1.00  0.00     0.326 C 
HETATM    4  N   UNL     1       7.326  26.471  57.183  1.00  0.00    -0.321 N 
HETATM    5  O   UNL     1       8.426  28.331  57.904  1.00  0.00    -0.247 OA
HETATM    6  C   UNL     1       6.244  26.123  56.272  1.00  0.00     0.140 C 
HETATM    7  H   UNL     1       8.158  25.922  57.343  1.00  0.00     0.165 HD
HETATM    8  C   UNL     1       5.245  25.171  56.927  1.00  0.00     0.055 C 
HETATM    9  C   UNL     1       5.610  27.552  56.173  1.00  0.00     0.261 C 
HETATM   10  O   UNL     1       4.619  27.859  55.522  1.00  0.00    -0.270 OA
BRANCH   6  11
HETATM   11  C   UNL     1       6.762  25.580  54.919  1.00  0.00    -0.010 C 
HETATM   12  C   UNL     1       7.251  24.241  54.726  1.00  0.00    -0.017 A 
HETATM   13  C   UNL     1       7.844  23.901  53.476  1.00  0.00    -0.025 A 
HETATM   14  C   UNL     1       7.184  23.191  55.679  1.00  0.00     0.013 A 
HETATM   15  C   UNL     1       8.414  22.636  53.263  1.00  0.00     0.012 A 
HETATM   16  C   UNL     1       7.860  24.818  52.421  1.00  0.00     0.012 C 
HETATM   17  C   UNL     1       8.385  21.660  54.253  1.00  0.00     0.001 A 
HETATM   18  C   UNL     1       7.753  21.931  55.455  1.00  0.00     0.001 A 
HETATM   19  C   UNL     1       7.285  26.069  52.568  1.00  0.00     0.002 C 
HETATM   20  C   UNL     1       6.744  26.438  53.794  1.00  0.00     0.011 C 
ENDBRANCH   6  11
ENDBRANCH   1   2
BRANCH   1  21
HETATM   21  C   UNL     1       5.326  30.690  57.443  1.00  0.00     0.240 C 
HETATM   22  N   UNL     1       5.825  31.968  57.679  1.00  0.00    -0.325 N 
HETATM   23  H   UNL     1       6.835  32.033  57.732  1.00  0.00     0.169 HD
HETATM   24  O   UNL     1       4.273  30.254  57.895  1.00  0.00    -0.271 OA
BRANCH  22  25
HETATM   25  C   UNL     1       5.117  33.050  58.242  1.00  0.00     0.050 A 
HETATM   26  C   UNL     1       5.091  33.402  59.600  1.00  0.00     0.058 A 
HETATM   27  C   UNL     1       4.280  34.464  60.037  1.00  0.00     0.019 A 
HETATM   28  C   UNL     1       3.499  35.182  59.134  1.00  0.00     0.001 A 
HETATM   29  C   UNL     1       3.503  34.827  57.790  1.00  0.00     0.002 A 
HETATM   30  C   UNL     1       4.295  33.762  57.351  1.00  0.00     0.030 A 
BRANCH  26  31
HETATM   31  C   UNL     1       5.649  32.576  60.691  1.00  0.00     0.254 C 
HETATM   32  N   UNL     1       4.888  32.509  61.830  1.00  0.00    -0.351 N 
HETATM   33  H   UNL     1       4.385  33.366  62.060  1.00  0.00     0.163 HD
HETATM   34  O   UNL     1       6.671  31.930  60.489  1.00  0.00    -0.268 OA
BRANCH  32  35
HETATM   35  C   UNL     1       5.355  31.731  62.955  1.00  0.00     0.187 C 
BRANCH  35  36
HETATM   36  C   UNL     1       5.695  32.648  64.071  1.00  0.00     0.070 A 
HETATM   37  O   UNL     1       4.670  33.036  64.883  1.00  0.00    -0.325 OA
HETATM   38  C   UNL     1       5.197  33.866  65.821  1.00  0.00     0.142 A 
HETATM   39  C   UNL     1       6.548  34.019  65.622  1.00  0.00     0.027 A 
HETATM   40  C   UNL     1       6.872  33.236  64.489  1.00  0.00     0.036 A 
ENDBRANCH  35  36
ENDBRANCH  32  35
ENDBRANCH  26  31
ENDBRANCH  22  25
ENDBRANCH   1  21
TORSDOF 7
ENDMDL
MODEL 2
REMARK VINA RESULT:     -11.0      2.116      3.437
REMARK  7 active torsions:
REMARK  status: ('A' for Active; 'I' for Inactive)
REMARK    1  A    between atoms: C_2  and  C_3 
REMARK    2  A    between atoms: N_16  and  C_17 
REMARK    3  A    between atoms: C_17  and  C_18 
REMARK       I    between atoms: C_18  and  N_19 
REMARK    4  A    between atoms: N_19  and  C_20 
REMARK    5  A    between atoms: C_21  and  C_22 
REMARK       I    between atoms: C_22  and  N_23 
REMARK    6  A    between atoms: N_23  and  C_24 
REMARK    7  A    between atoms: C_24  and  C_25 
ROOT
HETATM    1  C   UNL     1       6.312  29.983  56.222  1.00  0.00     0.240 C 
ENDROOT
BRANCH   1   2
HETATM    2  N   UNL     1       6.078  28.799  55.434  1.00  0.00    -0.259 N 
HETATM    3  C   UNL     1       5.028  27.977  55.649  1.00  0.00     0.326 C 
HETATM    4  N   UNL     1       5.246  26.787  55.011  1.00  0.00    -0.321 N 
HETATM    5  O   UNL     1       4.058  28.187  56.360  1.00  0.00    -0.247 OA
HETATM    6  C   UNL     1       6.606  26.645  54.508  1.00  0.00     0.140 C 
HETATM    7  H   UNL     1       4.632  26.028  55.266  1.00  0.00     0.165 HD
HETATM    8  C   UNL     1       6.621  26.397  53.001  1.00  0.00     0.055 C 
HETATM    9  C   UNL     1       7.072  28.113  54.796  1.00  0.00     0.261 C 
HETATM   10  O   UNL     1       8.176  28.581  54.551  1.00  0.00    -0.270 OA
BRANCH   6  11
HETATM   11  C   UNL     1       7.414  25.576  55.281  1.00  0.00    -0.010 C 
HETATM   12  C   UNL     1       7.759  24.286  54.742  1.00  0.00    -0.017 A 
HETATM   13  C   UNL     1       8.371  23.327  55.600  1.00  0.00    -0.025 A 
HETATM   14  C   UNL     1       7.558  23.871  53.400  1.00  0.00     0.013 A 
HETATM   15  C   UNL     1       8.651  22.027  55.150  1.00  0.00     0.012 A 
HETATM   16  C   UNL     1       8.723  23.663  56.910  1.00  0.00     0.012 C 
HETATM   17  C   UNL     1       8.374  21.644  53.842  1.00  0.00     0.001 A 
HETATM   18  C   UNL     1       7.845  22.572  52.962  1.00  0.00     0.001 A 
HETATM   19  C   UNL     1       8.498  24.941  57.393  1.00  0.00     0.002 C 
HETATM   20  C   UNL     1       7.858  25.877  56.589  1.00  0.00     0.011 C 
ENDBRANCH   6  11
ENDBRANCH   1   2
BRANCH   1  21
HETATM   21  C   UNL     1       7.008  29.801  57.572  1.00  0.00     0.240 C 
HETATM   22  N   UNL     1       7.399  31.035  58.083  1.00  0.00    -0.325 N 
HETATM   23  H   UNL     1       7.605  31.743  57.387  1.00  0.00     0.169 HD
HETATM   24  O   UNL     1       7.269  28.716  58.081  1.00  0.00    -0.271 OA
BRANCH  22  25
HETATM   25  C   UNL     1       7.921  31.279  59.370  1.00  0.00     0.050 A 
HETATM   26  C   UNL     1       7.205  31.773  60.471  1.00  0.00     0.058 A 
HETATM   27  C   UNL     1       7.869  32.041  61.681  1.00  0.00     0.019 A 
HETATM   28  C   UNL     1       9.239  31.815  61.806  1.00  0.00     0.001 A 
HETATM   29  C   UNL     1       9.959  31.346  60.714  1.00  0.00     0.002 A 
HETATM   30  C   UNL     1       9.307  31.092  59.504  1.00  0.00     0.030 A 
BRANCH  26  31
HETATM   31  C   UNL     1       5.827  32.303  60.406  1.00  0.00     0.254 C 
HETATM   32  N   UNL     1       5.023  31.995  61.474  1.00  0.00    -0.351 N 
HETATM   33  H   UNL     1       5.185  31.072  61.879  1.00  0.00     0.163 HD
HETATM   34  O   UNL     1       5.519  33.055  59.488  1.00  0.00    -0.268 OA
BRANCH  32  35
HETATM   35  C   UNL     1       3.657  32.463  61.497  1.00  0.00     0.187 C 
BRANCH  35  36
HETATM   36  C   UNL     1       3.562  33.641  62.394  1.00  0.00     0.070 A 
HETATM   37  O   UNL     1       3.229  33.398  63.696  1.00  0.00    -0.325 OA
HETATM   38  C   UNL     1       3.193  34.600  64.328  1.00  0.00     0.142 A 
HETATM   39  C   UNL     1       3.497  35.614  63.451  1.00  0.00     0.027 A 
HETATM   40  C   UNL     1       3.732  34.997  62.200  1.00  0.00     0.036 A 
ENDBRANCH  35  36
ENDBRANCH  32  35
ENDBRANCH  26  31
ENDBRANCH  22  25
ENDBRANCH   1  21
TORSDOF 7
ENDMDL
MODEL 3
REMARK VINA RESULT:     -11.0      2.327      4.035
REMARK  7 active torsions:
REMARK  status: ('A' for Active; 'I' for Inactive)
REMARK    1  A    between atoms: C_2  and  C_3 
REMARK    2  A    between atoms: N_16  and  C_17 
REMARK    3  A    between atoms: C_17  and  C_18 
REMARK       I    between atoms: C_18  and  N_19 
REMARK    4  A    between atoms: N_19  and  C_20 
REMARK    5  A    between atoms: C_21  and  C_22 
REMARK       I    between atoms: C_22  and  N_23 
REMARK    6  A    between atoms: N_23  and  C_24 
REMARK    7  A    between atoms: C_24  and  C_25 
ROOT
HETATM    1  C   UNL     1       9.470  28.656  56.938  1.00  0.00     0.240 C 
ENDROOT
BRANCH   1   2
HETATM    2  N   UNL     1       8.203  28.109  56.525  1.00  0.00    -0.259 N 
HETATM    3  C   UNL     1       7.536  27.185  57.252  1.00  0.00     0.326 C 
HETATM    4  N   UNL     1       6.573  26.605  56.474  1.00  0.00    -0.321 N 
HETATM    5  O   UNL     1       7.775  26.832  58.396  1.00  0.00    -0.247 OA
HETATM    6  C   UNL     1       6.691  26.945  55.062  1.00  0.00     0.140 C 
HETATM    7  H   UNL     1       6.151  25.765  56.841  1.00  0.00     0.165 HD
HETATM    8  C   UNL     1       5.416  27.599  54.535  1.00  0.00     0.055 C 
HETATM    9  C   UNL     1       7.805  28.035  55.220  1.00  0.00     0.261 C 
HETATM   10  O   UNL     1       8.304  28.694  54.316  1.00  0.00    -0.270 OA
BRANCH   6  11
HETATM   11  C   UNL     1       7.125  25.737  54.197  1.00  0.00    -0.010 C 
HETATM   12  C   UNL     1       7.587  24.487  54.740  1.00  0.00    -0.017 A 
HETATM   13  C   UNL     1       8.105  23.503  53.849  1.00  0.00    -0.025 A 
HETATM   14  C   UNL     1       7.561  24.121  56.111  1.00  0.00     0.013 A 
HETATM   15  C   UNL     1       8.646  22.301  54.331  1.00  0.00     0.012 A 
HETATM   16  C   UNL     1       8.073  23.705  52.466  1.00  0.00     0.012 C 
HETATM   17  C   UNL     1       8.661  22.015  55.692  1.00  0.00     0.001 A 
HETATM   18  C   UNL     1       8.101  22.917  56.580  1.00  0.00     0.001 A 
HETATM   19  C   UNL     1       7.522  24.859  51.936  1.00  0.00     0.002 C 
HETATM   20  C   UNL     1       7.055  25.853  52.789  1.00  0.00     0.011 C 
ENDBRANCH   6  11
ENDBRANCH   1   2
BRANCH   1  21
HETATM   21  C   UNL     1       9.441  29.916  57.805  1.00  0.00     0.240 C 
HETATM   22  N   UNL     1       8.500  29.778  58.822  1.00  0.00    -0.325 N 
HETATM   23  H   UNL     1       7.715  29.178  58.602  1.00  0.00     0.169 HD
HETATM   24  O   UNL     1      10.085  30.935  57.578  1.00  0.00    -0.271 OA
BRANCH  22  25
HETATM   25  C   UNL     1       8.306  30.661  59.905  1.00  0.00     0.050 A 
HETATM   26  C   UNL     1       7.222  31.536  60.072  1.00  0.00     0.058 A 
HETATM   27  C   UNL     1       7.191  32.419  61.166  1.00  0.00     0.019 A 
HETATM   28  C   UNL     1       8.228  32.435  62.097  1.00  0.00     0.001 A 
HETATM   29  C   UNL     1       9.315  31.587  61.926  1.00  0.00     0.002 A 
HETATM   30  C   UNL     1       9.360  30.718  60.833  1.00  0.00     0.030 A 
BRANCH  26  31
HETATM   31  C   UNL     1       6.200  31.812  59.040  1.00  0.00     0.254 C 
HETATM   32  N   UNL     1       4.914  31.939  59.500  1.00  0.00    -0.351 N 
HETATM   33  H   UNL     1       4.679  31.332  60.286  1.00  0.00     0.163 HD
HETATM   34  O   UNL     1       6.558  32.016  57.886  1.00  0.00    -0.268 OA
BRANCH  32  35
HETATM   35  C   UNL     1       3.845  32.203  58.566  1.00  0.00     0.187 C 
BRANCH  35  36
HETATM   36  C   UNL     1       3.494  33.644  58.624  1.00  0.00     0.070 A 
HETATM   37  O   UNL     1       2.349  33.972  59.291  1.00  0.00    -0.325 OA
HETATM   38  C   UNL     1       2.219  35.322  59.217  1.00  0.00     0.142 A 
HETATM   39  C   UNL     1       3.262  35.868  58.509  1.00  0.00     0.027 A 
HETATM   40  C   UNL     1       4.086  34.785  58.121  1.00  0.00     0.036 A 
ENDBRANCH  35  36
ENDBRANCH  32  35
ENDBRANCH  26  31
ENDBRANCH  22  25
ENDBRANCH   1  21
TORSDOF 7
ENDMDL
MODEL 4
REMARK VINA RESULT:     -10.9      2.535      4.221
REMARK  7 active torsions:
REMARK  status: ('A' for Active; 'I' for Inactive)
REMARK    1  A    between atoms: C_2  and  C_3 
REMARK    2  A    between atoms: N_16  and  C_17 
REMARK    3  A    between atoms: C_17  and  C_18 
REMARK       I    between atoms: C_18  and  N_19 
REMARK    4  A    between atoms: N_19  and  C_20 
REMARK    5  A    between atoms: C_21  and  C_22 
REMARK       I    between atoms: C_22  and  N_23 
REMARK    6  A    between atoms: N_23  and  C_24 
REMARK    7  A    between atoms: C_24  and  C_25 
ROOT
HETATM    1  C   UNL     1       5.650  28.596  54.424  1.00  0.00     0.240 C 
ENDROOT
BRANCH   1   2
HETATM    2  N   UNL     1       6.002  27.387  53.723  1.00  0.00    -0.259 N 
HETATM    3  C   UNL     1       5.110  26.404  53.472  1.00  0.00     0.326 C 
HETATM    4  N   UNL     1       5.779  25.264  53.121  1.00  0.00    -0.321 N 
HETATM    5  O   UNL     1       3.898  26.454  53.606  1.00  0.00    -0.247 OA
HETATM    6  C   UNL     1       7.216  25.346  53.350  1.00  0.00     0.140 C 
HETATM    7  H   UNL     1       5.235  24.415  53.110  1.00  0.00     0.165 HD
HETATM    8  C   UNL     1       8.002  25.099  52.065  1.00  0.00     0.055 C 
HETATM    9  C   UNL     1       7.267  26.871  53.704  1.00  0.00     0.261 C 
HETATM   10  O   UNL     1       8.271  27.514  53.984  1.00  0.00    -0.270 OA
BRANCH   6  11
HETATM   11  C   UNL     1       7.684  24.427  54.503  1.00  0.00    -0.010 C 
HETATM   12  C   UNL     1       7.943  23.019  54.352  1.00  0.00    -0.017 A 
HETATM   13  C   UNL     1       8.220  22.245  55.516  1.00  0.00    -0.025 A 
HETATM   14  C   UNL     1       7.967  22.310  53.123  1.00  0.00     0.013 A 
HETATM   15  C   UNL     1       8.396  20.854  55.437  1.00  0.00     0.012 A 
HETATM   16  C   UNL     1       8.339  22.855  56.768  1.00  0.00     0.012 C 
HETATM   17  C   UNL     1       8.343  20.192  54.215  1.00  0.00     0.001 A 
HETATM   18  C   UNL     1       8.147  20.923  53.056  1.00  0.00     0.001 A 
HETATM   19  C   UNL     1       8.205  24.227  56.897  1.00  0.00     0.002 C 
HETATM   20  C   UNL     1       7.886  24.995  55.783  1.00  0.00     0.011 C 
ENDBRANCH   6  11
ENDBRANCH   1   2
BRANCH   1  21
HETATM   21  C   UNL     1       6.084  28.710  55.886  1.00  0.00     0.240 C 
HETATM   22  N   UNL     1       7.140  29.610  56.006  1.00  0.00    -0.325 N 
HETATM   23  H   UNL     1       7.737  29.683  55.191  1.00  0.00     0.169 HD
HETATM   24  O   UNL     1       5.631  28.034  56.803  1.00  0.00    -0.271 OA
BRANCH  22  25
HETATM   25  C   UNL     1       7.694  30.091  57.210  1.00  0.00     0.050 A 
HETATM   26  C   UNL     1       7.022  30.846  58.184  1.00  0.00     0.058 A 
HETATM   27  C   UNL     1       7.719  31.327  59.307  1.00  0.00     0.019 A 
HETATM   28  C   UNL     1       9.076  31.058  59.472  1.00  0.00     0.001 A 
HETATM   29  C   UNL     1       9.753  30.329  58.502  1.00  0.00     0.002 A 
HETATM   30  C   UNL     1       9.071  29.861  57.376  1.00  0.00     0.030 A 
BRANCH  26  31
HETATM   31  C   UNL     1       5.673  31.426  58.013  1.00  0.00     0.254 C 
HETATM   32  N   UNL     1       4.875  31.405  59.128  1.00  0.00    -0.351 N 
HETATM   33  H   UNL     1       4.995  30.585  59.725  1.00  0.00     0.163 HD
HETATM   34  O   UNL     1       5.388  31.974  56.954  1.00  0.00    -0.268 OA
BRANCH  32  35
HETATM   35  C   UNL     1       3.536  31.942  59.058  1.00  0.00     0.187 C 
BRANCH  35  36
HETATM   36  C   UNL     1       3.405  33.049  60.036  1.00  0.00     0.070 A 
HETATM   37  O   UNL     1       2.166  33.604  60.176  1.00  0.00    -0.325 OA
HETATM   38  C   UNL     1       2.273  34.589  61.105  1.00  0.00     0.142 A 
HETATM   39  C   UNL     1       3.565  34.678  61.565  1.00  0.00     0.027 A 
HETATM   40  C   UNL     1       4.299  33.687  60.872  1.00  0.00     0.036 A 
ENDBRANCH  35  36
ENDBRANCH  32  35
ENDBRANCH  26  31
ENDBRANCH  22  25
ENDBRANCH   1  21
TORSDOF 7
ENDMDL
MODEL 5
REMARK VINA RESULT:     -10.7      2.458      4.398
REMARK  7 active torsions:
REMARK  status: ('A' for Active; 'I' for Inactive)
REMARK    1  A    between atoms: C_2  and  C_3 
REMARK    2  A    between atoms: N_16  and  C_17 
REMARK    3  A    between atoms: C_17  and  C_18 
REMARK       I    between atoms: C_18  and  N_19 
REMARK    4  A    between atoms: N_19  and  C_20 
REMARK    5  A    between atoms: C_21  and  C_22 
REMARK       I    between atoms: C_22  and  N_23 
REMARK    6  A    between atoms: N_23  and  C_24 
REMARK    7  A    between atoms: C_24  and  C_25 
ROOT
HETATM    1  C   UNL     1       6.070  30.066  55.499  1.00  0.00     0.240 C 
ENDROOT
BRANCH   1   2
HETATM    2  N   UNL     1       5.834  28.795  54.861  1.00  0.00    -0.259 N 
HETATM    3  C   UNL     1       4.807  27.987  55.204  1.00  0.00     0.326 C 
HETATM    4  N   UNL     1       5.028  26.735  54.702  1.00  0.00    -0.321 N 
HETATM    5  O   UNL     1       3.855  28.264  55.916  1.00  0.00    -0.247 OA
HETATM    6  C   UNL     1       6.374  26.555  54.175  1.00  0.00     0.140 C 
HETATM    7  H   UNL     1       4.436  26.001  55.062  1.00  0.00     0.165 HD
HETATM    8  C   UNL     1       6.349  26.134  52.708  1.00  0.00     0.055 C 
HETATM    9  C   UNL     1       6.821  28.053  54.276  1.00  0.00     0.261 C 
HETATM   10  O   UNL     1       7.909  28.506  53.943  1.00  0.00    -0.270 OA
BRANCH   6  11
HETATM   11  C   UNL     1       7.225  25.595  55.041  1.00  0.00    -0.010 C 
HETATM   12  C   UNL     1       7.652  24.291  54.608  1.00  0.00    -0.017 A 
HETATM   13  C   UNL     1       8.299  23.436  55.547  1.00  0.00    -0.025 A 
HETATM   14  C   UNL     1       7.502  23.764  53.299  1.00  0.00     0.013 A 
HETATM   15  C   UNL     1       8.660  22.123  55.203  1.00  0.00     0.012 A 
HETATM   16  C   UNL     1       8.606  23.890  56.832  1.00  0.00     0.012 C 
HETATM   17  C   UNL     1       8.431  21.627  53.925  1.00  0.00     0.001 A 
HETATM   18  C   UNL     1       7.869  22.454  52.967  1.00  0.00     0.001 A 
HETATM   19  C   UNL     1       8.300  25.185  57.212  1.00  0.00     0.002 C 
HETATM   20  C   UNL     1       7.625  26.020  56.329  1.00  0.00     0.011 C 
ENDBRANCH   6  11
ENDBRANCH   1   2
BRANCH   1  21
HETATM   21  C   UNL     1       5.907  30.129  57.019  1.00  0.00     0.240 C 
HETATM   22  N   UNL     1       5.481  31.396  57.405  1.00  0.00    -0.325 N 
HETATM   23  H   UNL     1       5.772  32.152  56.796  1.00  0.00     0.169 HD
HETATM   24  O   UNL     1       6.203  29.223  57.790  1.00  0.00    -0.271 OA
BRANCH  22  25
HETATM   25  C   UNL     1       5.071  31.781  58.698  1.00  0.00     0.050 A 
HETATM   26  C   UNL     1       5.917  32.122  59.764  1.00  0.00     0.058 A 
HETATM   27  C   UNL     1       5.374  32.415  61.028  1.00  0.00     0.019 A 
HETATM   28  C   UNL     1       3.997  32.378  61.238  1.00  0.00     0.001 A 
HETATM   29  C   UNL     1       3.154  32.020  60.193  1.00  0.00     0.002 A 
HETATM   30  C   UNL     1       3.688  31.713  58.938  1.00  0.00     0.030 A 
BRANCH  26  31
HETATM   31  C   UNL     1       7.384  31.946  59.760  1.00  0.00     0.254 C 
HETATM   32  N   UNL     1       7.826  30.663  59.958  1.00  0.00    -0.351 N 
HETATM   33  H   UNL     1       7.259  30.109  60.601  1.00  0.00     0.163 HD
HETATM   34  O   UNL     1       8.100  32.901  59.481  1.00  0.00    -0.268 OA
BRANCH  32  35
HETATM   35  C   UNL     1       9.245  30.392  59.978  1.00  0.00     0.187 C 
BRANCH  35  36
HETATM   36  C   UNL     1       9.708  30.125  58.594  1.00  0.00     0.070 A 
HETATM   37  O   UNL     1       9.255  28.980  58.004  1.00  0.00    -0.325 OA
HETATM   38  C   UNL     1       9.799  28.932  56.760  1.00  0.00     0.142 A 
HETATM   39  C   UNL     1      10.599  30.028  56.541  1.00  0.00     0.027 A 
HETATM   40  C   UNL     1      10.544  30.799  57.727  1.00  0.00     0.036 A 
ENDBRANCH  35  36
ENDBRANCH  32  35
ENDBRANCH  26  31
ENDBRANCH  22  25
ENDBRANCH   1  21
TORSDOF 7
ENDMDL
MODEL 6
REMARK VINA RESULT:     -10.4      2.944     10.015
REMARK  7 active torsions:
REMARK  status: ('A' for Active; 'I' for Inactive)
REMARK    1  A    between atoms: C_2  and  C_3 
REMARK    2  A    between atoms: N_16  and  C_17 
REMARK    3  A    between atoms: C_17  and  C_18 
REMARK       I    between atoms: C_18  and  N_19 
REMARK    4  A    between atoms: N_19  and  C_20 
REMARK    5  A    between atoms: C_21  and  C_22 
REMARK       I    between atoms: C_22  and  N_23 
REMARK    6  A    between atoms: N_23  and  C_24 
REMARK    7  A    between atoms: C_24  and  C_25 
ROOT
HETATM    1  C   UNL     1       7.234  26.545  57.515  1.00  0.00     0.240 C 
ENDROOT
BRANCH   1   2
HETATM    2  N   UNL     1       7.121  27.870  56.958  1.00  0.00    -0.259 N 
HETATM    3  C   UNL     1       8.194  28.657  56.726  1.00  0.00     0.326 C 
HETATM    4  N   UNL     1       7.778  29.945  56.536  1.00  0.00    -0.321 N 
HETATM    5  O   UNL     1       9.370  28.331  56.757  1.00  0.00    -0.247 OA
HETATM    6  C   UNL     1       6.376  30.153  56.872  1.00  0.00     0.140 C 
HETATM    7  H   UNL     1       8.498  30.653  56.559  1.00  0.00     0.165 HD
HETATM    8  C   UNL     1       5.591  30.701  55.683  1.00  0.00     0.055 C 
HETATM    9  C   UNL     1       6.005  28.647  57.088  1.00  0.00     0.261 C 
HETATM   10  O   UNL     1       4.901  28.211  57.389  1.00  0.00    -0.270 OA
BRANCH   6  11
HETATM   11  C   UNL     1       6.194  31.023  58.139  1.00  0.00    -0.010 C 
HETATM   12  C   UNL     1       7.279  31.444  58.986  1.00  0.00    -0.017 A 
HETATM   13  C   UNL     1       6.976  32.112  60.207  1.00  0.00    -0.025 A 
HETATM   14  C   UNL     1       8.660  31.269  58.708  1.00  0.00     0.013 A 
HETATM   15  C   UNL     1       7.990  32.468  61.110  1.00  0.00     0.012 A 
HETATM   16  C   UNL     1       5.657  32.444  60.531  1.00  0.00     0.012 C 
HETATM   17  C   UNL     1       9.327  32.214  60.826  1.00  0.00     0.001 A 
HETATM   18  C   UNL     1       9.663  31.631  59.615  1.00  0.00     0.001 A 
HETATM   19  C   UNL     1       4.623  32.143  59.661  1.00  0.00     0.002 C 
HETATM   20  C   UNL     1       4.891  31.449  58.487  1.00  0.00     0.011 C 
ENDBRANCH   6  11
ENDBRANCH   1   2
BRANCH   1  21
HETATM   21  C   UNL     1       6.807  25.373  56.629  1.00  0.00     0.240 C 
HETATM   22  N   UNL     1       7.896  24.895  55.905  1.00  0.00    -0.325 N 
HETATM   23  H   UNL     1       8.608  25.584  55.694  1.00  0.00     0.169 HD
HETATM   24  O   UNL     1       5.653  24.978  56.503  1.00  0.00    -0.271 OA
BRANCH  22  25
HETATM   25  C   UNL     1       7.924  23.729  55.112  1.00  0.00     0.050 A 
HETATM   26  C   UNL     1       7.824  23.680  53.713  1.00  0.00     0.058 A 
HETATM   27  C   UNL     1       7.790  22.439  53.052  1.00  0.00     0.019 A 
HETATM   28  C   UNL     1       7.861  21.248  53.771  1.00  0.00     0.001 A 
HETATM   29  C   UNL     1       7.939  21.287  55.158  1.00  0.00     0.002 A 
HETATM   30  C   UNL     1       7.957  22.516  55.822  1.00  0.00     0.030 A 
BRANCH  26  31
HETATM   31  C   UNL     1       7.478  24.833  52.856  1.00  0.00     0.254 C 
HETATM   32  N   UNL     1       6.196  24.844  52.368  1.00  0.00    -0.351 N 
HETATM   33  H   UNL     1       5.816  23.924  52.144  1.00  0.00     0.163 HD
HETATM   34  O   UNL     1       8.290  25.742  52.721  1.00  0.00    -0.268 OA
BRANCH  32  35
HETATM   35  C   UNL     1       5.767  25.927  51.515  1.00  0.00     0.187 C 
BRANCH  35  36
HETATM   36  C   UNL     1       4.974  26.892  52.316  1.00  0.00     0.070 A 
HETATM   37  O   UNL     1       4.229  27.802  51.623  1.00  0.00    -0.325 OA
HETATM   38  C   UNL     1       3.596  28.579  52.540  1.00  0.00     0.142 A 
HETATM   39  C   UNL     1       3.925  28.184  53.815  1.00  0.00     0.027 A 
HETATM   40  C   UNL     1       4.819  27.096  53.672  1.00  0.00     0.036 A 
ENDBRANCH  35  36
ENDBRANCH  32  35
ENDBRANCH  26  31
ENDBRANCH  22  25
ENDBRANCH   1  21
TORSDOF 7
ENDMDL
MODEL 7
REMARK VINA RESULT:     -10.4      3.070      5.101
REMARK  7 active torsions:
REMARK  status: ('A' for Active; 'I' for Inactive)
REMARK    1  A    between atoms: C_2  and  C_3 
REMARK    2  A    between atoms: N_16  and  C_17 
REMARK    3  A    between atoms: C_17  and  C_18 
REMARK       I    between atoms: C_18  and  N_19 
REMARK    4  A    between atoms: N_19  and  C_20 
REMARK    5  A    between atoms: C_21  and  C_22 
REMARK       I    between atoms: C_22  and  N_23 
REMARK    6  A    between atoms: N_23  and  C_24 
REMARK    7  A    between atoms: C_24  and  C_25 
ROOT
HETATM    1  C   UNL     1       5.553  28.744  54.289  1.00  0.00     0.240 C 
ENDROOT
BRANCH   1   2
HETATM    2  N   UNL     1       5.972  27.537  53.622  1.00  0.00    -0.259 N 
HETATM    3  C   UNL     1       5.112  26.545  53.303  1.00  0.00     0.326 C 
HETATM    4  N   UNL     1       5.818  25.411  53.011  1.00  0.00    -0.321 N 
HETATM    5  O   UNL     1       3.893  26.584  53.339  1.00  0.00    -0.247 OA
HETATM    6  C   UNL     1       7.230  25.506  53.355  1.00  0.00     0.140 C 
HETATM    7  H   UNL     1       5.283  24.556  52.958  1.00  0.00     0.165 HD
HETATM    8  C   UNL     1       8.120  25.264  52.138  1.00  0.00     0.055 C 
HETATM    9  C   UNL     1       7.239  27.033  53.707  1.00  0.00     0.261 C 
HETATM   10  O   UNL     1       8.211  27.686  54.066  1.00  0.00    -0.270 OA
BRANCH   6  11
HETATM   11  C   UNL     1       7.612  24.594  54.545  1.00  0.00    -0.010 C 
HETATM   12  C   UNL     1       7.824  23.175  54.433  1.00  0.00    -0.017 A 
HETATM   13  C   UNL     1       8.020  22.415  55.622  1.00  0.00    -0.025 A 
HETATM   14  C   UNL     1       7.874  22.441  53.219  1.00  0.00     0.013 A 
HETATM   15  C   UNL     1       8.146  21.018  55.576  1.00  0.00     0.012 A 
HETATM   16  C   UNL     1       8.107  23.046  56.866  1.00  0.00     0.012 C 
HETATM   17  C   UNL     1       8.121  20.333  54.367  1.00  0.00     0.001 A 
HETATM   18  C   UNL     1       8.004  21.047  53.186  1.00  0.00     0.001 A 
HETATM   19  C   UNL     1       8.019  24.425  56.963  1.00  0.00     0.002 C 
HETATM   20  C   UNL     1       7.780  25.181  55.821  1.00  0.00     0.011 C 
ENDBRANCH   6  11
ENDBRANCH   1   2
BRANCH   1  21
HETATM   21  C   UNL     1       5.774  28.823  55.801  1.00  0.00     0.240 C 
HETATM   22  N   UNL     1       6.668  29.847  56.104  1.00  0.00    -0.325 N 
HETATM   23  H   UNL     1       7.349  30.050  55.382  1.00  0.00     0.169 HD
HETATM   24  O   UNL     1       5.306  28.036  56.616  1.00  0.00    -0.271 OA
BRANCH  22  25
HETATM   25  C   UNL     1       6.988  30.321  57.393  1.00  0.00     0.050 A 
HETATM   26  C   UNL     1       6.293  31.311  58.104  1.00  0.00     0.058 A 
HETATM   27  C   UNL     1       6.767  31.743  59.355  1.00  0.00     0.019 A 
HETATM   28  C   UNL     1       7.923  31.195  59.907  1.00  0.00     0.001 A 
HETATM   29  C   UNL     1       8.629  30.229  59.199  1.00  0.00     0.002 A 
HETATM   30  C   UNL     1       8.172  29.806  57.948  1.00  0.00     0.030 A 
BRANCH  26  31
HETATM   31  C   UNL     1       5.223  32.157  57.536  1.00  0.00     0.254 C 
HETATM   32  N   UNL     1       5.126  33.420  58.060  1.00  0.00    -0.351 N 
HETATM   33  H   UNL     1       5.341  33.488  59.056  1.00  0.00     0.163 HD
HETATM   34  O   UNL     1       4.572  31.739  56.585  1.00  0.00    -0.268 OA
BRANCH  32  35
HETATM   35  C   UNL     1       4.106  34.319  57.574  1.00  0.00     0.187 C 
BRANCH  35  36
HETATM   36  C   UNL     1       4.749  35.413  56.804  1.00  0.00     0.070 A 
HETATM   37  O   UNL     1       5.446  35.053  55.687  1.00  0.00    -0.325 OA
HETATM   38  C   UNL     1       5.949  36.193  55.147  1.00  0.00     0.142 A 
HETATM   39  C   UNL     1       5.587  37.283  55.902  1.00  0.00     0.027 A 
HETATM   40  C   UNL     1       4.815  36.781  56.976  1.00  0.00     0.036 A 
ENDBRANCH  35  36
ENDBRANCH  32  35
ENDBRANCH  26  31
ENDBRANCH  22  25
ENDBRANCH   1  21
TORSDOF 7
ENDMDL
MODEL 8
REMARK VINA RESULT:     -10.3      6.815     10.181
REMARK  7 active torsions:
REMARK  status: ('A' for Active; 'I' for Inactive)
REMARK    1  A    between atoms: C_2  and  C_3 
REMARK    2  A    between atoms: N_16  and  C_17 
REMARK    3  A    between atoms: C_17  and  C_18 
REMARK       I    between atoms: C_18  and  N_19 
REMARK    4  A    between atoms: N_19  and  C_20 
REMARK    5  A    between atoms: C_21  and  C_22 
REMARK       I    between atoms: C_22  and  N_23 
REMARK    6  A    between atoms: N_23  and  C_24 
REMARK    7  A    between atoms: C_24  and  C_25 
ROOT
HETATM    1  C   UNL     1       5.734  29.090  51.701  1.00  0.00     0.240 C 
ENDROOT
BRANCH   1   2
HETATM    2  N   UNL     1       5.107  27.843  52.059  1.00  0.00    -0.259 N 
HETATM    3  C   UNL     1       4.037  27.775  52.880  1.00  0.00     0.326 C 
HETATM    4  N   UNL     1       3.879  26.488  53.312  1.00  0.00    -0.321 N 
HETATM    5  O   UNL     1       3.343  28.701  53.269  1.00  0.00    -0.247 OA
HETATM    6  C   UNL     1       5.009  25.628  52.987  1.00  0.00     0.140 C 
HETATM    7  H   UNL     1       3.243  26.353  54.084  1.00  0.00     0.165 HD
HETATM    8  C   UNL     1       4.574  24.424  52.154  1.00  0.00     0.055 C 
HETATM    9  C   UNL     1       5.766  26.646  52.069  1.00  0.00     0.261 C 
HETATM   10  O   UNL     1       6.823  26.444  51.484  1.00  0.00    -0.270 OA
BRANCH   6  11
HETATM   11  C   UNL     1       5.813  25.208  54.241  1.00  0.00    -0.010 C 
HETATM   12  C   UNL     1       6.821  24.181  54.240  1.00  0.00    -0.017 A 
HETATM   13  C   UNL     1       7.385  23.774  55.483  1.00  0.00    -0.025 A 
HETATM   14  C   UNL     1       7.334  23.527  53.089  1.00  0.00     0.013 A 
HETATM   15  C   UNL     1       8.309  22.719  55.550  1.00  0.00     0.012 A 
HETATM   16  C   UNL     1       7.043  24.428  56.670  1.00  0.00     0.012 C 
HETATM   17  C   UNL     1       8.732  22.061  54.400  1.00  0.00     0.001 A 
HETATM   18  C   UNL     1       8.258  22.478  53.167  1.00  0.00     0.001 A 
HETATM   19  C   UNL     1       6.160  25.494  56.657  1.00  0.00     0.002 C 
HETATM   20  C   UNL     1       5.561  25.876  55.462  1.00  0.00     0.011 C 
ENDBRANCH   6  11
ENDBRANCH   1   2
BRANCH   1  21
HETATM   21  C   UNL     1       5.626  29.537  50.242  1.00  0.00     0.240 C 
HETATM   22  N   UNL     1       5.084  30.817  50.169  1.00  0.00    -0.325 N 
HETATM   23  H   UNL     1       4.453  31.060  50.923  1.00  0.00     0.169 HD
HETATM   24  O   UNL     1       5.890  28.830  49.275  1.00  0.00    -0.271 OA
BRANCH  22  25
HETATM   25  C   UNL     1       4.983  31.616  49.011  1.00  0.00     0.050 A 
HETATM   26  C   UNL     1       3.934  31.591  48.080  1.00  0.00     0.058 A 
HETATM   27  C   UNL     1       3.997  32.391  46.926  1.00  0.00     0.019 A 
HETATM   28  C   UNL     1       5.093  33.221  46.694  1.00  0.00     0.001 A 
HETATM   29  C   UNL     1       6.146  33.235  47.601  1.00  0.00     0.002 A 
HETATM   30  C   UNL     1       6.096  32.431  48.742  1.00  0.00     0.030 A 
BRANCH  26  31
HETATM   31  C   UNL     1       2.854  30.582  48.060  1.00  0.00     0.254 C 
HETATM   32  N   UNL     1       2.968  29.614  47.094  1.00  0.00    -0.351 N 
HETATM   33  H   UNL     1       3.369  29.934  46.212  1.00  0.00     0.163 HD
HETATM   34  O   UNL     1       2.004  30.599  48.942  1.00  0.00    -0.268 OA
BRANCH  32  35
HETATM   35  C   UNL     1       1.957  28.588  46.991  1.00  0.00     0.187 C 
BRANCH  35  36
HETATM   36  C   UNL     1       2.532  27.293  47.430  1.00  0.00     0.070 A 
HETATM   37  O   UNL     1       3.245  27.299  48.594  1.00  0.00    -0.325 OA
HETATM   38  C   UNL     1       3.679  26.028  48.801  1.00  0.00     0.142 A 
HETATM   39  C   UNL     1       3.257  25.204  47.786  1.00  0.00     0.027 A 
HETATM   40  C   UNL     1       2.519  26.020  46.896  1.00  0.00     0.036 A 
ENDBRANCH  35  36
ENDBRANCH  32  35
ENDBRANCH  26  31
ENDBRANCH  22  25
ENDBRANCH   1  21
TORSDOF 7
ENDMDL
MODEL 9
REMARK VINA RESULT:     -10.3      4.934      9.101
REMARK  7 active torsions:
REMARK  status: ('A' for Active; 'I' for Inactive)
REMARK    1  A    between atoms: C_2  and  C_3 
REMARK    2  A    between atoms: N_16  and  C_17 
REMARK    3  A    between atoms: C_17  and  C_18 
REMARK       I    between atoms: C_18  and  N_19 
REMARK    4  A    between atoms: N_19  and  C_20 
REMARK    5  A    between atoms: C_21  and  C_22 
REMARK       I    between atoms: C_22  and  N_23 
REMARK    6  A    between atoms: N_23  and  C_24 
REMARK    7  A    between atoms: C_24  and  C_25 
ROOT
HETATM    1  C   UNL     1       4.403  27.108  53.023  1.00  0.00     0.240 C 
ENDROOT
BRANCH   1   2
HETATM    2  N   UNL     1       4.490  27.880  51.810  1.00  0.00    -0.259 N 
HETATM    3  C   UNL     1       3.647  28.899  51.533  1.00  0.00     0.326 C 
HETATM    4  N   UNL     1       3.732  29.209  50.204  1.00  0.00    -0.321 N 
HETATM    5  O   UNL     1       2.857  29.433  52.295  1.00  0.00    -0.247 OA
HETATM    6  C   UNL     1       4.486  28.230  49.432  1.00  0.00     0.140 C 
HETATM    7  H   UNL     1       3.008  29.810  49.840  1.00  0.00     0.165 HD
HETATM    8  C   UNL     1       5.667  28.877  48.710  1.00  0.00     0.055 C 
HETATM    9  C   UNL     1       5.016  27.394  50.646  1.00  0.00     0.261 C 
HETATM   10  O   UNL     1       5.745  26.412  50.584  1.00  0.00    -0.270 OA
BRANCH   6  11
HETATM   11  C   UNL     1       3.589  27.420  48.466  1.00  0.00    -0.010 C 
HETATM   12  C   UNL     1       2.499  27.987  47.717  1.00  0.00    -0.017 A 
HETATM   13  C   UNL     1       1.647  27.115  46.979  1.00  0.00    -0.025 A 
HETATM   14  C   UNL     1       2.190  29.369  47.625  1.00  0.00     0.013 A 
HETATM   15  C   UNL     1       0.520  27.605  46.301  1.00  0.00     0.012 A 
HETATM   16  C   UNL     1       1.922  25.747  46.901  1.00  0.00     0.012 C 
HETATM   17  C   UNL     1       0.219  28.962  46.295  1.00  0.00     0.001 A 
HETATM   18  C   UNL     1       1.065  29.847  46.942  1.00  0.00     0.001 A 
HETATM   19  C   UNL     1       3.038  25.217  47.526  1.00  0.00     0.002 C 
HETATM   20  C   UNL     1       3.855  26.042  48.290  1.00  0.00     0.011 C 
ENDBRANCH   6  11
ENDBRANCH   1   2
BRANCH   1  21
HETATM   21  C   UNL     1       5.716  26.621  53.640  1.00  0.00     0.240 C 
HETATM   22  N   UNL     1       5.625  25.270  53.962  1.00  0.00    -0.325 N 
HETATM   23  H   UNL     1       4.693  24.944  54.190  1.00  0.00     0.169 HD
HETATM   24  O   UNL     1       6.673  27.341  53.900  1.00  0.00    -0.271 OA
BRANCH  22  25
HETATM   25  C   UNL     1       6.681  24.442  54.397  1.00  0.00     0.050 A 
HETATM   26  C   UNL     1       7.233  24.417  55.686  1.00  0.00     0.058 A 
HETATM   27  C   UNL     1       8.338  23.593  55.964  1.00  0.00     0.019 A 
HETATM   28  C   UNL     1       8.893  22.789  54.970  1.00  0.00     0.001 A 
HETATM   29  C   UNL     1       8.365  22.823  53.686  1.00  0.00     0.002 A 
HETATM   30  C   UNL     1       7.277  23.652  53.399  1.00  0.00     0.030 A 
BRANCH  26  31
HETATM   31  C   UNL     1       6.924  25.396  56.750  1.00  0.00     0.254 C 
HETATM   32  N   UNL     1       7.642  26.563  56.706  1.00  0.00    -0.351 N 
HETATM   33  H   UNL     1       8.606  26.461  56.386  1.00  0.00     0.163 HD
HETATM   34  O   UNL     1       6.000  25.167  57.521  1.00  0.00    -0.268 OA
BRANCH  32  35
HETATM   35  C   UNL     1       7.416  27.578  57.708  1.00  0.00     0.187 C 
BRANCH  35  36
HETATM   36  C   UNL     1       8.479  28.608  57.605  1.00  0.00     0.070 A 
HETATM   37  O   UNL     1       8.592  29.483  58.647  1.00  0.00    -0.325 OA
HETATM   38  C   UNL     1       9.609  30.331  58.346  1.00  0.00     0.142 A 
HETATM   39  C   UNL     1      10.151  30.018  57.122  1.00  0.00     0.027 A 
HETATM   40  C   UNL     1       9.420  28.907  56.640  1.00  0.00     0.036 A 
ENDBRANCH  35  36
ENDBRANCH  32  35
ENDBRANCH  26  31
ENDBRANCH  22  25
ENDBRANCH   1  21
TORSDOF 7
ENDMDL
MODEL 10
REMARK VINA RESULT:     -10.3      1.485      2.606
REMARK  7 active torsions:
REMARK  status: ('A' for Active; 'I' for Inactive)
REMARK    1  A    between atoms: C_2  and  C_3 
REMARK    2  A    between atoms: N_16  and  C_17 
REMARK    3  A    between atoms: C_17  and  C_18 
REMARK       I    between atoms: C_18  and  N_19 
REMARK    4  A    between atoms: N_19  and  C_20 
REMARK    5  A    between atoms: C_21  and  C_22 
REMARK       I    between atoms: C_22  and  N_23 
REMARK    6  A    between atoms: N_23  and  C_24 
REMARK    7  A    between atoms: C_24  and  C_25 
ROOT
HETATM    1  C   UNL     1       7.288  29.799  58.317  1.00  0.00     0.240 C 
ENDROOT
BRANCH   1   2
HETATM    2  N   UNL     1       7.025  29.086  57.092  1.00  0.00    -0.259 N 
HETATM    3  C   UNL     1       5.842  28.486  56.838  1.00  0.00     0.326 C 
HETATM    4  N   UNL     1       5.991  27.614  55.795  1.00  0.00    -0.321 N 
HETATM    5  O   UNL     1       4.802  28.606  57.466  1.00  0.00    -0.247 OA
HETATM    6  C   UNL     1       7.382  27.393  55.424  1.00  0.00     0.140 C 
HETATM    7  H   UNL     1       5.234  26.963  55.649  1.00  0.00     0.165 HD
HETATM    8  C   UNL     1       7.633  27.744  53.959  1.00  0.00     0.055 C 
HETATM    9  C   UNL     1       8.004  28.503  56.337  1.00  0.00     0.261 C 
HETATM   10  O   UNL     1       9.192  28.786  56.424  1.00  0.00    -0.270 OA
BRANCH   6  11
HETATM   11  C   UNL     1       7.867  25.964  55.770  1.00  0.00    -0.010 C 
HETATM   12  C   UNL     1       7.894  24.876  54.828  1.00  0.00    -0.017 A 
HETATM   13  C   UNL     1       8.213  23.570  55.299  1.00  0.00    -0.025 A 
HETATM   14  C   UNL     1       7.642  24.983  53.435  1.00  0.00     0.013 A 
HETATM   15  C   UNL     1       8.171  22.460  54.441  1.00  0.00     0.012 A 
HETATM   16  C   UNL     1       8.592  23.364  56.628  1.00  0.00     0.012 C 
HETATM   17  C   UNL     1       7.852  22.603  53.095  1.00  0.00     0.001 A 
HETATM   18  C   UNL     1       7.606  23.868  52.588  1.00  0.00     0.001 A 
HETATM   19  C   UNL     1       8.680  24.429  57.508  1.00  0.00     0.002 C 
HETATM   20  C   UNL     1       8.326  25.704  57.082  1.00  0.00     0.011 C 
ENDBRANCH   6  11
ENDBRANCH   1   2
BRANCH   1  21
HETATM   21  C   UNL     1       6.963  31.294  58.341  1.00  0.00     0.240 C 
HETATM   22  N   UNL     1       5.743  31.532  57.714  1.00  0.00    -0.325 N 
HETATM   23  H   UNL     1       5.499  30.872  56.984  1.00  0.00     0.169 HD
HETATM   24  O   UNL     1       7.715  32.165  58.766  1.00  0.00    -0.271 OA
BRANCH  22  25
HETATM   25  C   UNL     1       5.044  32.756  57.684  1.00  0.00     0.050 A 
HETATM   26  C   UNL     1       4.329  33.324  58.750  1.00  0.00     0.058 A 
HETATM   27  C   UNL     1       3.613  34.519  58.560  1.00  0.00     0.019 A 
HETATM   28  C   UNL     1       3.607  35.156  57.320  1.00  0.00     0.001 A 
HETATM   29  C   UNL     1       4.295  34.589  56.255  1.00  0.00     0.002 A 
HETATM   30  C   UNL     1       4.997  33.394  56.432  1.00  0.00     0.030 A 
BRANCH  26  31
HETATM   31  C   UNL     1       4.032  32.634  60.022  1.00  0.00     0.254 C 
HETATM   32  N   UNL     1       4.973  32.781  61.009  1.00  0.00    -0.351 N 
HETATM   33  H   UNL     1       5.938  32.823  60.678  1.00  0.00     0.163 HD
HETATM   34  O   UNL     1       2.948  32.079  60.161  1.00  0.00    -0.268 OA
BRANCH  32  35
HETATM   35  C   UNL     1       4.774  32.137  62.286  1.00  0.00     0.187 C 
BRANCH  35  36
HETATM   36  C   UNL     1       5.816  32.604  63.234  1.00  0.00     0.070 A 
HETATM   37  O   UNL     1       7.113  32.331  62.907  1.00  0.00    -0.325 OA
HETATM   38  C   UNL     1       7.888  32.836  63.901  1.00  0.00     0.142 A 
HETATM   39  C   UNL     1       7.110  33.429  64.865  1.00  0.00     0.027 A 
HETATM   40  C   UNL     1       5.769  33.277  64.438  1.00  0.00     0.036 A 
ENDBRANCH  35  36
ENDBRANCH  32  35
ENDBRANCH  26  31
ENDBRANCH  22  25
ENDBRANCH   1  21
TORSDOF 7
ENDMDL
