MODEL 1
REMARK VINA RESULT:      -8.8      0.000      0.000
REMARK  3 active torsions:
REMARK  status: ('A' for Active; 'I' for Inactive)
REMARK    1  A    between atoms: C_2  and  C_3 
REMARK    2  A    between atoms: C_10  and  C_12 
REMARK    3  A    between atoms: C_10  and  O_11 
ROOT
HETATM    1  C   UNL     1       7.172  24.416  53.222  1.00  0.00    -0.058 A 
HETATM    2  C   UNL     1       7.370  25.756  53.592  1.00  0.00     0.020 A 
HETATM    3  C   UNL     1       6.272  26.602  53.641  1.00  0.00     0.018 A 
HETATM    4  C   UNL     1       5.003  26.130  53.303  1.00  0.00     0.045 A 
HETATM    5  N   UNL     1       4.060  27.137  53.433  1.00  0.00    -0.323 N 
HETATM    6  C   UNL     1       4.640  28.328  53.878  1.00  0.00     0.266 A 
HETATM    7  O   UNL     1       4.021  29.365  54.064  1.00  0.00    -0.269 OA
HETATM    8  C   UNL     1       6.186  28.072  53.996  1.00  0.00     0.199 A 
HETATM    9  C   UNL     1       4.774  24.824  52.928  1.00  0.00     0.031 A 
HETATM   10  C   UNL     1       5.874  23.962  52.895  1.00  0.00     0.009 A 
HETATM   11  H   UNL     1       3.068  27.048  53.271  1.00  0.00     0.169 HD
ENDROOT
BRANCH   8  12
HETATM   12  C   UNL     1       6.712  28.241  55.405  1.00  0.00     0.025 A 
HETATM   13  C   UNL     1       8.003  28.760  55.813  1.00  0.00     0.003 A 
HETATM   14  C   UNL     1       8.044  28.746  57.208  1.00  0.00     0.043 A 
HETATM   15  C   UNL     1       9.140  29.252  55.133  1.00  0.00     0.014 A 
HETATM   16  C   UNL     1       9.143  29.201  57.948  1.00  0.00     0.030 A 
HETATM   17  N   UNL     1       6.856  28.222  57.642  1.00  0.00    -0.359 N 
HETATM   18  C   UNL     1      10.246  29.688  57.245  1.00  0.00     0.002 A 
HETATM   19  C   UNL     1      10.248  29.713  55.855  1.00  0.00     0.001 A 
HETATM   20  H   UNL     1       6.621  28.081  58.615  1.00  0.00     0.166 HD
HETATM   21  C   UNL     1       6.045  27.907  56.585  1.00  0.00     0.016 A 
HETATM   22  C   UNL     1       4.703  27.304  56.814  1.00  0.00     0.069 C 
ENDBRANCH   8  12
BRANCH   8  23
HETATM   23  O   UNL     1       6.911  28.812  53.016  1.00  0.00    -0.371 OA
HETATM   24  H   UNL     1       7.582  29.325  53.496  1.00  0.00     0.212 HD
ENDBRANCH   8  23
BRANCH   1  25
HETATM   25  C   UNL     1       8.336  23.456  53.217  1.00  0.00     0.034 C 
HETATM   26  C   UNL     1       7.873  22.010  53.112  1.00  0.00     0.010 C 
ENDBRANCH   1  25
TORSDOF 3
ENDMDL
MODEL 2
REMARK VINA RESULT:      -8.7     10.107     13.254
REMARK  3 active torsions:
REMARK  status: ('A' for Active; 'I' for Inactive)
REMARK    1  A    between atoms: C_2  and  C_3 
REMARK    2  A    between atoms: C_10  and  C_12 
REMARK    3  A    between atoms: C_10  and  O_11 
ROOT
HETATM    1  C   UNL     1       5.433  38.667  63.295  1.00  0.00    -0.058 A 
HETATM    2  C   UNL     1       5.264  37.602  64.196  1.00  0.00     0.020 A 
HETATM    3  C   UNL     1       4.328  36.623  63.899  1.00  0.00     0.018 A 
HETATM    4  C   UNL     1       3.556  36.713  62.740  1.00  0.00     0.045 A 
HETATM    5  N   UNL     1       2.701  35.626  62.641  1.00  0.00    -0.323 N 
HETATM    6  C   UNL     1       2.864  34.746  63.714  1.00  0.00     0.266 A 
HETATM    7  O   UNL     1       2.222  33.717  63.861  1.00  0.00    -0.269 OA
HETATM    8  C   UNL     1       3.935  35.382  64.674  1.00  0.00     0.199 A 
HETATM    9  C   UNL     1       3.689  37.747  61.840  1.00  0.00     0.031 A 
HETATM   10  C   UNL     1       4.643  38.728  62.123  1.00  0.00     0.009 A 
HETATM   11  H   UNL     1       2.055  35.444  61.887  1.00  0.00     0.169 HD
ENDROOT
BRANCH   8  12
HETATM   12  C   UNL     1       5.171  34.524  64.838  1.00  0.00     0.025 A 
HETATM   13  C   UNL     1       5.975  33.919  63.793  1.00  0.00     0.003 A 
HETATM   14  C   UNL     1       7.022  33.231  64.408  1.00  0.00     0.043 A 
HETATM   15  C   UNL     1       5.921  33.896  62.381  1.00  0.00     0.014 A 
HETATM   16  C   UNL     1       8.010  32.540  63.695  1.00  0.00     0.030 A 
HETATM   17  N   UNL     1       6.862  33.378  65.761  1.00  0.00    -0.359 N 
HETATM   18  C   UNL     1       7.932  32.545  62.302  1.00  0.00     0.002 A 
HETATM   19  C   UNL     1       6.901  33.211  61.650  1.00  0.00     0.001 A 
HETATM   20  H   UNL     1       7.475  32.967  66.451  1.00  0.00     0.166 HD
HETATM   21  C   UNL     1       5.761  34.142  66.043  1.00  0.00     0.016 A 
HETATM   22  C   UNL     1       5.378  34.423  67.453  1.00  0.00     0.069 C 
ENDBRANCH   8  12
BRANCH   8  23
HETATM   23  O   UNL     1       3.347  35.792  65.907  1.00  0.00    -0.371 OA
HETATM   24  H   UNL     1       2.658  35.140  66.115  1.00  0.00     0.212 HD
ENDBRANCH   8  23
BRANCH   1  25
HETATM   25  C   UNL     1       6.484  39.717  63.558  1.00  0.00     0.034 C 
HETATM   26  C   UNL     1       7.340  39.978  62.328  1.00  0.00     0.010 C 
ENDBRANCH   1  25
TORSDOF 3
ENDMDL
MODEL 3
REMARK VINA RESULT:      -8.4      9.492     12.222
REMARK  3 active torsions:
REMARK  status: ('A' for Active; 'I' for Inactive)
REMARK    1  A    between atoms: C_2  and  C_3 
REMARK    2  A    between atoms: C_10  and  C_12 
REMARK    3  A    between atoms: C_10  and  O_11 
ROOT
HETATM    1  C   UNL     1       7.297  32.876  62.444  1.00  0.00    -0.058 A 
HETATM    2  C   UNL     1       5.972  33.337  62.377  1.00  0.00     0.020 A 
HETATM    3  C   UNL     1       5.353  33.754  63.546  1.00  0.00     0.018 A 
HETATM    4  C   UNL     1       6.031  33.690  64.764  1.00  0.00     0.045 A 
HETATM    5  N   UNL     1       5.231  34.165  65.791  1.00  0.00    -0.323 N 
HETATM    6  C   UNL     1       3.986  34.586  65.317  1.00  0.00     0.266 A 
HETATM    7  O   UNL     1       3.099  35.038  66.026  1.00  0.00    -0.269 OA
HETATM    8  C   UNL     1       3.954  34.287  63.774  1.00  0.00     0.199 A 
HETATM    9  C   UNL     1       7.328  33.234  64.867  1.00  0.00     0.031 A 
HETATM   10  C   UNL     1       7.963  32.830  63.690  1.00  0.00     0.009 A 
HETATM   11  H   UNL     1       5.493  34.244  66.762  1.00  0.00     0.169 HD
ENDROOT
BRANCH   8  12
HETATM   12  C   UNL     1       3.787  35.531  62.930  1.00  0.00     0.025 A 
HETATM   13  C   UNL     1       4.544  36.765  63.010  1.00  0.00     0.003 A 
HETATM   14  C   UNL     1       4.054  37.629  62.030  1.00  0.00     0.043 A 
HETATM   15  C   UNL     1       5.608  37.232  63.816  1.00  0.00     0.014 A 
HETATM   16  C   UNL     1       4.572  38.912  61.808  1.00  0.00     0.030 A 
HETATM   17  N   UNL     1       3.031  36.978  61.393  1.00  0.00    -0.359 N 
HETATM   18  C   UNL     1       5.628  39.337  62.616  1.00  0.00     0.002 A 
HETATM   19  C   UNL     1       6.140  38.511  63.609  1.00  0.00     0.001 A 
HETATM   20  H   UNL     1       2.484  37.379  60.644  1.00  0.00     0.166 HD
HETATM   21  C   UNL     1       2.848  35.725  61.915  1.00  0.00     0.016 A 
HETATM   22  C   UNL     1       1.776  34.837  61.391  1.00  0.00     0.069 C 
ENDBRANCH   8  12
BRANCH   8  23
HETATM   23  O   UNL     1       3.024  33.250  63.467  1.00  0.00    -0.371 OA
HETATM   24  H   UNL     1       3.090  33.095  62.510  1.00  0.00     0.212 HD
ENDBRANCH   8  23
BRANCH   1  25
HETATM   25  C   UNL     1       8.017  32.471  61.181  1.00  0.00     0.034 C 
HETATM   26  C   UNL     1       9.409  31.930  61.476  1.00  0.00     0.010 C 
ENDBRANCH   1  25
TORSDOF 3
ENDMDL
MODEL 4
REMARK VINA RESULT:      -8.4      7.727     10.539
REMARK  3 active torsions:
REMARK  status: ('A' for Active; 'I' for Inactive)
REMARK    1  A    between atoms: C_2  and  C_3 
REMARK    2  A    between atoms: C_10  and  C_12 
REMARK    3  A    between atoms: C_10  and  O_11 
ROOT
HETATM    1  C   UNL     1       7.821  32.223  62.621  1.00  0.00    -0.058 A 
HETATM    2  C   UNL     1       6.573  32.102  61.987  1.00  0.00     0.020 A 
HETATM    3  C   UNL     1       5.451  32.608  62.627  1.00  0.00     0.018 A 
HETATM    4  C   UNL     1       5.564  33.200  63.885  1.00  0.00     0.045 A 
HETATM    5  N   UNL     1       4.327  33.642  64.327  1.00  0.00    -0.323 N 
HETATM    6  C   UNL     1       3.326  33.385  63.386  1.00  0.00     0.266 A 
HETATM    7  O   UNL     1       2.148  33.672  63.542  1.00  0.00    -0.269 OA
HETATM    8  C   UNL     1       4.000  32.616  62.193  1.00  0.00     0.199 A 
HETATM    9  C   UNL     1       6.771  33.327  64.539  1.00  0.00     0.031 A 
HETATM   10  C   UNL     1       7.908  32.836  63.892  1.00  0.00     0.009 A 
HETATM   11  H   UNL     1       4.141  34.123  65.195  1.00  0.00     0.169 HD
ENDROOT
BRANCH   8  12
HETATM   12  C   UNL     1       3.913  33.362  60.879  1.00  0.00     0.025 A 
HETATM   13  C   UNL     1       4.039  34.790  60.660  1.00  0.00     0.003 A 
HETATM   14  C   UNL     1       3.904  35.023  59.291  1.00  0.00     0.043 A 
HETATM   15  C   UNL     1       4.265  35.910  61.492  1.00  0.00     0.014 A 
HETATM   16  C   UNL     1       3.993  36.298  58.716  1.00  0.00     0.030 A 
HETATM   17  N   UNL     1       3.680  33.810  58.694  1.00  0.00    -0.359 N 
HETATM   18  C   UNL     1       4.226  37.381  59.565  1.00  0.00     0.002 A 
HETATM   19  C   UNL     1       4.358  37.193  60.936  1.00  0.00     0.001 A 
HETATM   20  H   UNL     1       3.530  33.686  57.703  1.00  0.00     0.166 HD
HETATM   21  C   UNL     1       3.675  32.803  59.622  1.00  0.00     0.016 A 
HETATM   22  C   UNL     1       3.431  31.394  59.207  1.00  0.00     0.069 C 
ENDBRANCH   8  12
BRANCH   8  23
HETATM   23  O   UNL     1       3.546  31.266  62.123  1.00  0.00    -0.371 OA
HETATM   24  H   UNL     1       4.338  30.711  62.042  1.00  0.00     0.212 HD
ENDBRANCH   8  23
BRANCH   1  25
HETATM   25  C   UNL     1       9.068  31.736  61.925  1.00  0.00     0.034 C 
HETATM   26  C   UNL     1       9.161  32.264  60.500  1.00  0.00     0.010 C 
ENDBRANCH   1  25
TORSDOF 3
ENDMDL
MODEL 5
REMARK VINA RESULT:      -8.2      7.312     10.234
REMARK  3 active torsions:
REMARK  status: ('A' for Active; 'I' for Inactive)
REMARK    1  A    between atoms: C_2  and  C_3 
REMARK    2  A    between atoms: C_10  and  C_12 
REMARK    3  A    between atoms: C_10  and  O_11 
ROOT
HETATM    1  C   UNL     1       7.862  32.248  62.578  1.00  0.00    -0.058 A 
HETATM    2  C   UNL     1       6.619  32.122  61.936  1.00  0.00     0.020 A 
HETATM    3  C   UNL     1       5.489  32.610  62.575  1.00  0.00     0.018 A 
HETATM    4  C   UNL     1       5.590  33.191  63.840  1.00  0.00     0.045 A 
HETATM    5  N   UNL     1       4.345  33.617  64.279  1.00  0.00    -0.323 N 
HETATM    6  C   UNL     1       3.352  33.360  63.331  1.00  0.00     0.266 A 
HETATM    7  O   UNL     1       2.171  33.634  63.483  1.00  0.00    -0.269 OA
HETATM    8  C   UNL     1       4.040  32.609  62.133  1.00  0.00     0.199 A 
HETATM    9  C   UNL     1       6.791  33.323  64.501  1.00  0.00     0.031 A 
HETATM   10  C   UNL     1       7.936  32.850  63.855  1.00  0.00     0.009 A 
HETATM   11  H   UNL     1       4.151  34.087  65.150  1.00  0.00     0.169 HD
ENDROOT
BRANCH   8  12
HETATM   12  C   UNL     1       3.952  33.367  60.826  1.00  0.00     0.025 A 
HETATM   13  C   UNL     1       3.800  32.818  59.492  1.00  0.00     0.003 A 
HETATM   14  C   UNL     1       3.750  33.887  58.597  1.00  0.00     0.043 A 
HETATM   15  C   UNL     1       3.689  31.514  58.957  1.00  0.00     0.014 A 
HETATM   16  C   UNL     1       3.587  33.724  57.215  1.00  0.00     0.030 A 
HETATM   17  N   UNL     1       3.891  35.035  59.330  1.00  0.00    -0.359 N 
HETATM   18  C   UNL     1       3.472  32.424  56.721  1.00  0.00     0.002 A 
HETATM   19  C   UNL     1       3.524  31.331  57.578  1.00  0.00     0.001 A 
HETATM   20  H   UNL     1       3.907  35.964  58.931  1.00  0.00     0.166 HD
HETATM   21  C   UNL     1       4.019  34.751  60.664  1.00  0.00     0.016 A 
HETATM   22  C   UNL     1       4.203  35.845  61.655  1.00  0.00     0.069 C 
ENDBRANCH   8  12
BRANCH   8  23
HETATM   23  O   UNL     1       3.599  31.256  62.048  1.00  0.00    -0.371 OA
HETATM   24  H   UNL     1       2.763  31.267  61.556  1.00  0.00     0.212 HD
ENDBRANCH   8  23
BRANCH   1  25
HETATM   25  C   UNL     1       9.118  31.781  61.884  1.00  0.00     0.034 C 
HETATM   26  C   UNL     1       9.318  30.280  62.032  1.00  0.00     0.010 C 
ENDBRANCH   1  25
TORSDOF 3
ENDMDL
MODEL 6
REMARK VINA RESULT:      -8.1      2.387      4.863
REMARK  3 active torsions:
REMARK  status: ('A' for Active; 'I' for Inactive)
REMARK    1  A    between atoms: C_2  and  C_3 
REMARK    2  A    between atoms: C_10  and  C_12 
REMARK    3  A    between atoms: C_10  and  O_11 
ROOT
HETATM    1  C   UNL     1       8.070  22.666  54.107  1.00  0.00    -0.058 A 
HETATM    2  C   UNL     1       7.094  23.676  54.148  1.00  0.00     0.020 A 
HETATM    3  C   UNL     1       7.114  24.576  55.202  1.00  0.00     0.018 A 
HETATM    4  C   UNL     1       8.070  24.460  56.212  1.00  0.00     0.045 A 
HETATM    5  N   UNL     1       7.910  25.466  57.151  1.00  0.00    -0.323 N 
HETATM    6  C   UNL     1       6.853  26.316  56.815  1.00  0.00     0.266 A 
HETATM    7  O   UNL     1       6.506  27.277  57.487  1.00  0.00    -0.269 OA
HETATM    8  C   UNL     1       6.200  25.746  55.505  1.00  0.00     0.199 A 
HETATM    9  C   UNL     1       9.036  23.476  56.208  1.00  0.00     0.031 A 
HETATM   10  C   UNL     1       9.033  22.576  55.138  1.00  0.00     0.009 A 
HETATM   11  H   UNL     1       8.486  25.617  57.966  1.00  0.00     0.169 HD
ENDROOT
BRANCH   8  12
HETATM   12  C   UNL     1       6.272  26.706  54.337  1.00  0.00     0.025 A 
HETATM   13  C   UNL     1       5.738  26.519  53.002  1.00  0.00     0.003 A 
HETATM   14  C   UNL     1       6.026  27.668  52.264  1.00  0.00     0.043 A 
HETATM   15  C   UNL     1       5.026  25.488  52.348  1.00  0.00     0.014 A 
HETATM   16  C   UNL     1       5.637  27.842  50.930  1.00  0.00     0.030 A 
HETATM   17  N   UNL     1       6.725  28.511  53.087  1.00  0.00    -0.359 N 
HETATM   18  C   UNL     1       4.928  26.808  50.317  1.00  0.00     0.002 A 
HETATM   19  C   UNL     1       4.626  25.643  51.014  1.00  0.00     0.001 A 
HETATM   20  H   UNL     1       7.077  29.416  52.804  1.00  0.00     0.166 HD
HETATM   21  C   UNL     1       6.890  27.957  54.329  1.00  0.00     0.016 A 
HETATM   22  C   UNL     1       7.638  28.687  55.389  1.00  0.00     0.069 C 
ENDBRANCH   8  12
BRANCH   8  23
HETATM   23  O   UNL     1       4.892  25.238  55.756  1.00  0.00    -0.371 OA
HETATM   24  H   UNL     1       4.360  25.988  56.070  1.00  0.00     0.212 HD
ENDBRANCH   8  23
BRANCH   1  25
HETATM   25  C   UNL     1       8.112  21.707  52.943  1.00  0.00     0.034 C 
HETATM   26  C   UNL     1       8.662  20.348  53.352  1.00  0.00     0.010 C 
ENDBRANCH   1  25
TORSDOF 3
ENDMDL
MODEL 7
REMARK VINA RESULT:      -7.9      9.692     12.343
REMARK  3 active torsions:
REMARK  status: ('A' for Active; 'I' for Inactive)
REMARK    1  A    between atoms: C_2  and  C_3 
REMARK    2  A    between atoms: C_10  and  C_12 
REMARK    3  A    between atoms: C_10  and  O_11 
ROOT
HETATM    1  C   UNL     1       7.222  32.964  62.646  1.00  0.00    -0.058 A 
HETATM    2  C   UNL     1       5.904  33.441  62.554  1.00  0.00     0.020 A 
HETATM    3  C   UNL     1       5.278  33.889  63.708  1.00  0.00     0.018 A 
HETATM    4  C   UNL     1       5.940  33.840  64.935  1.00  0.00     0.045 A 
HETATM    5  N   UNL     1       5.134  34.345  65.943  1.00  0.00    -0.323 N 
HETATM    6  C   UNL     1       3.900  34.773  65.446  1.00  0.00     0.266 A 
HETATM    7  O   UNL     1       3.011  35.250  66.135  1.00  0.00    -0.269 OA
HETATM    8  C   UNL     1       3.883  34.444  63.909  1.00  0.00     0.199 A 
HETATM    9  C   UNL     1       7.230  33.370  65.063  1.00  0.00     0.031 A 
HETATM   10  C   UNL     1       7.873  32.935  63.901  1.00  0.00     0.009 A 
HETATM   11  H   UNL     1       5.386  34.440  66.915  1.00  0.00     0.169 HD
ENDROOT
BRANCH   8  12
HETATM   12  C   UNL     1       3.742  35.673  63.038  1.00  0.00     0.025 A 
HETATM   13  C   UNL     1       3.009  35.798  61.792  1.00  0.00     0.003 A 
HETATM   14  C   UNL     1       3.144  37.115  61.351  1.00  0.00     0.043 A 
HETATM   15  C   UNL     1       2.234  34.922  60.999  1.00  0.00     0.014 A 
HETATM   16  C   UNL     1       2.545  37.598  60.180  1.00  0.00     0.030 A 
HETATM   17  N   UNL     1       3.939  37.766  62.257  1.00  0.00    -0.359 N 
HETATM   18  C   UNL     1       1.779  36.708  59.425  1.00  0.00     0.002 A 
HETATM   19  C   UNL     1       1.626  35.386  59.826  1.00  0.00     0.001 A 
HETATM   20  H   UNL     1       4.215  38.735  62.176  1.00  0.00     0.166 HD
HETATM   21  C   UNL     1       4.313  36.925  63.272  1.00  0.00     0.016 A 
HETATM   22  C   UNL     1       5.196  37.409  64.368  1.00  0.00     0.069 C 
ENDBRANCH   8  12
BRANCH   8  23
HETATM   23  O   UNL     1       2.944  33.413  63.610  1.00  0.00    -0.371 OA
HETATM   24  H   UNL     1       2.456  33.236  64.431  1.00  0.00     0.212 HD
ENDBRANCH   8  23
BRANCH   1  25
HETATM   25  C   UNL     1       7.953  32.526  61.401  1.00  0.00     0.034 C 
HETATM   26  C   UNL     1       9.283  31.866  61.731  1.00  0.00     0.010 C 
ENDBRANCH   1  25
TORSDOF 3
ENDMDL
MODEL 8
REMARK VINA RESULT:      -7.9      7.626     10.377
REMARK  3 active torsions:
REMARK  status: ('A' for Active; 'I' for Inactive)
REMARK    1  A    between atoms: C_2  and  C_3 
REMARK    2  A    between atoms: C_10  and  C_12 
REMARK    3  A    between atoms: C_10  and  O_11 
ROOT
HETATM    1  C   UNL     1       8.158  31.822  60.309  1.00  0.00    -0.058 A 
HETATM    2  C   UNL     1       6.808  32.077  60.601  1.00  0.00     0.020 A 
HETATM    3  C   UNL     1       6.450  32.340  61.915  1.00  0.00     0.018 A 
HETATM    4  C   UNL     1       7.414  32.324  62.924  1.00  0.00     0.045 A 
HETATM    5  N   UNL     1       6.838  32.623  64.150  1.00  0.00    -0.323 N 
HETATM    6  C   UNL     1       5.468  32.869  64.025  1.00  0.00     0.266 A 
HETATM    7  O   UNL     1       4.734  33.148  64.962  1.00  0.00    -0.269 OA
HETATM    8  C   UNL     1       5.093  32.640  62.516  1.00  0.00     0.199 A 
HETATM    9  C   UNL     1       8.745  32.068  62.675  1.00  0.00     0.031 A 
HETATM   10  C   UNL     1       9.114  31.821  61.350  1.00  0.00     0.009 A 
HETATM   11  H   UNL     1       7.322  32.696  65.032  1.00  0.00     0.169 HD
ENDROOT
BRANCH   8  12
HETATM   12  C   UNL     1       4.551  33.883  61.842  1.00  0.00     0.025 A 
HETATM   13  C   UNL     1       4.875  35.265  62.139  1.00  0.00     0.003 A 
HETATM   14  C   UNL     1       4.150  36.069  61.258  1.00  0.00     0.043 A 
HETATM   15  C   UNL     1       5.722  35.914  63.066  1.00  0.00     0.014 A 
HETATM   16  C   UNL     1       4.235  37.467  61.248  1.00  0.00     0.030 A 
HETATM   17  N   UNL     1       3.397  35.234  60.475  1.00  0.00    -0.359 N 
HETATM   18  C   UNL     1       5.088  38.075  62.170  1.00  0.00     0.002 A 
HETATM   19  C   UNL     1       5.822  37.311  63.070  1.00  0.00     0.001 A 
HETATM   20  H   UNL     1       2.762  35.552  59.756  1.00  0.00     0.166 HD
HETATM   21  C   UNL     1       3.615  33.923  60.808  1.00  0.00     0.016 A 
HETATM   22  C   UNL     1       2.890  32.833  60.100  1.00  0.00     0.069 C 
ENDBRANCH   8  12
BRANCH   8  23
HETATM   23  O   UNL     1       4.267  31.489  62.357  1.00  0.00    -0.371 OA
HETATM   24  H   UNL     1       3.643  31.693  61.641  1.00  0.00     0.212 HD
ENDBRANCH   8  23
BRANCH   1  25
HETATM   25  C   UNL     1       8.588  31.591  58.881  1.00  0.00     0.034 C 
HETATM   26  C   UNL     1      10.102  31.647  58.734  1.00  0.00     0.010 C 
ENDBRANCH   1  25
TORSDOF 3
ENDMDL
MODEL 9
REMARK VINA RESULT:      -7.8      7.879     11.015
REMARK  3 active torsions:
REMARK  status: ('A' for Active; 'I' for Inactive)
REMARK    1  A    between atoms: C_2  and  C_3 
REMARK    2  A    between atoms: C_10  and  C_12 
REMARK    3  A    between atoms: C_10  and  O_11 
ROOT
HETATM    1  C   UNL     1       4.734  36.942  61.405  1.00  0.00    -0.058 A 
HETATM    2  C   UNL     1       5.088  35.914  62.295  1.00  0.00     0.020 A 
HETATM    3  C   UNL     1       4.519  34.661  62.122  1.00  0.00     0.018 A 
HETATM    4  C   UNL     1       3.597  34.440  61.098  1.00  0.00     0.045 A 
HETATM    5  N   UNL     1       3.171  33.121  61.105  1.00  0.00    -0.323 N 
HETATM    6  C   UNL     1       3.792  32.387  62.118  1.00  0.00     0.266 A 
HETATM    7  O   UNL     1       3.580  31.203  62.337  1.00  0.00    -0.269 OA
HETATM    8  C   UNL     1       4.707  33.386  62.917  1.00  0.00     0.199 A 
HETATM    9  C   UNL     1       3.221  35.428  60.213  1.00  0.00     0.031 A 
HETATM   10  C   UNL     1       3.805  36.688  60.371  1.00  0.00     0.009 A 
HETATM   11  H   UNL     1       2.522  32.702  60.455  1.00  0.00     0.169 HD
ENDROOT
BRANCH   8  12
HETATM   12  C   UNL     1       6.174  33.018  62.868  1.00  0.00     0.025 A 
HETATM   13  C   UNL     1       6.926  32.519  61.733  1.00  0.00     0.003 A 
HETATM   14  C   UNL     1       8.245  32.333  62.145  1.00  0.00     0.043 A 
HETATM   15  C   UNL     1       6.615  32.215  60.387  1.00  0.00     0.014 A 
HETATM   16  C   UNL     1       9.259  31.876  61.293  1.00  0.00     0.030 A 
HETATM   17  N   UNL     1       8.306  32.672  63.471  1.00  0.00    -0.359 N 
HETATM   18  C   UNL     1       8.920  31.593  59.969  1.00  0.00     0.002 A 
HETATM   19  C   UNL     1       7.615  31.758  59.520  1.00  0.00     0.001 A 
HETATM   20  H   UNL     1       9.144  32.618  64.032  1.00  0.00     0.166 HD
HETATM   21  C   UNL     1       7.080  33.080  63.927  1.00  0.00     0.016 A 
HETATM   22  C   UNL     1       6.899  33.482  65.349  1.00  0.00     0.069 C 
ENDBRANCH   8  12
BRANCH   8  23
HETATM   23  O   UNL     1       4.209  33.603  64.235  1.00  0.00    -0.371 OA
HETATM   24  H   UNL     1       4.331  32.769  64.718  1.00  0.00     0.212 HD
ENDBRANCH   8  23
BRANCH   1  25
HETATM   25  C   UNL     1       5.380  38.300  61.529  1.00  0.00     0.034 C 
HETATM   26  C   UNL     1       5.647  38.666  62.982  1.00  0.00     0.010 C 
ENDBRANCH   1  25
TORSDOF 3
ENDMDL
MODEL 10
REMARK VINA RESULT:      -7.4      2.617      4.244
REMARK  3 active torsions:
REMARK  status: ('A' for Active; 'I' for Inactive)
REMARK    1  A    between atoms: C_2  and  C_3 
REMARK    2  A    between atoms: C_10  and  C_12 
REMARK    3  A    between atoms: C_10  and  O_11 
ROOT
HETATM    1  C   UNL     1       5.695  25.048  53.004  1.00  0.00    -0.058 A 
HETATM    2  C   UNL     1       5.363  25.867  54.096  1.00  0.00     0.020 A 
HETATM    3  C   UNL     1       6.085  25.730  55.272  1.00  0.00     0.018 A 
HETATM    4  C   UNL     1       7.102  24.780  55.369  1.00  0.00     0.045 A 
HETATM    5  N   UNL     1       7.693  24.827  56.622  1.00  0.00    -0.323 N 
HETATM    6  C   UNL     1       7.117  25.817  57.423  1.00  0.00     0.266 A 
HETATM    7  O   UNL     1       7.457  26.052  58.573  1.00  0.00    -0.269 OA
HETATM    8  C   UNL     1       5.950  26.462  56.591  1.00  0.00     0.199 A 
HETATM    9  C   UNL     1       7.448  23.955  54.321  1.00  0.00     0.031 A 
HETATM   10  C   UNL     1       6.737  24.100  53.126  1.00  0.00     0.009 A 
HETATM   11  H   UNL     1       8.465  24.259  56.938  1.00  0.00     0.169 HD
ENDROOT
BRANCH   8  12
HETATM   12  C   UNL     1       6.153  27.939  56.327  1.00  0.00     0.025 A 
HETATM   13  C   UNL     1       5.141  28.976  56.268  1.00  0.00     0.003 A 
HETATM   14  C   UNL     1       5.788  30.186  56.014  1.00  0.00     0.043 A 
HETATM   15  C   UNL     1       3.736  29.007  56.416  1.00  0.00     0.014 A 
HETATM   16  C   UNL     1       5.115  31.410  55.912  1.00  0.00     0.030 A 
HETATM   17  N   UNL     1       7.125  29.912  55.894  1.00  0.00    -0.359 N 
HETATM   18  C   UNL     1       3.728  31.407  56.072  1.00  0.00     0.002 A 
HETATM   19  C   UNL     1       3.045  30.222  56.319  1.00  0.00     0.001 A 
HETATM   20  H   UNL     1       7.830  30.608  55.693  1.00  0.00     0.166 HD
HETATM   21  C   UNL     1       7.368  28.576  56.072  1.00  0.00     0.016 A 
HETATM   22  C   UNL     1       8.752  28.039  55.969  1.00  0.00     0.069 C 
ENDBRANCH   8  12
BRANCH   8  23
HETATM   23  O   UNL     1       4.677  26.145  57.151  1.00  0.00    -0.371 OA
HETATM   24  H   UNL     1       4.334  26.965  57.540  1.00  0.00     0.212 HD
ENDBRANCH   8  23
BRANCH   1  25
HETATM   25  C   UNL     1       4.968  25.213  51.692  1.00  0.00     0.034 C 
HETATM   26  C   UNL     1       5.373  26.496  50.981  1.00  0.00     0.010 C 
ENDBRANCH   1  25
TORSDOF 3
ENDMDL
