MODEL 1
REMARK VINA RESULT:     -10.7      0.000      0.000
REMARK  8 active torsions:
REMARK  status: ('A' for Active; 'I' for Inactive)
REMARK    1  A    between atoms: O_2  and  C_3 
REMARK    2  A    between atoms: C_3  and  C_4 
REMARK    3  A    between atoms: C_4  and  N_5 
REMARK       I    between atoms: N_5  and  C_6 
REMARK    4  A    between atoms: C_6  and  C_7 
REMARK    5  A    between atoms: C_7  and  N_8 
REMARK       I    between atoms: N_14  and  C_15 
REMARK    6  A    between atoms: C_15  and  C_16 
REMARK    7  A    between atoms: C_19  and  C_20 
REMARK    8  A    between atoms: N_31  and  C_32 
ROOT
HETATM    1  N   UNL     1       6.574  26.249  55.990  1.00  0.00    -0.325 N 
HETATM    2  C   UNL     1       7.535  26.911  56.712  1.00  0.00     0.250 A 
HETATM    3  O   UNL     1       8.393  26.374  57.395  1.00  0.00    -0.270 OA
HETATM    4  C   UNL     1       7.289  28.428  56.551  1.00  0.00     0.118 A 
HETATM    5  C   UNL     1       8.573  29.066  55.989  1.00  0.00     0.061 C 
HETATM    6  C   UNL     1       9.647  29.258  57.059  1.00  0.00     0.129 C 
HETATM    7  N   UNL     1       9.087  29.869  58.260  1.00  0.00    -0.348 N 
HETATM    8  C   UNL     1       9.355  31.215  58.521  1.00  0.00     0.253 C 
HETATM    9  O   UNL     1      10.006  31.939  57.771  1.00  0.00    -0.267 OA
HETATM   10  C   UNL     1       8.023  29.089  58.889  1.00  0.00     0.129 C 
HETATM   11  C   UNL     1       6.845  28.942  57.932  1.00  0.00     0.061 C 
HETATM   12  N   UNL     1       6.162  28.457  55.570  1.00  0.00    -0.346 N 
HETATM   13  C   UNL     1       5.719  27.111  55.239  1.00  0.00     0.254 A 
ENDROOT
BRANCH  12  14
HETATM   14  C   UNL     1       5.465  29.554  55.094  1.00  0.00     0.032 A 
HETATM   15  C   UNL     1       5.389  30.777  55.778  1.00  0.00     0.029 A 
HETATM   16  C   UNL     1       4.667  31.876  55.288  1.00  0.00     0.002 A 
HETATM   17  C   UNL     1       3.990  31.788  54.081  1.00  0.00     0.000 A 
HETATM   18  C   UNL     1       4.048  30.603  53.364  1.00  0.00     0.002 A 
HETATM   19  C   UNL     1       4.775  29.515  53.864  1.00  0.00     0.029 A 
ENDBRANCH  12  14
BRANCH   1  20
HETATM   20  C   UNL     1       6.442  24.802  55.918  1.00  0.00     0.230 C 
BRANCH  20  21
HETATM   21  C   UNL     1       7.441  24.135  54.966  1.00  0.00     0.235 C 
HETATM   22  N   UNL     1       7.727  22.814  55.236  1.00  0.00    -0.358 N 
HETATM   23  H   UNL     1       7.504  22.471  56.165  1.00  0.00     0.162 HD
HETATM   24  O   UNL     1       8.006  24.771  54.079  1.00  0.00    -0.272 OA
BRANCH  22  25
HETATM   25  C   UNL     1       8.781  22.114  54.523  1.00  0.00     0.148 C 
BRANCH  25  26
HETATM   26  C   UNL     1       9.001  20.705  55.068  1.00  0.00     0.186 C 
BRANCH  26  27
HETATM   27  O   UNL     1       8.818  19.758  54.010  1.00  0.00    -0.394 OA
HETATM   28  C   UNL     1       8.396  20.397  52.811  1.00  0.00     0.201 C 
ENDBRANCH  26  27
ENDBRANCH  25  26
ENDBRANCH  22  25
ENDBRANCH  20  21
ENDBRANCH   1  20
BRANCH   8  29
HETATM   29  C   UNL     1       8.801  31.817  59.755  1.00  0.00     0.032 A 
HETATM   30  C   UNL     1       9.539  31.834  60.940  1.00  0.00     0.018 A 
HETATM   31  C   UNL     1       8.935  32.266  62.124  1.00  0.00     0.013 A 
HETATM   32  C   UNL     1       7.604  32.724  62.142  1.00  0.00    -0.026 A 
HETATM   33  C   UNL     1       6.923  32.794  60.911  1.00  0.00     0.013 A 
HETATM   34  C   UNL     1       7.510  32.344  59.726  1.00  0.00     0.018 A 
BRANCH  32  35
HETATM   35  C   UNL     1       6.930  33.068  63.415  1.00  0.00    -0.026 A 
HETATM   36  C   UNL     1       5.531  33.066  63.536  1.00  0.00     0.012 A 
HETATM   37  C   UNL     1       4.902  33.445  64.727  1.00  0.00     0.001 A 
HETATM   38  C   UNL     1       5.664  33.826  65.828  1.00  0.00     0.000 A 
HETATM   39  C   UNL     1       7.052  33.827  65.739  1.00  0.00     0.001 A 
HETATM   40  C   UNL     1       7.676  33.456  64.545  1.00  0.00     0.012 A 
ENDBRANCH  32  35
ENDBRANCH   8  29
TORSDOF 8
ENDMDL
MODEL 2
REMARK VINA RESULT:     -10.6      3.171     10.786
REMARK  8 active torsions:
REMARK  status: ('A' for Active; 'I' for Inactive)
REMARK    1  A    between atoms: O_2  and  C_3 
REMARK    2  A    between atoms: C_3  and  C_4 
REMARK    3  A    between atoms: C_4  and  N_5 
REMARK       I    between atoms: N_5  and  C_6 
REMARK    4  A    between atoms: C_6  and  C_7 
REMARK    5  A    between atoms: C_7  and  N_8 
REMARK       I    between atoms: N_14  and  C_15 
REMARK    6  A    between atoms: C_15  and  C_16 
REMARK    7  A    between atoms: C_19  and  C_20 
REMARK    8  A    between atoms: N_31  and  C_32 
ROOT
HETATM    1  N   UNL     1       4.117  31.335  59.011  1.00  0.00    -0.325 N 
HETATM    2  C   UNL     1       3.953  30.634  57.843  1.00  0.00     0.250 A 
HETATM    3  O   UNL     1       2.877  30.302  57.370  1.00  0.00    -0.270 OA
HETATM    4  C   UNL     1       5.355  30.300  57.287  1.00  0.00     0.118 A 
HETATM    5  C   UNL     1       5.456  30.871  55.861  1.00  0.00     0.061 C 
HETATM    6  C   UNL     1       4.737  30.000  54.831  1.00  0.00     0.129 C 
HETATM    7  N   UNL     1       5.089  28.594  54.996  1.00  0.00    -0.348 N 
HETATM    8  C   UNL     1       5.965  28.004  54.082  1.00  0.00     0.253 C 
HETATM    9  O   UNL     1       6.501  28.613  53.159  1.00  0.00    -0.267 OA
HETATM   10  C   UNL     1       4.746  28.041  56.305  1.00  0.00     0.129 C 
HETATM   11  C   UNL     1       5.511  28.773  57.402  1.00  0.00     0.061 C 
HETATM   12  N   UNL     1       6.248  31.013  58.251  1.00  0.00    -0.346 N 
HETATM   13  C   UNL     1       5.479  31.638  59.316  1.00  0.00     0.254 A 
ENDROOT
BRANCH  12  14
HETATM   14  C   UNL     1       7.632  31.016  58.300  1.00  0.00     0.032 A 
HETATM   15  C   UNL     1       8.434  30.187  57.501  1.00  0.00     0.029 A 
HETATM   16  C   UNL     1       9.836  30.193  57.573  1.00  0.00     0.002 A 
HETATM   17  C   UNL     1      10.489  31.042  58.453  1.00  0.00     0.000 A 
HETATM   18  C   UNL     1       9.737  31.889  59.253  1.00  0.00     0.002 A 
HETATM   19  C   UNL     1       8.338  31.874  59.169  1.00  0.00     0.029 A 
ENDBRANCH  12  14
BRANCH   1  20
HETATM   20  C   UNL     1       3.030  31.801  59.858  1.00  0.00     0.230 C 
BRANCH  20  21
HETATM   21  C   UNL     1       3.372  33.056  60.671  1.00  0.00     0.235 C 
HETATM   22  N   UNL     1       3.202  32.944  62.033  1.00  0.00    -0.358 N 
HETATM   23  H   UNL     1       2.614  32.187  62.368  1.00  0.00     0.162 HD
HETATM   24  O   UNL     1       3.693  34.108  60.123  1.00  0.00    -0.272 OA
BRANCH  22  25
HETATM   25  C   UNL     1       3.323  34.103  62.901  1.00  0.00     0.148 C 
BRANCH  25  26
HETATM   26  C   UNL     1       4.530  33.996  63.830  1.00  0.00     0.186 C 
BRANCH  26  27
HETATM   27  O   UNL     1       4.094  33.544  65.116  1.00  0.00    -0.394 OA
HETATM   28  C   UNL     1       5.038  33.875  66.129  1.00  0.00     0.201 C 
ENDBRANCH  26  27
ENDBRANCH  25  26
ENDBRANCH  22  25
ENDBRANCH  20  21
ENDBRANCH   1  20
BRANCH   8  29
HETATM   29  C   UNL     1       6.295  26.570  54.248  1.00  0.00     0.032 A 
HETATM   30  C   UNL     1       7.263  26.158  55.167  1.00  0.00     0.018 A 
HETATM   31  C   UNL     1       7.665  24.820  55.194  1.00  0.00     0.013 A 
HETATM   32  C   UNL     1       7.085  23.864  54.337  1.00  0.00    -0.026 A 
HETATM   33  C   UNL     1       6.038  24.293  53.497  1.00  0.00     0.013 A 
HETATM   34  C   UNL     1       5.645  25.633  53.448  1.00  0.00     0.018 A 
BRANCH  32  35
HETATM   35  C   UNL     1       7.595  22.475  54.284  1.00  0.00    -0.026 A 
HETATM   36  C   UNL     1       7.789  21.713  55.449  1.00  0.00     0.012 A 
HETATM   37  C   UNL     1       8.324  20.421  55.392  1.00  0.00     0.001 A 
HETATM   38  C   UNL     1       8.665  19.860  54.166  1.00  0.00     0.000 A 
HETATM   39  C   UNL     1       8.474  20.588  52.997  1.00  0.00     0.001 A 
HETATM   40  C   UNL     1       7.949  21.882  53.057  1.00  0.00     0.012 A 
ENDBRANCH  32  35
ENDBRANCH   8  29
TORSDOF 8
ENDMDL
MODEL 3
REMARK VINA RESULT:      -9.8      7.268     11.742
REMARK  8 active torsions:
REMARK  status: ('A' for Active; 'I' for Inactive)
REMARK    1  A    between atoms: O_2  and  C_3 
REMARK    2  A    between atoms: C_3  and  C_4 
REMARK    3  A    between atoms: C_4  and  N_5 
REMARK       I    between atoms: N_5  and  C_6 
REMARK    4  A    between atoms: C_6  and  C_7 
REMARK    5  A    between atoms: C_7  and  N_8 
REMARK       I    between atoms: N_14  and  C_15 
REMARK    6  A    between atoms: C_15  and  C_16 
REMARK    7  A    between atoms: C_19  and  C_20 
REMARK    8  A    between atoms: N_31  and  C_32 
ROOT
HETATM    1  N   UNL     1       5.274  31.653  48.144  1.00  0.00    -0.325 N 
HETATM    2  C   UNL     1       5.376  31.257  49.454  1.00  0.00     0.250 A 
HETATM    3  O   UNL     1       6.066  31.804  50.300  1.00  0.00    -0.270 OA
HETATM    4  C   UNL     1       4.521  29.983  49.633  1.00  0.00     0.118 A 
HETATM    5  C   UNL     1       3.491  30.247  50.747  1.00  0.00     0.061 C 
HETATM    6  C   UNL     1       4.103  30.146  52.144  1.00  0.00     0.129 C 
HETATM    7  N   UNL     1       4.910  28.939  52.276  1.00  0.00    -0.348 N 
HETATM    8  C   UNL     1       4.405  27.864  53.011  1.00  0.00     0.253 C 
HETATM    9  O   UNL     1       3.288  27.853  53.525  1.00  0.00    -0.267 OA
HETATM   10  C   UNL     1       6.028  28.859  51.338  1.00  0.00     0.129 C 
HETATM   11  C   UNL     1       5.509  28.834  49.904  1.00  0.00     0.061 C 
HETATM   12  N   UNL     1       3.882  29.846  48.288  1.00  0.00    -0.346 N 
HETATM   13  C   UNL     1       4.361  30.872  47.374  1.00  0.00     0.254 A 
ENDROOT
BRANCH  12  14
HETATM   14  C   UNL     1       3.055  28.837  47.828  1.00  0.00     0.032 A 
HETATM   15  C   UNL     1       1.668  28.986  47.673  1.00  0.00     0.029 A 
HETATM   16  C   UNL     1       0.841  27.948  47.217  1.00  0.00     0.002 A 
HETATM   17  C   UNL     1       1.380  26.713  46.893  1.00  0.00     0.000 A 
HETATM   18  C   UNL     1       2.748  26.523  47.018  1.00  0.00     0.002 A 
HETATM   19  C   UNL     1       3.563  27.570  47.472  1.00  0.00     0.029 A 
ENDBRANCH  12  14
BRANCH   1  20
HETATM   20  C   UNL     1       5.966  32.796  47.568  1.00  0.00     0.230 C 
BRANCH  20  21
HETATM   21  C   UNL     1       5.394  33.251  46.220  1.00  0.00     0.235 C 
HETATM   22  N   UNL     1       6.165  32.950  45.118  1.00  0.00    -0.358 N 
HETATM   23  H   UNL     1       7.142  32.727  45.280  1.00  0.00     0.162 HD
HETATM   24  O   UNL     1       4.361  33.912  46.151  1.00  0.00    -0.272 OA
BRANCH  22  25
HETATM   25  C   UNL     1       5.828  33.470  43.804  1.00  0.00     0.148 C 
BRANCH  25  26
HETATM   26  C   UNL     1       6.774  34.588  43.373  1.00  0.00     0.186 C 
BRANCH  26  27
HETATM   27  O   UNL     1       7.900  34.618  44.258  1.00  0.00    -0.394 OA
HETATM   28  C   UNL     1       8.134  35.932  44.753  1.00  0.00     0.201 C 
ENDBRANCH  26  27
ENDBRANCH  25  26
ENDBRANCH  22  25
ENDBRANCH  20  21
ENDBRANCH   1  20
BRANCH   8  29
HETATM   29  C   UNL     1       5.245  26.653  53.157  1.00  0.00     0.032 A 
HETATM   30  C   UNL     1       5.080  25.558  52.306  1.00  0.00     0.018 A 
HETATM   31  C   UNL     1       5.775  24.373  52.562  1.00  0.00     0.013 A 
HETATM   32  C   UNL     1       6.673  24.270  53.642  1.00  0.00    -0.026 A 
HETATM   33  C   UNL     1       6.896  25.426  54.417  1.00  0.00     0.013 A 
HETATM   34  C   UNL     1       6.189  26.608  54.182  1.00  0.00     0.018 A 
BRANCH  32  35
HETATM   35  C   UNL     1       7.317  22.981  53.981  1.00  0.00    -0.026 A 
HETATM   36  C   UNL     1       7.798  22.110  52.989  1.00  0.00     0.012 A 
HETATM   37  C   UNL     1       8.355  20.869  53.318  1.00  0.00     0.001 A 
HETATM   38  C   UNL     1       8.451  20.477  54.650  1.00  0.00     0.000 A 
HETATM   39  C   UNL     1       7.992  21.324  55.652  1.00  0.00     0.001 A 
HETATM   40  C   UNL     1       7.428  22.559  55.321  1.00  0.00     0.012 A 
ENDBRANCH  32  35
ENDBRANCH   8  29
TORSDOF 8
ENDMDL
MODEL 4
REMARK VINA RESULT:      -9.6      6.945     11.296
REMARK  8 active torsions:
REMARK  status: ('A' for Active; 'I' for Inactive)
REMARK    1  A    between atoms: O_2  and  C_3 
REMARK    2  A    between atoms: C_3  and  C_4 
REMARK    3  A    between atoms: C_4  and  N_5 
REMARK       I    between atoms: N_5  and  C_6 
REMARK    4  A    between atoms: C_6  and  C_7 
REMARK    5  A    between atoms: C_7  and  N_8 
REMARK       I    between atoms: N_14  and  C_15 
REMARK    6  A    between atoms: C_15  and  C_16 
REMARK    7  A    between atoms: C_19  and  C_20 
REMARK    8  A    between atoms: N_31  and  C_32 
ROOT
HETATM    1  N   UNL     1       5.238  31.593  48.212  1.00  0.00    -0.325 N 
HETATM    2  C   UNL     1       5.360  31.203  49.522  1.00  0.00     0.250 A 
HETATM    3  O   UNL     1       6.063  31.755  50.355  1.00  0.00    -0.270 OA
HETATM    4  C   UNL     1       4.509  29.930  49.720  1.00  0.00     0.118 A 
HETATM    5  C   UNL     1       3.496  30.198  50.848  1.00  0.00     0.061 C 
HETATM    6  C   UNL     1       4.129  30.105  52.237  1.00  0.00     0.129 C 
HETATM    7  N   UNL     1       4.940  28.899  52.363  1.00  0.00    -0.348 N 
HETATM    8  C   UNL     1       4.446  27.827  53.111  1.00  0.00     0.253 C 
HETATM    9  O   UNL     1       3.338  27.818  53.641  1.00  0.00    -0.267 OA
HETATM   10  C   UNL     1       6.044  28.816  51.408  1.00  0.00     0.129 C 
HETATM   11  C   UNL     1       5.503  28.783  49.982  1.00  0.00     0.061 C 
HETATM   12  N   UNL     1       3.851  29.785  48.386  1.00  0.00    -0.346 N 
HETATM   13  C   UNL     1       4.314  30.807  47.459  1.00  0.00     0.254 A 
ENDROOT
BRANCH  12  14
HETATM   14  C   UNL     1       3.017  28.772  47.943  1.00  0.00     0.032 A 
HETATM   15  C   UNL     1       1.617  28.867  47.949  1.00  0.00     0.029 A 
HETATM   16  C   UNL     1       0.786  27.826  47.509  1.00  0.00     0.002 A 
HETATM   17  C   UNL     1       1.334  26.642  47.039  1.00  0.00     0.000 A 
HETATM   18  C   UNL     1       2.713  26.509  47.002  1.00  0.00     0.002 A 
HETATM   19  C   UNL     1       3.532  27.558  47.443  1.00  0.00     0.029 A 
ENDBRANCH  12  14
BRANCH   1  20
HETATM   20  C   UNL     1       5.920  32.734  47.619  1.00  0.00     0.230 C 
BRANCH  20  21
HETATM   21  C   UNL     1       5.599  34.069  48.301  1.00  0.00     0.235 C 
HETATM   22  N   UNL     1       6.531  34.506  49.217  1.00  0.00    -0.358 N 
HETATM   23  H   UNL     1       7.181  33.818  49.582  1.00  0.00     0.162 HD
HETATM   24  O   UNL     1       4.539  34.656  48.096  1.00  0.00    -0.272 OA
BRANCH  22  25
HETATM   25  C   UNL     1       6.272  35.663  50.056  1.00  0.00     0.148 C 
BRANCH  25  26
HETATM   26  C   UNL     1       5.527  35.285  51.334  1.00  0.00     0.186 C 
BRANCH  26  27
HETATM   27  O   UNL     1       6.416  34.578  52.205  1.00  0.00    -0.394 OA
HETATM   28  C   UNL     1       7.173  35.473  53.011  1.00  0.00     0.201 C 
ENDBRANCH  26  27
ENDBRANCH  25  26
ENDBRANCH  22  25
ENDBRANCH  20  21
ENDBRANCH   1  20
BRANCH   8  29
HETATM   29  C   UNL     1       5.290  26.618  53.250  1.00  0.00     0.032 A 
HETATM   30  C   UNL     1       5.159  25.546  52.366  1.00  0.00     0.018 A 
HETATM   31  C   UNL     1       5.854  24.358  52.611  1.00  0.00     0.013 A 
HETATM   32  C   UNL     1       6.720  24.232  53.715  1.00  0.00    -0.026 A 
HETATM   33  C   UNL     1       6.910  25.368  54.527  1.00  0.00     0.013 A 
HETATM   34  C   UNL     1       6.202  26.551  54.302  1.00  0.00     0.018 A 
BRANCH  32  35
HETATM   35  C   UNL     1       7.361  22.937  54.039  1.00  0.00    -0.026 A 
HETATM   36  C   UNL     1       7.835  22.075  53.037  1.00  0.00     0.012 A 
HETATM   37  C   UNL     1       8.390  20.829  53.351  1.00  0.00     0.001 A 
HETATM   38  C   UNL     1       8.492  20.425  54.679  1.00  0.00     0.000 A 
HETATM   39  C   UNL     1       8.040  21.264  55.692  1.00  0.00     0.001 A 
HETATM   40  C   UNL     1       7.477  22.504  55.374  1.00  0.00     0.012 A 
ENDBRANCH  32  35
ENDBRANCH   8  29
TORSDOF 8
ENDMDL
MODEL 5
REMARK VINA RESULT:      -9.2      2.131      3.285
REMARK  8 active torsions:
REMARK  status: ('A' for Active; 'I' for Inactive)
REMARK    1  A    between atoms: O_2  and  C_3 
REMARK    2  A    between atoms: C_3  and  C_4 
REMARK    3  A    between atoms: C_4  and  N_5 
REMARK       I    between atoms: N_5  and  C_6 
REMARK    4  A    between atoms: C_6  and  C_7 
REMARK    5  A    between atoms: C_7  and  N_8 
REMARK       I    between atoms: N_14  and  C_15 
REMARK    6  A    between atoms: C_15  and  C_16 
REMARK    7  A    between atoms: C_19  and  C_20 
REMARK    8  A    between atoms: N_31  and  C_32 
ROOT
HETATM    1  N   UNL     1       6.133  26.831  55.117  1.00  0.00    -0.325 N 
HETATM    2  C   UNL     1       7.067  27.299  56.006  1.00  0.00     0.250 A 
HETATM    3  O   UNL     1       7.876  26.605  56.602  1.00  0.00    -0.270 OA
HETATM    4  C   UNL     1       6.865  28.823  56.151  1.00  0.00     0.118 A 
HETATM    5  C   UNL     1       8.190  29.521  55.796  1.00  0.00     0.061 C 
HETATM    6  C   UNL     1       9.210  29.453  56.933  1.00  0.00     0.129 C 
HETATM    7  N   UNL     1       8.600  29.823  58.205  1.00  0.00    -0.348 N 
HETATM    8  C   UNL     1       8.883  31.077  58.753  1.00  0.00     0.253 C 
HETATM    9  O   UNL     1       9.588  31.918  58.201  1.00  0.00    -0.267 OA
HETATM   10  C   UNL     1       7.486  28.965  58.607  1.00  0.00     0.129 C 
HETATM   11  C   UNL     1       6.358  29.056  57.585  1.00  0.00     0.061 C 
HETATM   12  N   UNL     1       5.793  29.091  55.144  1.00  0.00    -0.346 N 
HETATM   13  C   UNL     1       5.339  27.857  54.520  1.00  0.00     0.254 A 
ENDROOT
BRANCH  12  14
HETATM   14  C   UNL     1       5.146  30.285  54.873  1.00  0.00     0.032 A 
HETATM   15  C   UNL     1       4.322  30.478  53.754  1.00  0.00     0.029 A 
HETATM   16  C   UNL     1       3.684  31.699  53.485  1.00  0.00     0.002 A 
HETATM   17  C   UNL     1       3.849  32.779  54.339  1.00  0.00     0.000 A 
HETATM   18  C   UNL     1       4.644  32.629  55.465  1.00  0.00     0.002 A 
HETATM   19  C   UNL     1       5.273  31.403  55.722  1.00  0.00     0.029 A 
ENDBRANCH  12  14
BRANCH   1  20
HETATM   20  C   UNL     1       5.972  25.435  54.740  1.00  0.00     0.230 C 
BRANCH  20  21
HETATM   21  C   UNL     1       5.365  25.235  53.346  1.00  0.00     0.235 C 
HETATM   22  N   UNL     1       5.974  25.936  52.328  1.00  0.00    -0.358 N 
HETATM   23  H   UNL     1       6.559  26.722  52.591  1.00  0.00     0.162 HD
HETATM   24  O   UNL     1       4.352  24.560  53.178  1.00  0.00    -0.272 OA
BRANCH  22  25
HETATM   25  C   UNL     1       5.398  25.973  50.995  1.00  0.00     0.148 C 
BRANCH  25  26
HETATM   26  C   UNL     1       5.327  27.395  50.443  1.00  0.00     0.186 C 
BRANCH  26  27
HETATM   27  O   UNL     1       4.204  27.501  49.562  1.00  0.00    -0.394 OA
HETATM   28  C   UNL     1       4.006  26.298  48.829  1.00  0.00     0.201 C 
ENDBRANCH  26  27
ENDBRANCH  25  26
ENDBRANCH  22  25
ENDBRANCH  20  21
ENDBRANCH   1  20
BRANCH   8  29
HETATM   29  C   UNL     1       8.276  31.429  60.056  1.00  0.00     0.032 A 
HETATM   30  C   UNL     1       6.935  31.811  60.144  1.00  0.00     0.018 A 
HETATM   31  C   UNL     1       6.430  32.287  61.357  1.00  0.00     0.013 A 
HETATM   32  C   UNL     1       7.236  32.353  62.510  1.00  0.00    -0.026 A 
HETATM   33  C   UNL     1       8.553  31.861  62.413  1.00  0.00     0.013 A 
HETATM   34  C   UNL     1       9.073  31.405  61.199  1.00  0.00     0.018 A 
BRANCH  32  35
HETATM   35  C   UNL     1       6.734  32.968  63.760  1.00  0.00    -0.026 A 
HETATM   36  C   UNL     1       7.606  33.437  64.756  1.00  0.00     0.012 A 
HETATM   37  C   UNL     1       7.121  33.965  65.958  1.00  0.00     0.001 A 
HETATM   38  C   UNL     1       5.750  34.046  66.183  1.00  0.00     0.000 A 
HETATM   39  C   UNL     1       4.864  33.598  65.209  1.00  0.00     0.001 A 
HETATM   40  C   UNL     1       5.352  33.062  64.013  1.00  0.00     0.012 A 
ENDBRANCH  32  35
ENDBRANCH   8  29
TORSDOF 8
ENDMDL
MODEL 6
REMARK VINA RESULT:      -8.9      7.330     12.110
REMARK  8 active torsions:
REMARK  status: ('A' for Active; 'I' for Inactive)
REMARK    1  A    between atoms: O_2  and  C_3 
REMARK    2  A    between atoms: C_3  and  C_4 
REMARK    3  A    between atoms: C_4  and  N_5 
REMARK       I    between atoms: N_5  and  C_6 
REMARK    4  A    between atoms: C_6  and  C_7 
REMARK    5  A    between atoms: C_7  and  N_8 
REMARK       I    between atoms: N_14  and  C_15 
REMARK    6  A    between atoms: C_15  and  C_16 
REMARK    7  A    between atoms: C_19  and  C_20 
REMARK    8  A    between atoms: N_31  and  C_32 
ROOT
HETATM    1  N   UNL     1       5.010  31.707  47.651  1.00  0.00    -0.325 N 
HETATM    2  C   UNL     1       5.136  31.385  48.979  1.00  0.00     0.250 A 
HETATM    3  O   UNL     1       5.828  31.989  49.785  1.00  0.00    -0.270 OA
HETATM    4  C   UNL     1       4.304  30.110  49.241  1.00  0.00     0.118 A 
HETATM    5  C   UNL     1       3.285  30.419  50.352  1.00  0.00     0.061 C 
HETATM    6  C   UNL     1       3.917  30.406  51.745  1.00  0.00     0.129 C 
HETATM    7  N   UNL     1       4.746  29.221  51.932  1.00  0.00    -0.348 N 
HETATM    8  C   UNL     1       4.268  28.180  52.733  1.00  0.00     0.253 C 
HETATM    9  O   UNL     1       3.159  28.181  53.261  1.00  0.00    -0.267 OA
HETATM   10  C   UNL     1       5.853  29.107  50.984  1.00  0.00     0.129 C 
HETATM   11  C   UNL     1       5.315  28.994  49.561  1.00  0.00     0.061 C 
HETATM   12  N   UNL     1       3.651  29.888  47.915  1.00  0.00    -0.346 N 
HETATM   13  C   UNL     1       4.101  30.869  46.938  1.00  0.00     0.254 A 
ENDROOT
BRANCH  12  14
HETATM   14  C   UNL     1       2.835  28.841  47.522  1.00  0.00     0.032 A 
HETATM   15  C   UNL     1       3.288  27.521  47.377  1.00  0.00     0.029 A 
HETATM   16  C   UNL     1       2.451  26.474  46.965  1.00  0.00     0.002 A 
HETATM   17  C   UNL     1       1.115  26.713  46.685  1.00  0.00     0.000 A 
HETATM   18  C   UNL     1       0.619  28.000  46.827  1.00  0.00     0.002 A 
HETATM   19  C   UNL     1       1.466  29.037  47.242  1.00  0.00     0.029 A 
ENDBRANCH  12  14
BRANCH   1  20
HETATM   20  C   UNL     1       5.676  32.827  47.003  1.00  0.00     0.230 C 
BRANCH  20  21
HETATM   21  C   UNL     1       4.907  34.149  47.108  1.00  0.00     0.235 C 
HETATM   22  N   UNL     1       5.497  35.228  46.487  1.00  0.00    -0.358 N 
HETATM   23  H   UNL     1       6.485  35.156  46.269  1.00  0.00     0.162 HD
HETATM   24  O   UNL     1       3.880  34.243  47.776  1.00  0.00    -0.272 OA
BRANCH  22  25
HETATM   25  C   UNL     1       4.966  36.570  46.654  1.00  0.00     0.148 C 
BRANCH  25  26
HETATM   26  C   UNL     1       5.945  37.484  47.387  1.00  0.00     0.186 C 
BRANCH  26  27
HETATM   27  O   UNL     1       5.753  38.831  46.941  1.00  0.00    -0.394 OA
HETATM   28  C   UNL     1       6.269  39.021  45.629  1.00  0.00     0.201 C 
ENDBRANCH  26  27
ENDBRANCH  25  26
ENDBRANCH  22  25
ENDBRANCH  20  21
ENDBRANCH   1  20
BRANCH   8  29
HETATM   29  C   UNL     1       5.130  26.994  52.934  1.00  0.00     0.032 A 
HETATM   30  C   UNL     1       5.089  25.918  52.045  1.00  0.00     0.018 A 
HETATM   31  C   UNL     1       5.795  24.749  52.341  1.00  0.00     0.013 A 
HETATM   32  C   UNL     1       6.584  24.645  53.504  1.00  0.00    -0.026 A 
HETATM   33  C   UNL     1       6.687  25.785  54.324  1.00  0.00     0.013 A 
HETATM   34  C   UNL     1       5.967  26.951  54.048  1.00  0.00     0.018 A 
BRANCH  32  35
HETATM   35  C   UNL     1       7.233  23.367  53.875  1.00  0.00    -0.026 A 
HETATM   36  C   UNL     1       7.729  22.480  52.906  1.00  0.00     0.012 A 
HETATM   37  C   UNL     1       8.292  21.250  53.265  1.00  0.00     0.001 A 
HETATM   38  C   UNL     1       8.381  20.887  54.606  1.00  0.00     0.000 A 
HETATM   39  C   UNL     1       7.907  21.751  55.587  1.00  0.00     0.001 A 
HETATM   40  C   UNL     1       7.336  22.975  55.224  1.00  0.00     0.012 A 
ENDBRANCH  32  35
ENDBRANCH   8  29
TORSDOF 8
ENDMDL
MODEL 7
REMARK VINA RESULT:      -8.6      3.224      7.971
REMARK  8 active torsions:
REMARK  status: ('A' for Active; 'I' for Inactive)
REMARK    1  A    between atoms: O_2  and  C_3 
REMARK    2  A    between atoms: C_3  and  C_4 
REMARK    3  A    between atoms: C_4  and  N_5 
REMARK       I    between atoms: N_5  and  C_6 
REMARK    4  A    between atoms: C_6  and  C_7 
REMARK    5  A    between atoms: C_7  and  N_8 
REMARK       I    between atoms: N_14  and  C_15 
REMARK    6  A    between atoms: C_15  and  C_16 
REMARK    7  A    between atoms: C_19  and  C_20 
REMARK    8  A    between atoms: N_31  and  C_32 
ROOT
HETATM    1  N   UNL     1       7.171  25.982  56.783  1.00  0.00    -0.325 N 
HETATM    2  C   UNL     1       6.093  26.659  56.271  1.00  0.00     0.250 A 
HETATM    3  O   UNL     1       5.145  26.141  55.702  1.00  0.00    -0.270 OA
HETATM    4  C   UNL     1       6.332  28.169  56.492  1.00  0.00     0.118 A 
HETATM    5  C   UNL     1       5.146  28.733  57.295  1.00  0.00     0.061 C 
HETATM    6  C   UNL     1       3.908  28.960  56.428  1.00  0.00     0.129 C 
HETATM    7  N   UNL     1       4.253  29.662  55.197  1.00  0.00    -0.348 N 
HETATM    8  C   UNL     1       3.921  31.014  55.073  1.00  0.00     0.253 C 
HETATM    9  O   UNL     1       3.388  31.670  55.964  1.00  0.00    -0.267 OA
HETATM   10  C   UNL     1       5.215  28.955  54.353  1.00  0.00     0.129 C 
HETATM   11  C   UNL     1       6.536  28.783  55.095  1.00  0.00     0.061 C 
HETATM   12  N   UNL     1       7.604  28.171  57.278  1.00  0.00    -0.346 N 
HETATM   13  C   UNL     1       8.120  26.820  57.443  1.00  0.00     0.254 A 
ENDROOT
BRANCH  12  14
HETATM   14  C   UNL     1       8.349  29.255  57.708  1.00  0.00     0.032 A 
HETATM   15  C   UNL     1       7.890  30.177  58.661  1.00  0.00     0.029 A 
HETATM   16  C   UNL     1       8.652  31.280  59.077  1.00  0.00     0.002 A 
HETATM   17  C   UNL     1       9.915  31.497  58.549  1.00  0.00     0.000 A 
HETATM   18  C   UNL     1      10.415  30.605  57.613  1.00  0.00     0.002 A 
HETATM   19  C   UNL     1       9.644  29.506  57.209  1.00  0.00     0.029 A 
ENDBRANCH  12  14
BRANCH   1  20
HETATM   20  C   UNL     1       7.340  24.537  56.736  1.00  0.00     0.230 C 
BRANCH  20  21
HETATM   21  C   UNL     1       8.158  24.049  55.534  1.00  0.00     0.235 C 
HETATM   22  N   UNL     1       7.488  24.032  54.330  1.00  0.00    -0.358 N 
HETATM   23  H   UNL     1       6.474  24.057  54.361  1.00  0.00     0.162 HD
HETATM   24  O   UNL     1       9.303  23.623  55.666  1.00  0.00    -0.272 OA
BRANCH  22  25
HETATM   25  C   UNL     1       8.086  23.434  53.149  1.00  0.00     0.148 C 
BRANCH  25  26
HETATM   26  C   UNL     1       7.741  21.952  53.023  1.00  0.00     0.186 C 
BRANCH  26  27
HETATM   27  O   UNL     1       8.884  21.171  53.390  1.00  0.00    -0.394 OA
HETATM   28  C   UNL     1       8.580  20.276  54.454  1.00  0.00     0.201 C 
ENDBRANCH  26  27
ENDBRANCH  25  26
ENDBRANCH  22  25
ENDBRANCH  20  21
ENDBRANCH   1  20
BRANCH   8  29
HETATM   29  C   UNL     1       4.256  31.708  53.809  1.00  0.00     0.032 A 
HETATM   30  C   UNL     1       4.096  31.072  52.576  1.00  0.00     0.018 A 
HETATM   31  C   UNL     1       4.564  31.690  51.413  1.00  0.00     0.013 A 
HETATM   32  C   UNL     1       5.160  32.966  51.452  1.00  0.00    -0.026 A 
HETATM   33  C   UNL     1       5.209  33.624  52.696  1.00  0.00     0.013 A 
HETATM   34  C   UNL     1       4.764  33.005  53.867  1.00  0.00     0.018 A 
BRANCH  32  35
HETATM   35  C   UNL     1       5.761  33.566  50.239  1.00  0.00    -0.026 A 
HETATM   36  C   UNL     1       5.960  32.820  49.065  1.00  0.00     0.012 A 
HETATM   37  C   UNL     1       6.579  33.381  47.943  1.00  0.00     0.001 A 
HETATM   38  C   UNL     1       7.002  34.707  47.968  1.00  0.00     0.000 A 
HETATM   39  C   UNL     1       6.808  35.471  49.113  1.00  0.00     0.001 A 
HETATM   40  C   UNL     1       6.198  34.904  50.237  1.00  0.00     0.012 A 
ENDBRANCH  32  35
ENDBRANCH   8  29
TORSDOF 8
ENDMDL
MODEL 8
REMARK VINA RESULT:      -8.5      3.477      8.640
REMARK  8 active torsions:
REMARK  status: ('A' for Active; 'I' for Inactive)
REMARK    1  A    between atoms: O_2  and  C_3 
REMARK    2  A    between atoms: C_3  and  C_4 
REMARK    3  A    between atoms: C_4  and  N_5 
REMARK       I    between atoms: N_5  and  C_6 
REMARK    4  A    between atoms: C_6  and  C_7 
REMARK    5  A    between atoms: C_7  and  N_8 
REMARK       I    between atoms: N_14  and  C_15 
REMARK    6  A    between atoms: C_15  and  C_16 
REMARK    7  A    between atoms: C_19  and  C_20 
REMARK    8  A    between atoms: N_31  and  C_32 
ROOT
HETATM    1  N   UNL     1       7.385  25.328  56.516  1.00  0.00    -0.325 N 
HETATM    2  C   UNL     1       6.350  25.913  55.830  1.00  0.00     0.250 A 
HETATM    3  O   UNL     1       5.493  25.309  55.204  1.00  0.00    -0.270 OA
HETATM    4  C   UNL     1       6.509  27.446  55.947  1.00  0.00     0.118 A 
HETATM    5  C   UNL     1       5.218  28.018  56.560  1.00  0.00     0.061 C 
HETATM    6  C   UNL     1       4.081  28.118  55.542  1.00  0.00     0.129 C 
HETATM    7  N   UNL     1       4.542  28.734  54.303  1.00  0.00    -0.348 N 
HETATM    8  C   UNL     1       4.179  30.055  54.027  1.00  0.00     0.253 C 
HETATM    9  O   UNL     1       3.523  30.756  54.794  1.00  0.00    -0.267 OA
HETATM   10  C   UNL     1       5.620  28.005  53.636  1.00  0.00     0.129 C 
HETATM   11  C   UNL     1       6.852  27.953  54.535  1.00  0.00     0.061 C 
HETATM   12  N   UNL     1       7.679  27.567  56.868  1.00  0.00    -0.346 N 
HETATM   13  C   UNL     1       8.220  26.259  57.205  1.00  0.00     0.254 A 
ENDROOT
BRANCH  12  14
HETATM   14  C   UNL     1       8.330  28.716  57.285  1.00  0.00     0.032 A 
HETATM   15  C   UNL     1       9.571  29.128  56.776  1.00  0.00     0.029 A 
HETATM   16  C   UNL     1      10.224  30.288  57.219  1.00  0.00     0.002 A 
HETATM   17  C   UNL     1       9.650  31.086  58.196  1.00  0.00     0.000 A 
HETATM   18  C   UNL     1       8.417  30.725  58.719  1.00  0.00     0.002 A 
HETATM   19  C   UNL     1       7.775  29.565  58.265  1.00  0.00     0.029 A 
ENDBRANCH  12  14
BRANCH   1  20
HETATM   20  C   UNL     1       7.610  23.894  56.611  1.00  0.00     0.230 C 
BRANCH  20  21
HETATM   21  C   UNL     1       8.326  23.297  55.394  1.00  0.00     0.235 C 
HETATM   22  N   UNL     1       7.507  22.913  54.355  1.00  0.00    -0.358 N 
HETATM   23  H   UNL     1       6.523  22.779  54.563  1.00  0.00     0.162 HD
HETATM   24  O   UNL     1       9.539  23.102  55.395  1.00  0.00    -0.272 OA
BRANCH  22  25
HETATM   25  C   UNL     1       8.035  22.179  53.217  1.00  0.00     0.148 C 
BRANCH  25  26
HETATM   26  C   UNL     1       7.696  20.693  53.290  1.00  0.00     0.186 C 
BRANCH  26  27
HETATM   27  O   UNL     1       8.868  19.961  53.663  1.00  0.00    -0.394 OA
HETATM   28  C   UNL     1       8.904  19.721  55.065  1.00  0.00     0.201 C 
ENDBRANCH  26  27
ENDBRANCH  25  26
ENDBRANCH  22  25
ENDBRANCH  20  21
ENDBRANCH   1  20
BRANCH   8  29
HETATM   29  C   UNL     1       4.633  30.659  52.755  1.00  0.00     0.032 A 
HETATM   30  C   UNL     1       4.538  32.036  52.540  1.00  0.00     0.018 A 
HETATM   31  C   UNL     1       4.828  32.560  51.277  1.00  0.00     0.013 A 
HETATM   32  C   UNL     1       5.255  31.732  50.221  1.00  0.00    -0.026 A 
HETATM   33  C   UNL     1       5.443  30.363  50.502  1.00  0.00     0.013 A 
HETATM   34  C   UNL     1       5.134  29.827  51.755  1.00  0.00     0.018 A 
BRANCH  32  35
HETATM   35  C   UNL     1       5.447  32.271  48.856  1.00  0.00    -0.026 A 
HETATM   36  C   UNL     1       4.594  31.920  47.795  1.00  0.00     0.012 A 
HETATM   37  C   UNL     1       4.816  32.392  46.497  1.00  0.00     0.001 A 
HETATM   38  C   UNL     1       5.893  33.234  46.234  1.00  0.00     0.000 A 
HETATM   39  C   UNL     1       6.746  33.605  47.267  1.00  0.00     0.001 A 
HETATM   40  C   UNL     1       6.527  33.125  48.562  1.00  0.00     0.012 A 
ENDBRANCH  32  35
ENDBRANCH   8  29
TORSDOF 8
ENDMDL
MODEL 9
REMARK VINA RESULT:      -8.4      3.391      8.180
REMARK  8 active torsions:
REMARK  status: ('A' for Active; 'I' for Inactive)
REMARK    1  A    between atoms: O_2  and  C_3 
REMARK    2  A    between atoms: C_3  and  C_4 
REMARK    3  A    between atoms: C_4  and  N_5 
REMARK       I    between atoms: N_5  and  C_6 
REMARK    4  A    between atoms: C_6  and  C_7 
REMARK    5  A    between atoms: C_7  and  N_8 
REMARK       I    between atoms: N_14  and  C_15 
REMARK    6  A    between atoms: C_15  and  C_16 
REMARK    7  A    between atoms: C_19  and  C_20 
REMARK    8  A    between atoms: N_31  and  C_32 
ROOT
HETATM    1  N   UNL     1       7.326  25.886  56.723  1.00  0.00    -0.325 N 
HETATM    2  C   UNL     1       6.220  26.544  56.246  1.00  0.00     0.250 A 
HETATM    3  O   UNL     1       5.263  26.008  55.708  1.00  0.00    -0.270 OA
HETATM    4  C   UNL     1       6.438  28.058  56.460  1.00  0.00     0.118 A 
HETATM    5  C   UNL     1       5.269  28.599  57.302  1.00  0.00     0.061 C 
HETATM    6  C   UNL     1       3.999  28.804  56.475  1.00  0.00     0.129 C 
HETATM    7  N   UNL     1       4.291  29.512  55.234  1.00  0.00    -0.348 N 
HETATM    8  C   UNL     1       3.930  30.857  55.121  1.00  0.00     0.253 C 
HETATM    9  O   UNL     1       3.415  31.503  56.030  1.00  0.00    -0.267 OA
HETATM   10  C   UNL     1       5.238  28.823  54.359  1.00  0.00     0.129 C 
HETATM   11  C   UNL     1       6.585  28.674  55.057  1.00  0.00     0.061 C 
HETATM   12  N   UNL     1       7.735  28.082  57.204  1.00  0.00    -0.346 N 
HETATM   13  C   UNL     1       8.280  26.741  57.351  1.00  0.00     0.254 A 
ENDROOT
BRANCH  12  14
HETATM   14  C   UNL     1       8.473  29.181  57.609  1.00  0.00     0.032 A 
HETATM   15  C   UNL     1       9.713  29.526  57.050  1.00  0.00     0.029 A 
HETATM   16  C   UNL     1      10.456  30.635  57.482  1.00  0.00     0.002 A 
HETATM   17  C   UNL     1       9.976  31.448  58.497  1.00  0.00     0.000 A 
HETATM   18  C   UNL     1       8.749  31.153  59.070  1.00  0.00     0.002 A 
HETATM   19  C   UNL     1       8.016  30.043  58.627  1.00  0.00     0.029 A 
ENDBRANCH  12  14
BRANCH   1  20
HETATM   20  C   UNL     1       7.520  24.445  56.669  1.00  0.00     0.230 C 
BRANCH  20  21
HETATM   21  C   UNL     1       8.126  23.950  55.351  1.00  0.00     0.235 C 
HETATM   22  N   UNL     1       7.412  24.266  54.215  1.00  0.00    -0.358 N 
HETATM   23  H   UNL     1       6.440  24.530  54.336  1.00  0.00     0.162 HD
HETATM   24  O   UNL     1       9.134  23.247  55.331  1.00  0.00    -0.272 OA
BRANCH  22  25
HETATM   25  C   UNL     1       7.779  23.716  52.922  1.00  0.00     0.148 C 
BRANCH  25  26
HETATM   26  C   UNL     1       7.801  24.784  51.832  1.00  0.00     0.186 C 
BRANCH  26  27
HETATM   27  O   UNL     1       6.934  25.859  52.211  1.00  0.00    -0.394 OA
HETATM   28  C   UNL     1       5.777  25.908  51.384  1.00  0.00     0.201 C 
ENDBRANCH  26  27
ENDBRANCH  25  26
ENDBRANCH  22  25
ENDBRANCH  20  21
ENDBRANCH   1  20
BRANCH   8  29
HETATM   29  C   UNL     1       4.211  31.557  53.847  1.00  0.00     0.032 A 
HETATM   30  C   UNL     1       4.050  30.908  52.621  1.00  0.00     0.018 A 
HETATM   31  C   UNL     1       4.469  31.538  51.446  1.00  0.00     0.013 A 
HETATM   32  C   UNL     1       5.015  32.836  51.466  1.00  0.00    -0.026 A 
HETATM   33  C   UNL     1       5.064  33.503  52.706  1.00  0.00     0.013 A 
HETATM   34  C   UNL     1       4.669  32.873  53.889  1.00  0.00     0.018 A 
BRANCH  32  35
HETATM   35  C   UNL     1       5.566  33.453  50.238  1.00  0.00    -0.026 A 
HETATM   36  C   UNL     1       5.843  34.828  50.160  1.00  0.00     0.012 A 
HETATM   37  C   UNL     1       6.312  35.411  48.977  1.00  0.00     0.001 A 
HETATM   38  C   UNL     1       6.524  34.625  47.848  1.00  0.00     0.000 A 
HETATM   39  C   UNL     1       6.268  33.259  47.900  1.00  0.00     0.001 A 
HETATM   40  C   UNL     1       5.790  32.682  49.081  1.00  0.00     0.012 A 
ENDBRANCH  32  35
ENDBRANCH   8  29
TORSDOF 8
ENDMDL
MODEL 10
REMARK VINA RESULT:      -8.4      7.563     11.903
REMARK  8 active torsions:
REMARK  status: ('A' for Active; 'I' for Inactive)
REMARK    1  A    between atoms: O_2  and  C_3 
REMARK    2  A    between atoms: C_3  and  C_4 
REMARK    3  A    between atoms: C_4  and  N_5 
REMARK       I    between atoms: N_5  and  C_6 
REMARK    4  A    between atoms: C_6  and  C_7 
REMARK    5  A    between atoms: C_7  and  N_8 
REMARK       I    between atoms: N_14  and  C_15 
REMARK    6  A    between atoms: C_15  and  C_16 
REMARK    7  A    between atoms: C_19  and  C_20 
REMARK    8  A    between atoms: N_31  and  C_32 
ROOT
HETATM    1  N   UNL     1       4.612  32.116  46.216  1.00  0.00    -0.325 N 
HETATM    2  C   UNL     1       4.922  31.995  47.547  1.00  0.00     0.250 A 
HETATM    3  O   UNL     1       5.749  32.672  48.139  1.00  0.00    -0.270 OA
HETATM    4  C   UNL     1       4.091  30.828  48.124  1.00  0.00     0.118 A 
HETATM    5  C   UNL     1       3.261  31.365  49.304  1.00  0.00     0.061 C 
HETATM    6  C   UNL     1       4.092  31.527  50.577  1.00  0.00     0.129 C 
HETATM    7  N   UNL     1       4.894  30.337  50.834  1.00  0.00    -0.348 N 
HETATM    8  C   UNL     1       4.502  29.462  51.850  1.00  0.00     0.253 C 
HETATM    9  O   UNL     1       3.484  29.611  52.523  1.00  0.00    -0.267 OA
HETATM   10  C   UNL     1       5.843  30.012  49.770  1.00  0.00     0.129 C 
HETATM   11  C   UNL     1       5.096  29.715  48.474  1.00  0.00     0.061 C 
HETATM   12  N   UNL     1       3.240  30.446  46.957  1.00  0.00    -0.346 N 
HETATM   13  C   UNL     1       3.576  31.236  45.781  1.00  0.00     0.254 A 
ENDROOT
BRANCH  12  14
HETATM   14  C   UNL     1       2.335  29.403  46.856  1.00  0.00     0.032 A 
HETATM   15  C   UNL     1       0.998  29.577  46.469  1.00  0.00     0.029 A 
HETATM   16  C   UNL     1       0.089  28.511  46.385  1.00  0.00     0.002 A 
HETATM   17  C   UNL     1       0.494  27.219  46.686  1.00  0.00     0.000 A 
HETATM   18  C   UNL     1       1.810  26.998  47.060  1.00  0.00     0.002 A 
HETATM   19  C   UNL     1       2.708  28.072  47.137  1.00  0.00     0.029 A 
ENDBRANCH  12  14
BRANCH   1  20
HETATM   20  C   UNL     1       5.215  33.081  45.308  1.00  0.00     0.230 C 
BRANCH  20  21
HETATM   21  C   UNL     1       6.391  33.854  45.918  1.00  0.00     0.235 C 
HETATM   22  N   UNL     1       6.079  35.089  46.444  1.00  0.00    -0.358 N 
HETATM   23  H   UNL     1       5.206  35.513  46.148  1.00  0.00     0.162 HD
HETATM   24  O   UNL     1       7.541  33.426  45.858  1.00  0.00    -0.272 OA
BRANCH  22  25
HETATM   25  C   UNL     1       7.121  35.995  46.896  1.00  0.00     0.148 C 
BRANCH  25  26
HETATM   26  C   UNL     1       7.038  36.255  48.398  1.00  0.00     0.186 C 
BRANCH  26  27
HETATM   27  O   UNL     1       8.294  35.926  49.002  1.00  0.00    -0.394 OA
HETATM   28  C   UNL     1       9.265  35.580  48.021  1.00  0.00     0.201 C 
ENDBRANCH  26  27
ENDBRANCH  25  26
ENDBRANCH  22  25
ENDBRANCH  20  21
ENDBRANCH   1  20
BRANCH   8  29
HETATM   29  C   UNL     1       5.339  28.270  52.116  1.00  0.00     0.032 A 
HETATM   30  C   UNL     1       5.151  27.087  51.398  1.00  0.00     0.018 A 
HETATM   31  C   UNL     1       5.846  25.934  51.772  1.00  0.00     0.013 A 
HETATM   32  C   UNL     1       6.765  25.947  52.839  1.00  0.00    -0.026 A 
HETATM   33  C   UNL     1       7.009  27.181  53.473  1.00  0.00     0.013 A 
HETATM   34  C   UNL     1       6.303  28.335  53.120  1.00  0.00     0.018 A 
BRANCH  32  35
HETATM   35  C   UNL     1       7.409  24.699  53.309  1.00  0.00    -0.026 A 
HETATM   36  C   UNL     1       7.475  23.551  52.503  1.00  0.00     0.012 A 
HETATM   37  C   UNL     1       8.037  22.360  52.976  1.00  0.00     0.001 A 
HETATM   38  C   UNL     1       8.555  22.297  54.266  1.00  0.00     0.000 A 
HETATM   39  C   UNL     1       8.511  23.422  55.083  1.00  0.00     0.001 A 
HETATM   40  C   UNL     1       7.941  24.607  54.610  1.00  0.00     0.012 A 
ENDBRANCH  32  35
ENDBRANCH   8  29
TORSDOF 8
ENDMDL
