MODEL 1
REMARK VINA RESULT:     -11.1      0.000      0.000
REMARK  5 active torsions:
REMARK  status: ('A' for Active; 'I' for Inactive)
REMARK    1  A    between atoms: O_2  and  C_3 
REMARK    2  A    between atoms: C_6  and  C_7 
REMARK    3  A    between atoms: C_7  and  C_8 
REMARK       I    between atoms: C_8  and  N_9 
REMARK    4  A    between atoms: N_9  and  C_10 
REMARK    5  A    between atoms: C_13  and  C_14 
ROOT
HETATM    1  C   UNL     1       7.319  29.094  57.859  1.00  0.00     0.034 A 
HETATM    2  C   UNL     1       8.533  28.495  57.523  1.00  0.00     0.030 A 
HETATM    3  C   UNL     1       8.561  27.314  56.771  1.00  0.00     0.017 A 
HETATM    4  C   UNL     1       7.374  26.716  56.335  1.00  0.00     0.010 A 
HETATM    5  C   UNL     1       6.152  27.290  56.703  1.00  0.00     0.017 A 
HETATM    6  C   UNL     1       6.129  28.473  57.457  1.00  0.00     0.030 A 
ENDROOT
BRANCH   1   7
HETATM    7  N   UNL     1       7.213  30.321  58.549  1.00  0.00    -0.327 N 
HETATM    8  C   UNL     1       7.955  30.734  59.643  1.00  0.00     0.226 C 
HETATM    9  O   UNL     1       8.737  30.047  60.294  1.00  0.00    -0.273 OA
HETATM   10  H   UNL     1       6.513  30.969  58.209  1.00  0.00     0.169 HD
BRANCH   8  11
HETATM   11  C   UNL     1       7.741  32.200  59.988  1.00  0.00     0.141 C 
BRANCH  11  12
HETATM   12  C   UNL     1       7.352  32.463  61.421  1.00  0.00    -0.049 A 
HETATM   13  C   UNL     1       8.298  32.444  62.455  1.00  0.00     0.010 A 
HETATM   14  C   UNL     1       7.931  32.754  63.770  1.00  0.00     0.037 A 
HETATM   15  C   UNL     1       6.615  33.106  64.068  1.00  0.00     0.068 A 
HETATM   16  C   UNL     1       5.672  33.142  63.039  1.00  0.00     0.037 A 
HETATM   17  C   UNL     1       6.034  32.829  61.727  1.00  0.00     0.010 A 
BRANCH  15  18
HETATM   18  O   UNL     1       6.130  33.443  65.301  1.00  0.00    -0.356 OA
HETATM   19  C   UNL     1       4.734  33.701  65.393  1.00  0.00     0.210 C 
ENDBRANCH  15  18
ENDBRANCH  11  12
ENDBRANCH   8  11
ENDBRANCH   1   7
BRANCH   4  20
HETATM   20  C   UNL     1       7.468  25.503  55.473  1.00  0.00     0.141 A 
HETATM   21  N   UNL     1       7.490  24.319  56.001  1.00  0.00    -0.230 NA
HETATM   22  C   UNL     1       7.628  23.207  55.153  1.00  0.00     0.074 A 
HETATM   23  C   UNL     1       7.750  23.327  53.768  1.00  0.00     0.061 A 
HETATM   24  C   UNL     1       7.665  21.929  55.717  1.00  0.00     0.032 A 
HETATM   25  C   UNL     1       7.723  24.686  53.205  1.00  0.00     0.259 A 
HETATM   26  C   UNL     1       7.911  22.205  52.949  1.00  0.00     0.019 A 
HETATM   27  O   UNL     1       7.844  24.902  52.005  1.00  0.00    -0.267 OA
HETATM   28  N   UNL     1       7.569  25.703  54.113  1.00  0.00    -0.307 N 
HETATM   29  H   UNL     1       7.615  26.627  53.714  1.00  0.00     0.170 HD
HETATM   30  C   UNL     1       7.949  20.937  53.526  1.00  0.00     0.001 A 
HETATM   31  C   UNL     1       7.826  20.799  54.909  1.00  0.00     0.002 A 
ENDBRANCH   4  20
TORSDOF 5
ENDMDL
MODEL 2
REMARK VINA RESULT:     -10.4      1.918      2.601
REMARK  5 active torsions:
REMARK  status: ('A' for Active; 'I' for Inactive)
REMARK    1  A    between atoms: O_2  and  C_3 
REMARK    2  A    between atoms: C_6  and  C_7 
REMARK    3  A    between atoms: C_7  and  C_8 
REMARK       I    between atoms: C_8  and  N_9 
REMARK    4  A    between atoms: N_9  and  C_10 
REMARK    5  A    between atoms: C_13  and  C_14 
ROOT
HETATM    1  C   UNL     1       7.327  28.867  56.892  1.00  0.00     0.034 A 
HETATM    2  C   UNL     1       7.180  28.413  55.582  1.00  0.00     0.030 A 
HETATM    3  C   UNL     1       7.407  27.067  55.265  1.00  0.00     0.017 A 
HETATM    4  C   UNL     1       7.778  26.152  56.256  1.00  0.00     0.010 A 
HETATM    5  C   UNL     1       7.966  26.611  57.564  1.00  0.00     0.017 A 
HETATM    6  C   UNL     1       7.737  27.959  57.877  1.00  0.00     0.030 A 
ENDROOT
BRANCH   1   7
HETATM    7  N   UNL     1       7.044  30.188  57.301  1.00  0.00    -0.327 N 
HETATM    8  C   UNL     1       5.849  30.670  57.812  1.00  0.00     0.226 C 
HETATM    9  O   UNL     1       4.782  30.063  57.863  1.00  0.00    -0.273 OA
HETATM   10  H   UNL     1       7.796  30.860  57.207  1.00  0.00     0.169 HD
BRANCH   8  11
HETATM   11  C   UNL     1       5.964  32.082  58.364  1.00  0.00     0.141 C 
BRANCH  11  12
HETATM   12  C   UNL     1       6.611  32.179  59.724  1.00  0.00    -0.049 A 
HETATM   13  C   UNL     1       8.003  32.141  59.879  1.00  0.00     0.010 A 
HETATM   14  C   UNL     1       8.590  32.297  61.140  1.00  0.00     0.037 A 
HETATM   15  C   UNL     1       7.793  32.512  62.264  1.00  0.00     0.068 A 
HETATM   16  C   UNL     1       6.406  32.567  62.112  1.00  0.00     0.037 A 
HETATM   17  C   UNL     1       5.818  32.407  60.856  1.00  0.00     0.010 A 
BRANCH  15  18
HETATM   18  O   UNL     1       8.236  32.694  63.545  1.00  0.00    -0.356 OA
HETATM   19  C   UNL     1       7.319  33.268  64.467  1.00  0.00     0.210 C 
ENDBRANCH  15  18
ENDBRANCH  11  12
ENDBRANCH   8  11
ENDBRANCH   1   7
BRANCH   4  20
HETATM   20  C   UNL     1       7.932  24.719  55.874  1.00  0.00     0.141 A 
HETATM   21  N   UNL     1       7.846  24.355  54.633  1.00  0.00    -0.230 NA
HETATM   22  C   UNL     1       7.950  22.988  54.324  1.00  0.00     0.074 A 
HETATM   23  C   UNL     1       8.133  22.008  55.301  1.00  0.00     0.061 A 
HETATM   24  C   UNL     1       7.845  22.587  52.990  1.00  0.00     0.032 A 
HETATM   25  C   UNL     1       8.224  22.458  56.698  1.00  0.00     0.259 A 
HETATM   26  C   UNL     1       8.208  20.651  54.969  1.00  0.00     0.019 A 
HETATM   27  O   UNL     1       8.363  21.678  57.632  1.00  0.00    -0.267 OA
HETATM   28  N   UNL     1       8.127  23.813  56.894  1.00  0.00    -0.307 N 
HETATM   29  H   UNL     1       8.129  24.094  57.861  1.00  0.00     0.170 HD
HETATM   30  C   UNL     1       8.099  20.266  53.634  1.00  0.00     0.001 A 
HETATM   31  C   UNL     1       7.919  21.234  52.645  1.00  0.00     0.002 A 
ENDBRANCH   4  20
TORSDOF 5
ENDMDL
MODEL 3
REMARK VINA RESULT:     -10.2      2.255     11.187
REMARK  5 active torsions:
REMARK  status: ('A' for Active; 'I' for Inactive)
REMARK    1  A    between atoms: O_2  and  C_3 
REMARK    2  A    between atoms: C_6  and  C_7 
REMARK    3  A    between atoms: C_7  and  C_8 
REMARK       I    between atoms: C_8  and  N_9 
REMARK    4  A    between atoms: N_9  and  C_10 
REMARK    5  A    between atoms: C_13  and  C_14 
ROOT
HETATM    1  C   UNL     1       7.703  29.117  56.692  1.00  0.00     0.034 A 
HETATM    2  C   UNL     1       8.501  29.138  57.836  1.00  0.00     0.030 A 
HETATM    3  C   UNL     1       8.237  30.043  58.872  1.00  0.00     0.017 A 
HETATM    4  C   UNL     1       7.166  30.938  58.784  1.00  0.00     0.010 A 
HETATM    5  C   UNL     1       6.387  30.949  57.622  1.00  0.00     0.017 A 
HETATM    6  C   UNL     1       6.655  30.041  56.587  1.00  0.00     0.030 A 
ENDROOT
BRANCH   1   7
HETATM    7  N   UNL     1       7.859  28.187  55.642  1.00  0.00    -0.327 N 
HETATM    8  C   UNL     1       6.964  27.203  55.253  1.00  0.00     0.226 C 
HETATM    9  O   UNL     1       5.940  26.876  55.846  1.00  0.00    -0.273 OA
HETATM   10  H   UNL     1       8.724  28.241  55.117  1.00  0.00     0.169 HD
BRANCH   8  11
HETATM   11  C   UNL     1       7.348  26.534  53.942  1.00  0.00     0.141 C 
BRANCH  11  12
HETATM   12  C   UNL     1       7.582  25.047  54.035  1.00  0.00    -0.049 A 
HETATM   13  C   UNL     1       7.856  24.422  55.259  1.00  0.00     0.010 A 
HETATM   14  C   UNL     1       8.007  23.032  55.337  1.00  0.00     0.037 A 
HETATM   15  C   UNL     1       7.867  22.245  54.195  1.00  0.00     0.068 A 
HETATM   16  C   UNL     1       7.579  22.861  52.976  1.00  0.00     0.037 A 
HETATM   17  C   UNL     1       7.432  24.247  52.894  1.00  0.00     0.010 A 
BRANCH  15  18
HETATM   18  O   UNL     1       7.975  20.883  54.136  1.00  0.00    -0.356 OA
HETATM   19  C   UNL     1       8.424  20.327  52.906  1.00  0.00     0.210 C 
ENDBRANCH  15  18
ENDBRANCH  11  12
ENDBRANCH   8  11
ENDBRANCH   1   7
BRANCH   4  20
HETATM   20  C   UNL     1       6.888  31.825  59.950  1.00  0.00     0.141 A 
HETATM   21  N   UNL     1       7.593  31.731  61.033  1.00  0.00    -0.230 NA
HETATM   22  C   UNL     1       7.266  32.554  62.124  1.00  0.00     0.074 A 
HETATM   23  C   UNL     1       6.205  33.462  62.089  1.00  0.00     0.061 A 
HETATM   24  C   UNL     1       8.014  32.449  63.298  1.00  0.00     0.032 A 
HETATM   25  C   UNL     1       5.425  33.539  60.845  1.00  0.00     0.259 A 
HETATM   26  C   UNL     1       5.884  34.252  63.198  1.00  0.00     0.019 A 
HETATM   27  O   UNL     1       4.463  34.287  60.718  1.00  0.00    -0.267 OA
HETATM   28  N   UNL     1       5.835  32.707  59.834  1.00  0.00    -0.307 N 
HETATM   29  H   UNL     1       5.250  32.731  59.013  1.00  0.00     0.170 HD
HETATM   30  C   UNL     1       6.638  34.133  64.364  1.00  0.00     0.001 A 
HETATM   31  C   UNL     1       7.703  33.233  64.414  1.00  0.00     0.002 A 
ENDBRANCH   4  20
TORSDOF 5
ENDMDL
MODEL 4
REMARK VINA RESULT:      -9.9      1.871      2.432
REMARK  5 active torsions:
REMARK  status: ('A' for Active; 'I' for Inactive)
REMARK    1  A    between atoms: O_2  and  C_3 
REMARK    2  A    between atoms: C_6  and  C_7 
REMARK    3  A    between atoms: C_7  and  C_8 
REMARK       I    between atoms: C_8  and  N_9 
REMARK    4  A    between atoms: N_9  and  C_10 
REMARK    5  A    between atoms: C_13  and  C_14 
ROOT
HETATM    1  C   UNL     1       6.839  28.382  57.655  1.00  0.00     0.034 A 
HETATM    2  C   UNL     1       8.127  27.849  57.660  1.00  0.00     0.030 A 
HETATM    3  C   UNL     1       8.362  26.548  57.198  1.00  0.00     0.017 A 
HETATM    4  C   UNL     1       7.312  25.760  56.717  1.00  0.00     0.010 A 
HETATM    5  C   UNL     1       6.011  26.274  56.747  1.00  0.00     0.017 A 
HETATM    6  C   UNL     1       5.781  27.578  57.211  1.00  0.00     0.030 A 
ENDROOT
BRANCH   1   7
HETATM    7  N   UNL     1       6.535  29.707  58.034  1.00  0.00    -0.327 N 
HETATM    8  C   UNL     1       7.307  30.553  58.815  1.00  0.00     0.226 C 
HETATM    9  O   UNL     1       8.322  30.248  59.433  1.00  0.00    -0.273 OA
HETATM   10  H   UNL     1       5.654  30.080  57.702  1.00  0.00     0.169 HD
BRANCH   8  11
HETATM   11  C   UNL     1       6.790  31.984  58.831  1.00  0.00     0.141 C 
BRANCH  11  12
HETATM   12  C   UNL     1       6.010  32.361  60.066  1.00  0.00    -0.049 A 
HETATM   13  C   UNL     1       6.646  32.599  61.292  1.00  0.00     0.010 A 
HETATM   14  C   UNL     1       5.914  33.011  62.412  1.00  0.00     0.037 A 
HETATM   15  C   UNL     1       4.538  33.210  62.318  1.00  0.00     0.068 A 
HETATM   16  C   UNL     1       3.901  32.989  61.095  1.00  0.00     0.037 A 
HETATM   17  C   UNL     1       4.627  32.573  59.977  1.00  0.00     0.010 A 
BRANCH  15  18
HETATM   18  O   UNL     1       3.711  33.622  63.326  1.00  0.00    -0.356 OA
HETATM   19  C   UNL     1       2.372  33.941  62.969  1.00  0.00     0.210 C 
ENDBRANCH  15  18
ENDBRANCH  11  12
ENDBRANCH   8  11
ENDBRANCH   1   7
BRANCH   4  20
HETATM   20  C   UNL     1       7.633  24.411  56.167  1.00  0.00     0.141 A 
HETATM   21  N   UNL     1       7.565  24.185  54.893  1.00  0.00    -0.230 NA
HETATM   22  C   UNL     1       7.830  22.887  54.424  1.00  0.00     0.074 A 
HETATM   23  C   UNL     1       8.156  21.831  55.278  1.00  0.00     0.061 A 
HETATM   24  C   UNL     1       7.745  22.633  53.054  1.00  0.00     0.032 A 
HETATM   25  C   UNL     1       8.221  22.125  56.718  1.00  0.00     0.259 A 
HETATM   26  C   UNL     1       8.391  20.542  54.788  1.00  0.00     0.019 A 
HETATM   27  O   UNL     1       8.478  21.265  57.552  1.00  0.00    -0.267 OA
HETATM   28  N   UNL     1       7.962  23.425  57.072  1.00  0.00    -0.307 N 
HETATM   29  H   UNL     1       7.952  23.590  58.066  1.00  0.00     0.170 HD
HETATM   30  C   UNL     1       8.299  20.304  53.418  1.00  0.00     0.001 A 
HETATM   31  C   UNL     1       7.978  21.349  52.551  1.00  0.00     0.002 A 
ENDBRANCH   4  20
TORSDOF 5
ENDMDL
MODEL 5
REMARK VINA RESULT:      -9.7      7.972     12.220
REMARK  5 active torsions:
REMARK  status: ('A' for Active; 'I' for Inactive)
REMARK    1  A    between atoms: O_2  and  C_3 
REMARK    2  A    between atoms: C_6  and  C_7 
REMARK    3  A    between atoms: C_7  and  C_8 
REMARK       I    between atoms: C_8  and  N_9 
REMARK    4  A    between atoms: N_9  and  C_10 
REMARK    5  A    between atoms: C_13  and  C_14 
ROOT
HETATM    1  C   UNL     1       4.788  26.782  49.916  1.00  0.00     0.034 A 
HETATM    2  C   UNL     1       4.169  25.969  48.967  1.00  0.00     0.030 A 
HETATM    3  C   UNL     1       3.070  26.437  48.236  1.00  0.00     0.017 A 
HETATM    4  C   UNL     1       2.577  27.730  48.436  1.00  0.00     0.010 A 
HETATM    5  C   UNL     1       3.168  28.536  49.415  1.00  0.00     0.017 A 
HETATM    6  C   UNL     1       4.268  28.063  50.145  1.00  0.00     0.030 A 
ENDROOT
BRANCH   1   7
HETATM    7  N   UNL     1       5.943  26.409  50.637  1.00  0.00    -0.327 N 
HETATM    8  C   UNL     1       6.011  25.557  51.728  1.00  0.00     0.226 C 
HETATM    9  O   UNL     1       5.059  25.091  52.348  1.00  0.00    -0.273 OA
HETATM   10  H   UNL     1       6.818  26.812  50.326  1.00  0.00     0.169 HD
BRANCH   8  11
HETATM   11  C   UNL     1       7.437  25.195  52.112  1.00  0.00     0.141 C 
BRANCH  11  12
HETATM   12  C   UNL     1       7.558  24.080  53.121  1.00  0.00    -0.049 A 
HETATM   13  C   UNL     1       7.386  24.309  54.492  1.00  0.00     0.010 A 
HETATM   14  C   UNL     1       7.437  23.252  55.409  1.00  0.00     0.037 A 
HETATM   15  C   UNL     1       7.643  21.947  54.965  1.00  0.00     0.068 A 
HETATM   16  C   UNL     1       7.800  21.711  53.598  1.00  0.00     0.037 A 
HETATM   17  C   UNL     1       7.754  22.763  52.682  1.00  0.00     0.010 A 
BRANCH  15  18
HETATM   18  O   UNL     1       7.701  20.827  55.749  1.00  0.00    -0.356 OA
HETATM   19  C   UNL     1       8.738  20.775  56.719  1.00  0.00     0.210 C 
ENDBRANCH  15  18
ENDBRANCH  11  12
ENDBRANCH   8  11
ENDBRANCH   1   7
BRANCH   4  20
HETATM   20  C   UNL     1       1.453  28.200  47.575  1.00  0.00     0.141 A 
HETATM   21  N   UNL     1       0.938  29.377  47.748  1.00  0.00    -0.230 NA
HETATM   22  C   UNL     1      -0.150  29.760  46.945  1.00  0.00     0.074 A 
HETATM   23  C   UNL     1      -0.702  28.920  45.976  1.00  0.00     0.061 A 
HETATM   24  C   UNL     1      -0.718  31.021  47.135  1.00  0.00     0.032 A 
HETATM   25  C   UNL     1      -0.093  27.591  45.810  1.00  0.00     0.259 A 
HETATM   26  C   UNL     1      -1.801  29.316  45.207  1.00  0.00     0.019 A 
HETATM   27  O   UNL     1      -0.515  26.772  45.003  1.00  0.00    -0.267 OA
HETATM   28  N   UNL     1       0.974  27.320  46.630  1.00  0.00    -0.307 N 
HETATM   29  H   UNL     1       1.336  26.384  46.543  1.00  0.00     0.170 HD
HETATM   30  C   UNL     1      -2.359  30.577  45.410  1.00  0.00     0.001 A 
HETATM   31  C   UNL     1      -1.817  31.429  46.373  1.00  0.00     0.002 A 
ENDBRANCH   4  20
TORSDOF 5
ENDMDL
MODEL 6
REMARK VINA RESULT:      -9.7      2.026     10.912
REMARK  5 active torsions:
REMARK  status: ('A' for Active; 'I' for Inactive)
REMARK    1  A    between atoms: O_2  and  C_3 
REMARK    2  A    between atoms: C_6  and  C_7 
REMARK    3  A    between atoms: C_7  and  C_8 
REMARK       I    between atoms: C_8  and  N_9 
REMARK    4  A    between atoms: N_9  and  C_10 
REMARK    5  A    between atoms: C_13  and  C_14 
ROOT
HETATM    1  C   UNL     1       6.814  29.154  56.250  1.00  0.00     0.034 A 
HETATM    2  C   UNL     1       7.723  28.730  57.219  1.00  0.00     0.030 A 
HETATM    3  C   UNL     1       7.837  29.415  58.436  1.00  0.00     0.017 A 
HETATM    4  C   UNL     1       7.039  30.531  58.706  1.00  0.00     0.010 A 
HETATM    5  C   UNL     1       6.155  30.985  57.721  1.00  0.00     0.017 A 
HETATM    6  C   UNL     1       6.043  30.296  56.505  1.00  0.00     0.030 A 
ENDROOT
BRANCH   1   7
HETATM    7  N   UNL     1       6.588  28.473  55.034  1.00  0.00    -0.327 N 
HETATM    8  C   UNL     1       7.529  28.142  54.072  1.00  0.00     0.226 C 
HETATM    9  O   UNL     1       8.700  28.510  54.042  1.00  0.00    -0.273 OA
HETATM   10  H   UNL     1       5.632  28.201  54.841  1.00  0.00     0.169 HD
BRANCH   8  11
HETATM   11  C   UNL     1       6.983  27.210  53.002  1.00  0.00     0.141 C 
BRANCH  11  12
HETATM   12  C   UNL     1       7.245  25.744  53.245  1.00  0.00    -0.049 A 
HETATM   13  C   UNL     1       7.640  24.887  52.209  1.00  0.00     0.010 A 
HETATM   14  C   UNL     1       7.941  23.544  52.465  1.00  0.00     0.037 A 
HETATM   15  C   UNL     1       7.870  23.043  53.763  1.00  0.00     0.068 A 
HETATM   16  C   UNL     1       7.492  23.896  54.801  1.00  0.00     0.037 A 
HETATM   17  C   UNL     1       7.186  25.235  54.549  1.00  0.00     0.010 A 
BRANCH  15  18
HETATM   18  O   UNL     1       8.149  21.761  54.150  1.00  0.00    -0.356 OA
HETATM   19  C   UNL     1       7.765  21.389  55.468  1.00  0.00     0.210 C 
ENDBRANCH  15  18
ENDBRANCH  11  12
ENDBRANCH   8  11
ENDBRANCH   1   7
BRANCH   4  20
HETATM   20  C   UNL     1       7.151  31.173  60.047  1.00  0.00     0.141 A 
HETATM   21  N   UNL     1       6.498  32.260  60.315  1.00  0.00    -0.230 NA
HETATM   22  C   UNL     1       6.670  32.857  61.575  1.00  0.00     0.074 A 
HETATM   23  C   UNL     1       7.524  32.329  62.546  1.00  0.00     0.061 A 
HETATM   24  C   UNL     1       5.979  34.035  61.865  1.00  0.00     0.032 A 
HETATM   25  C   UNL     1       8.251  31.097  62.207  1.00  0.00     0.259 A 
HETATM   26  C   UNL     1       7.697  32.957  63.785  1.00  0.00     0.019 A 
HETATM   27  O   UNL     1       9.039  30.565  62.979  1.00  0.00    -0.267 OA
HETATM   28  N   UNL     1       8.001  30.584  60.958  1.00  0.00    -0.307 N 
HETATM   29  H   UNL     1       8.555  29.776  60.723  1.00  0.00     0.170 HD
HETATM   30  C   UNL     1       7.002  34.134  64.058  1.00  0.00     0.001 A 
HETATM   31  C   UNL     1       6.143  34.672  63.099  1.00  0.00     0.002 A 
ENDBRANCH   4  20
TORSDOF 5
ENDMDL
MODEL 7
REMARK VINA RESULT:      -9.6      2.839      3.659
REMARK  5 active torsions:
REMARK  status: ('A' for Active; 'I' for Inactive)
REMARK    1  A    between atoms: O_2  and  C_3 
REMARK    2  A    between atoms: C_6  and  C_7 
REMARK    3  A    between atoms: C_7  and  C_8 
REMARK       I    between atoms: C_8  and  N_9 
REMARK    4  A    between atoms: N_9  and  C_10 
REMARK    5  A    between atoms: C_13  and  C_14 
ROOT
HETATM    1  C   UNL     1       7.849  30.238  58.791  1.00  0.00     0.034 A 
HETATM    2  C   UNL     1       6.685  30.737  58.205  1.00  0.00     0.030 A 
HETATM    3  C   UNL     1       6.244  30.249  56.969  1.00  0.00     0.017 A 
HETATM    4  C   UNL     1       6.956  29.247  56.301  1.00  0.00     0.010 A 
HETATM    5  C   UNL     1       8.145  28.771  56.864  1.00  0.00     0.017 A 
HETATM    6  C   UNL     1       8.583  29.263  58.102  1.00  0.00     0.030 A 
ENDROOT
BRANCH   1   7
HETATM    7  N   UNL     1       8.315  30.625  60.066  1.00  0.00    -0.327 N 
HETATM    8  C   UNL     1       8.941  31.814  60.404  1.00  0.00     0.226 C 
HETATM    9  O   UNL     1       9.329  32.679  59.624  1.00  0.00    -0.273 OA
HETATM   10  H   UNL     1       8.181  29.958  60.816  1.00  0.00     0.169 HD
BRANCH   8  11
HETATM   11  C   UNL     1       9.099  31.997  61.905  1.00  0.00     0.141 C 
BRANCH  11  12
HETATM   12  C   UNL     1       7.931  32.663  62.589  1.00  0.00    -0.049 A 
HETATM   13  C   UNL     1       7.921  32.890  63.971  1.00  0.00     0.010 A 
HETATM   14  C   UNL     1       6.857  33.567  64.580  1.00  0.00     0.037 A 
HETATM   15  C   UNL     1       5.796  34.043  63.812  1.00  0.00     0.068 A 
HETATM   16  C   UNL     1       5.809  33.834  62.432  1.00  0.00     0.037 A 
HETATM   17  C   UNL     1       6.866  33.155  61.822  1.00  0.00     0.010 A 
BRANCH  15  18
HETATM   18  O   UNL     1       4.708  34.729  64.276  1.00  0.00    -0.356 OA
HETATM   19  C   UNL     1       4.891  36.110  64.560  1.00  0.00     0.210 C 
ENDBRANCH  15  18
ENDBRANCH  11  12
ENDBRANCH   8  11
ENDBRANCH   1   7
BRANCH   4  20
HETATM   20  C   UNL     1       6.398  28.713  55.025  1.00  0.00     0.141 A 
HETATM   21  N   UNL     1       6.828  27.594  54.534  1.00  0.00    -0.230 NA
HETATM   22  C   UNL     1       6.308  27.152  53.306  1.00  0.00     0.074 A 
HETATM   23  C   UNL     1       5.352  27.877  52.590  1.00  0.00     0.061 A 
HETATM   24  C   UNL     1       6.777  25.954  52.765  1.00  0.00     0.032 A 
HETATM   25  C   UNL     1       4.889  29.143  53.177  1.00  0.00     0.259 A 
HETATM   26  C   UNL     1       4.868  27.427  51.357  1.00  0.00     0.019 A 
HETATM   27  O   UNL     1       4.069  29.864  52.620  1.00  0.00    -0.267 OA
HETATM   28  N   UNL     1       5.445  29.478  54.386  1.00  0.00    -0.307 N 
HETATM   29  H   UNL     1       5.161  30.377  54.740  1.00  0.00     0.170 HD
HETATM   30  C   UNL     1       5.349  26.230  50.829  1.00  0.00     0.001 A 
HETATM   31  C   UNL     1       6.302  25.493  51.533  1.00  0.00     0.002 A 
ENDBRANCH   4  20
TORSDOF 5
ENDMDL
MODEL 8
REMARK VINA RESULT:      -9.4      7.204     11.139
REMARK  5 active torsions:
REMARK  status: ('A' for Active; 'I' for Inactive)
REMARK    1  A    between atoms: O_2  and  C_3 
REMARK    2  A    between atoms: C_6  and  C_7 
REMARK    3  A    between atoms: C_7  and  C_8 
REMARK       I    between atoms: C_8  and  N_9 
REMARK    4  A    between atoms: N_9  and  C_10 
REMARK    5  A    between atoms: C_13  and  C_14 
ROOT
HETATM    1  C   UNL     1       4.952  27.652  50.740  1.00  0.00     0.034 A 
HETATM    2  C   UNL     1       5.662  27.990  51.892  1.00  0.00     0.030 A 
HETATM    3  C   UNL     1       6.142  26.993  52.752  1.00  0.00     0.017 A 
HETATM    4  C   UNL     1       5.925  25.641  52.469  1.00  0.00     0.010 A 
HETATM    5  C   UNL     1       5.178  25.297  51.336  1.00  0.00     0.017 A 
HETATM    6  C   UNL     1       4.700  26.299  50.479  1.00  0.00     0.030 A 
ENDROOT
BRANCH   1   7
HETATM    7  N   UNL     1       4.503  28.594  49.790  1.00  0.00    -0.327 N 
HETATM    8  C   UNL     1       4.797  28.624  48.436  1.00  0.00     0.226 C 
HETATM    9  O   UNL     1       5.615  27.918  47.853  1.00  0.00    -0.273 OA
HETATM   10  H   UNL     1       3.904  29.334  50.137  1.00  0.00     0.169 HD
BRANCH   8  11
HETATM   11  C   UNL     1       3.962  29.637  47.668  1.00  0.00     0.141 C 
BRANCH  11  12
HETATM   12  C   UNL     1       2.612  29.134  47.219  1.00  0.00    -0.049 A 
HETATM   13  C   UNL     1       2.313  27.766  47.182  1.00  0.00     0.010 A 
HETATM   14  C   UNL     1       1.035  27.320  46.824  1.00  0.00     0.037 A 
HETATM   15  C   UNL     1       0.031  28.237  46.516  1.00  0.00     0.068 A 
HETATM   16  C   UNL     1       0.320  29.602  46.567  1.00  0.00     0.037 A 
HETATM   17  C   UNL     1       1.594  30.050  46.919  1.00  0.00     0.010 A 
BRANCH  15  18
HETATM   18  O   UNL     1      -1.257  27.937  46.167  1.00  0.00    -0.356 OA
HETATM   19  C   UNL     1      -2.127  29.034  45.918  1.00  0.00     0.210 C 
ENDBRANCH  15  18
ENDBRANCH  11  12
ENDBRANCH   8  11
ENDBRANCH   1   7
BRANCH   4  20
HETATM   20  C   UNL     1       6.524  24.623  53.379  1.00  0.00     0.141 A 
HETATM   21  N   UNL     1       6.992  23.510  52.907  1.00  0.00    -0.230 NA
HETATM   22  C   UNL     1       7.504  22.560  53.806  1.00  0.00     0.074 A 
HETATM   23  C   UNL     1       7.521  22.763  55.187  1.00  0.00     0.061 A 
HETATM   24  C   UNL     1       7.998  21.353  53.305  1.00  0.00     0.032 A 
HETATM   25  C   UNL     1       6.979  24.036  55.687  1.00  0.00     0.259 A 
HETATM   26  C   UNL     1       8.013  21.790  56.063  1.00  0.00     0.019 A 
HETATM   27  O   UNL     1       6.928  24.305  56.881  1.00  0.00    -0.267 OA
HETATM   28  N   UNL     1       6.518  24.904  54.729  1.00  0.00    -0.307 N 
HETATM   29  H   UNL     1       6.096  25.742  55.095  1.00  0.00     0.170 HD
HETATM   30  C   UNL     1       8.500  20.590  55.548  1.00  0.00     0.001 A 
HETATM   31  C   UNL     1       8.493  20.372  54.170  1.00  0.00     0.002 A 
ENDBRANCH   4  20
TORSDOF 5
ENDMDL
MODEL 9
REMARK VINA RESULT:      -9.3      2.761      3.511
REMARK  5 active torsions:
REMARK  status: ('A' for Active; 'I' for Inactive)
REMARK    1  A    between atoms: O_2  and  C_3 
REMARK    2  A    between atoms: C_6  and  C_7 
REMARK    3  A    between atoms: C_7  and  C_8 
REMARK       I    between atoms: C_8  and  N_9 
REMARK    4  A    between atoms: N_9  and  C_10 
REMARK    5  A    between atoms: C_13  and  C_14 
ROOT
HETATM    1  C   UNL     1       6.701  29.034  57.710  1.00  0.00     0.034 A 
HETATM    2  C   UNL     1       5.788  28.647  56.729  1.00  0.00     0.030 A 
HETATM    3  C   UNL     1       6.034  27.523  55.931  1.00  0.00     0.017 A 
HETATM    4  C   UNL     1       7.195  26.762  56.105  1.00  0.00     0.010 A 
HETATM    5  C   UNL     1       8.133  27.169  57.059  1.00  0.00     0.017 A 
HETATM    6  C   UNL     1       7.883  28.295  57.857  1.00  0.00     0.030 A 
ENDROOT
BRANCH   1   7
HETATM    7  N   UNL     1       6.488  30.107  58.601  1.00  0.00    -0.327 N 
HETATM    8  C   UNL     1       7.249  31.259  58.723  1.00  0.00     0.226 C 
HETATM    9  O   UNL     1       8.325  31.482  58.175  1.00  0.00    -0.273 OA
HETATM   10  H   UNL     1       5.694  30.025  59.225  1.00  0.00     0.169 HD
BRANCH   8  11
HETATM   11  C   UNL     1       6.604  32.307  59.617  1.00  0.00     0.141 C 
BRANCH  11  12
HETATM   12  C   UNL     1       5.410  33.005  59.015  1.00  0.00    -0.049 A 
HETATM   13  C   UNL     1       5.087  32.869  57.659  1.00  0.00     0.010 A 
HETATM   14  C   UNL     1       3.939  33.472  57.130  1.00  0.00     0.037 A 
HETATM   15  C   UNL     1       3.087  34.204  57.955  1.00  0.00     0.068 A 
HETATM   16  C   UNL     1       3.396  34.330  59.310  1.00  0.00     0.037 A 
HETATM   17  C   UNL     1       4.543  33.734  59.840  1.00  0.00     0.010 A 
BRANCH  15  18
HETATM   18  O   UNL     1       1.933  34.829  57.572  1.00  0.00    -0.356 OA
HETATM   19  C   UNL     1       1.269  35.612  58.555  1.00  0.00     0.210 C 
ENDBRANCH  15  18
ENDBRANCH  11  12
ENDBRANCH   8  11
ENDBRANCH   1   7
BRANCH   4  20
HETATM   20  C   UNL     1       7.366  25.533  55.278  1.00  0.00     0.141 A 
HETATM   21  N   UNL     1       7.378  24.362  55.832  1.00  0.00    -0.230 NA
HETATM   22  C   UNL     1       7.589  23.235  55.020  1.00  0.00     0.074 A 
HETATM   23  C   UNL     1       7.796  23.328  53.643  1.00  0.00     0.061 A 
HETATM   24  C   UNL     1       7.616  21.971  55.614  1.00  0.00     0.032 A 
HETATM   25  C   UNL     1       7.778  24.674  53.049  1.00  0.00     0.259 A 
HETATM   26  C   UNL     1       8.029  22.192  52.861  1.00  0.00     0.019 A 
HETATM   27  O   UNL     1       7.969  24.867  51.854  1.00  0.00    -0.267 OA
HETATM   28  N   UNL     1       7.548  25.706  53.923  1.00  0.00    -0.307 N 
HETATM   29  H   UNL     1       7.601  26.622  53.507  1.00  0.00     0.170 HD
HETATM   30  C   UNL     1       8.056  20.938  53.467  1.00  0.00     0.001 A 
HETATM   31  C   UNL     1       7.849  20.827  54.843  1.00  0.00     0.002 A 
ENDBRANCH   4  20
TORSDOF 5
ENDMDL
MODEL 10
REMARK VINA RESULT:      -9.0      2.699     11.181
REMARK  5 active torsions:
REMARK  status: ('A' for Active; 'I' for Inactive)
REMARK    1  A    between atoms: O_2  and  C_3 
REMARK    2  A    between atoms: C_6  and  C_7 
REMARK    3  A    between atoms: C_7  and  C_8 
REMARK       I    between atoms: C_8  and  N_9 
REMARK    4  A    between atoms: N_9  and  C_10 
REMARK    5  A    between atoms: C_13  and  C_14 
ROOT
HETATM    1  C   UNL     1       6.863  28.628  56.002  1.00  0.00     0.034 A 
HETATM    2  C   UNL     1       5.709  29.366  55.738  1.00  0.00     0.030 A 
HETATM    3  C   UNL     1       5.288  30.369  56.620  1.00  0.00     0.017 A 
HETATM    4  C   UNL     1       6.019  30.656  57.777  1.00  0.00     0.010 A 
HETATM    5  C   UNL     1       7.154  29.892  58.068  1.00  0.00     0.017 A 
HETATM    6  C   UNL     1       7.572  28.888  57.182  1.00  0.00     0.030 A 
ENDROOT
BRANCH   1   7
HETATM    7  N   UNL     1       7.390  27.655  55.126  1.00  0.00    -0.327 N 
HETATM    8  C   UNL     1       6.715  26.590  54.551  1.00  0.00     0.226 C 
HETATM    9  O   UNL     1       5.573  26.224  54.816  1.00  0.00    -0.273 OA
HETATM   10  H   UNL     1       8.373  27.741  54.896  1.00  0.00     0.169 HD
BRANCH   8  11
HETATM   11  C   UNL     1       7.527  25.879  53.480  1.00  0.00     0.141 C 
BRANCH  11  12
HETATM   12  C   UNL     1       7.800  24.421  53.756  1.00  0.00    -0.049 A 
HETATM   13  C   UNL     1       7.718  23.454  52.745  1.00  0.00     0.010 A 
HETATM   14  C   UNL     1       8.037  22.116  53.004  1.00  0.00     0.037 A 
HETATM   15  C   UNL     1       8.460  21.728  54.274  1.00  0.00     0.068 A 
HETATM   16  C   UNL     1       8.559  22.690  55.280  1.00  0.00     0.037 A 
HETATM   17  C   UNL     1       8.237  24.024  55.027  1.00  0.00     0.010 A 
BRANCH  15  18
HETATM   18  O   UNL     1       8.814  20.463  54.655  1.00  0.00    -0.356 OA
HETATM   19  C   UNL     1       8.844  20.197  56.051  1.00  0.00     0.210 C 
ENDBRANCH  15  18
ENDBRANCH  11  12
ENDBRANCH   8  11
ENDBRANCH   1   7
BRANCH   4  20
HETATM   20  C   UNL     1       5.564  31.786  58.639  1.00  0.00     0.141 A 
HETATM   21  N   UNL     1       6.207  32.087  59.724  1.00  0.00    -0.230 NA
HETATM   22  C   UNL     1       5.716  33.128  60.529  1.00  0.00     0.074 A 
HETATM   23  C   UNL     1       4.560  33.844  60.211  1.00  0.00     0.061 A 
HETATM   24  C   UNL     1       6.395  33.450  61.706  1.00  0.00     0.032 A 
HETATM   25  C   UNL     1       3.856  33.472  58.975  1.00  0.00     0.259 A 
HETATM   26  C   UNL     1       4.078  34.860  61.044  1.00  0.00     0.019 A 
HETATM   27  O   UNL     1       2.822  34.023  58.616  1.00  0.00    -0.267 OA
HETATM   28  N   UNL     1       4.424  32.455  58.250  1.00  0.00    -0.307 N 
HETATM   29  H   UNL     1       3.894  32.175  57.440  1.00  0.00     0.170 HD
HETATM   30  C   UNL     1       4.765  35.167  62.217  1.00  0.00     0.001 A 
HETATM   31  C   UNL     1       5.924  34.463  62.547  1.00  0.00     0.002 A 
ENDBRANCH   4  20
TORSDOF 5
ENDMDL
