MODEL 1
REMARK VINA RESULT:      -9.1      0.000      0.000
REMARK  5 active torsions:
REMARK  status: ('A' for Active; 'I' for Inactive)
REMARK    1  A    between atoms: O_2  and  C_3 
REMARK    2  A    between atoms: C_6  and  N_7 
REMARK       I    between atoms: N_7  and  C_8 
REMARK    3  A    between atoms: C_8  and  C_9 
REMARK    4  A    between atoms: C_9  and  N_10 
REMARK    5  A    between atoms: N_10  and  C_11 
ROOT
HETATM    1  C   UNL     1       6.537  26.520  52.741  1.00  0.00     0.195 C 
ENDROOT
BRANCH   1   2
HETATM    2  C   UNL     1       5.327  26.108  53.576  1.00  0.00     0.235 C 
HETATM    3  N   UNL     1       5.112  26.569  54.843  1.00  0.00    -0.326 N 
HETATM    4  H   UNL     1       4.198  26.278  55.173  1.00  0.00     0.169 HD
HETATM    5  O   UNL     1       4.484  25.336  53.101  1.00  0.00    -0.272 OA
BRANCH   3   6
HETATM    6  C   UNL     1       5.876  27.326  55.749  1.00  0.00     0.034 A 
HETATM    7  C   UNL     1       6.028  28.710  55.723  1.00  0.00     0.032 A 
HETATM    8  C   UNL     1       6.807  29.369  56.687  1.00  0.00     0.039 A 
HETATM    9  C   UNL     1       7.460  28.648  57.683  1.00  0.00     0.068 A 
HETATM   10  C   UNL     1       7.349  27.259  57.687  1.00  0.00     0.039 A 
HETATM   11  C   UNL     1       6.569  26.604  56.729  1.00  0.00     0.032 A 
BRANCH   9  12
HETATM   12  O   UNL     1       8.237  29.169  58.678  1.00  0.00    -0.356 OA
HETATM   13  C   UNL     1       9.106  30.235  58.316  1.00  0.00     0.210 C 
ENDBRANCH   9  12
ENDBRANCH   3   6
ENDBRANCH   1   2
BRANCH   1  14
HETATM   14  N   UNL     1       7.744  25.882  53.273  1.00  0.00    -0.284 NA
HETATM   15  H   UNL     1       8.155  26.430  54.030  1.00  0.00     0.128 HD
BRANCH  14  16
HETATM   16  C   UNL     1       7.765  24.513  53.549  1.00  0.00     0.009 A 
HETATM   17  C   UNL     1       7.993  24.109  54.874  1.00  0.00     0.035 A 
HETATM   18  C   UNL     1       8.127  22.756  55.233  1.00  0.00    -0.024 A 
HETATM   19  C   UNL     1       8.058  21.768  54.229  1.00  0.00    -0.026 A 
HETATM   20  C   UNL     1       8.338  22.365  56.566  1.00  0.00     0.012 A 
HETATM   21  C   UNL     1       7.862  22.167  52.899  1.00  0.00     0.014 A 
HETATM   22  C   UNL     1       8.198  20.416  54.580  1.00  0.00     0.012 A 
HETATM   23  C   UNL     1       7.733  23.522  52.567  1.00  0.00     0.024 A 
HETATM   24  C   UNL     1       8.405  20.043  55.910  1.00  0.00     0.001 A 
HETATM   25  C   UNL     1       8.475  21.017  56.902  1.00  0.00     0.001 A 
ENDBRANCH  14  16
ENDBRANCH   1  14
TORSDOF 5
ENDMDL
MODEL 2
REMARK VINA RESULT:      -8.9      1.671      2.329
REMARK  5 active torsions:
REMARK  status: ('A' for Active; 'I' for Inactive)
REMARK    1  A    between atoms: O_2  and  C_3 
REMARK    2  A    between atoms: C_6  and  N_7 
REMARK       I    between atoms: N_7  and  C_8 
REMARK    3  A    between atoms: C_8  and  C_9 
REMARK    4  A    between atoms: C_9  and  N_10 
REMARK    5  A    between atoms: N_10  and  C_11 
ROOT
HETATM    1  C   UNL     1       5.537  25.818  51.582  1.00  0.00     0.195 C 
ENDROOT
BRANCH   1   2
HETATM    2  C   UNL     1       5.601  27.316  51.290  1.00  0.00     0.235 C 
HETATM    3  N   UNL     1       5.921  28.241  52.240  1.00  0.00    -0.326 N 
HETATM    4  H   UNL     1       6.031  29.156  51.818  1.00  0.00     0.169 HD
HETATM    5  O   UNL     1       5.373  27.731  50.146  1.00  0.00    -0.272 OA
BRANCH   3   6
HETATM    6  C   UNL     1       6.110  28.185  53.633  1.00  0.00     0.034 A 
HETATM    7  C   UNL     1       5.095  28.148  54.588  1.00  0.00     0.032 A 
HETATM    8  C   UNL     1       5.395  28.080  55.958  1.00  0.00     0.039 A 
HETATM    9  C   UNL     1       6.718  28.064  56.392  1.00  0.00     0.068 A 
HETATM   10  C   UNL     1       7.737  28.147  55.445  1.00  0.00     0.039 A 
HETATM   11  C   UNL     1       7.436  28.210  54.081  1.00  0.00     0.032 A 
BRANCH   9  12
HETATM   12  O   UNL     1       7.139  27.992  57.690  1.00  0.00    -0.356 OA
HETATM   13  C   UNL     1       7.857  29.113  58.191  1.00  0.00     0.210 C 
ENDBRANCH   9  12
ENDBRANCH   3   6
ENDBRANCH   1   2
BRANCH   1  14
HETATM   14  N   UNL     1       6.891  25.296  51.779  1.00  0.00    -0.284 NA
HETATM   15  H   UNL     1       7.594  26.028  51.680  1.00  0.00     0.128 HD
BRANCH  14  16
HETATM   16  C   UNL     1       7.177  24.438  52.843  1.00  0.00     0.009 A 
HETATM   17  C   UNL     1       7.723  23.178  52.548  1.00  0.00     0.035 A 
HETATM   18  C   UNL     1       7.955  22.210  53.542  1.00  0.00    -0.024 A 
HETATM   19  C   UNL     1       7.606  22.499  54.877  1.00  0.00    -0.026 A 
HETATM   20  C   UNL     1       8.518  20.960  53.235  1.00  0.00     0.012 A 
HETATM   21  C   UNL     1       7.032  23.742  55.173  1.00  0.00     0.014 A 
HETATM   22  C   UNL     1       7.829  21.533  55.873  1.00  0.00     0.012 A 
HETATM   23  C   UNL     1       6.809  24.690  54.166  1.00  0.00     0.024 A 
HETATM   24  C   UNL     1       8.391  20.296  55.552  1.00  0.00     0.001 A 
HETATM   25  C   UNL     1       8.735  20.009  54.234  1.00  0.00     0.001 A 
ENDBRANCH  14  16
ENDBRANCH   1  14
TORSDOF 5
ENDMDL
MODEL 3
REMARK VINA RESULT:      -8.8      2.417      4.992
REMARK  5 active torsions:
REMARK  status: ('A' for Active; 'I' for Inactive)
REMARK    1  A    between atoms: O_2  and  C_3 
REMARK    2  A    between atoms: C_6  and  N_7 
REMARK       I    between atoms: N_7  and  C_8 
REMARK    3  A    between atoms: C_8  and  C_9 
REMARK    4  A    between atoms: C_9  and  N_10 
REMARK    5  A    between atoms: N_10  and  C_11 
ROOT
HETATM    1  C   UNL     1       6.777  27.632  54.930  1.00  0.00     0.195 C 
ENDROOT
BRANCH   1   2
HETATM    2  C   UNL     1       5.269  27.484  55.116  1.00  0.00     0.235 C 
HETATM    3  N   UNL     1       4.421  27.205  54.084  1.00  0.00    -0.326 N 
HETATM    4  H   UNL     1       3.487  27.026  54.434  1.00  0.00     0.169 HD
HETATM    5  O   UNL     1       4.771  27.603  56.244  1.00  0.00    -0.272 OA
BRANCH   3   6
HETATM    6  C   UNL     1       4.574  27.132  52.688  1.00  0.00     0.034 A 
HETATM    7  C   UNL     1       4.979  26.005  51.975  1.00  0.00     0.032 A 
HETATM    8  C   UNL     1       5.088  26.037  50.575  1.00  0.00     0.039 A 
HETATM    9  C   UNL     1       4.808  27.205  49.870  1.00  0.00     0.068 A 
HETATM   10  C   UNL     1       4.447  28.348  50.581  1.00  0.00     0.039 A 
HETATM   11  C   UNL     1       4.334  28.313  51.975  1.00  0.00     0.032 A 
BRANCH   9  12
HETATM   12  O   UNL     1       4.869  27.362  48.515  1.00  0.00    -0.356 OA
HETATM   13  C   UNL     1       3.723  26.961  47.774  1.00  0.00     0.210 C 
ENDBRANCH   9  12
ENDBRANCH   3   6
ENDBRANCH   1   2
BRANCH   1  14
HETATM   14  N   UNL     1       7.461  26.475  55.514  1.00  0.00    -0.284 NA
HETATM   15  H   UNL     1       7.183  26.325  56.484  1.00  0.00     0.128 HD
BRANCH  14  16
HETATM   16  C   UNL     1       7.561  25.274  54.808  1.00  0.00     0.009 A 
HETATM   17  C   UNL     1       7.562  24.075  55.539  1.00  0.00     0.035 A 
HETATM   18  C   UNL     1       7.754  22.824  54.926  1.00  0.00    -0.024 A 
HETATM   19  C   UNL     1       7.981  22.767  53.536  1.00  0.00    -0.026 A 
HETATM   20  C   UNL     1       7.735  21.631  55.668  1.00  0.00     0.012 A 
HETATM   21  C   UNL     1       8.012  23.962  52.805  1.00  0.00     0.014 A 
HETATM   22  C   UNL     1       8.180  21.520  52.920  1.00  0.00     0.012 A 
HETATM   23  C   UNL     1       7.819  25.197  53.438  1.00  0.00     0.024 A 
HETATM   24  C   UNL     1       8.157  20.343  53.671  1.00  0.00     0.001 A 
HETATM   25  C   UNL     1       7.935  20.398  55.044  1.00  0.00     0.001 A 
ENDBRANCH  14  16
ENDBRANCH   1  14
TORSDOF 5
ENDMDL
MODEL 4
REMARK VINA RESULT:      -8.8      1.529      2.026
REMARK  5 active torsions:
REMARK  status: ('A' for Active; 'I' for Inactive)
REMARK    1  A    between atoms: O_2  and  C_3 
REMARK    2  A    between atoms: C_6  and  N_7 
REMARK       I    between atoms: N_7  and  C_8 
REMARK    3  A    between atoms: C_8  and  C_9 
REMARK    4  A    between atoms: C_9  and  N_10 
REMARK    5  A    between atoms: N_10  and  C_11 
ROOT
HETATM    1  C   UNL     1       5.694  26.794  54.827  1.00  0.00     0.195 C 
ENDROOT
BRANCH   1   2
HETATM    2  C   UNL     1       6.194  28.005  54.041  1.00  0.00     0.235 C 
HETATM    3  N   UNL     1       6.926  29.005  54.612  1.00  0.00    -0.326 N 
HETATM    4  H   UNL     1       7.263  29.645  53.901  1.00  0.00     0.169 HD
HETATM    5  O   UNL     1       5.952  28.097  52.830  1.00  0.00    -0.272 OA
BRANCH   3   6
HETATM    6  C   UNL     1       7.281  29.321  55.936  1.00  0.00     0.034 A 
HETATM    7  C   UNL     1       6.450  29.926  56.876  1.00  0.00     0.032 A 
HETATM    8  C   UNL     1       6.903  30.187  58.179  1.00  0.00     0.039 A 
HETATM    9  C   UNL     1       8.204  29.859  58.554  1.00  0.00     0.068 A 
HETATM   10  C   UNL     1       9.055  29.297  57.605  1.00  0.00     0.039 A 
HETATM   11  C   UNL     1       8.600  29.034  56.309  1.00  0.00     0.032 A 
BRANCH   9  12
HETATM   12  O   UNL     1       8.759  30.054  59.787  1.00  0.00    -0.356 OA
HETATM   13  C   UNL     1       8.156  31.044  60.610  1.00  0.00     0.210 C 
ENDBRANCH   9  12
ENDBRANCH   3   6
ENDBRANCH   1   2
BRANCH   1  14
HETATM   14  N   UNL     1       6.834  25.994  55.279  1.00  0.00    -0.284 NA
HETATM   15  H   UNL     1       6.862  25.922  56.297  1.00  0.00     0.128 HD
BRANCH  14  16
HETATM   16  C   UNL     1       7.144  24.781  54.662  1.00  0.00     0.009 A 
HETATM   17  C   UNL     1       7.377  23.663  55.480  1.00  0.00     0.035 A 
HETATM   18  C   UNL     1       7.787  22.424  54.957  1.00  0.00    -0.024 A 
HETATM   19  C   UNL     1       8.000  22.300  53.569  1.00  0.00    -0.026 A 
HETATM   20  C   UNL     1       8.000  21.309  55.786  1.00  0.00     0.012 A 
HETATM   21  C   UNL     1       7.800  23.420  52.750  1.00  0.00     0.014 A 
HETATM   22  C   UNL     1       8.417  21.066  53.042  1.00  0.00     0.012 A 
HETATM   23  C   UNL     1       7.392  24.645  53.295  1.00  0.00     0.024 A 
HETATM   24  C   UNL     1       8.622  19.968  53.879  1.00  0.00     0.001 A 
HETATM   25  C   UNL     1       8.414  20.089  55.249  1.00  0.00     0.001 A 
ENDBRANCH  14  16
ENDBRANCH   1  14
TORSDOF 5
ENDMDL
MODEL 5
REMARK VINA RESULT:      -8.7      1.511      2.472
REMARK  5 active torsions:
REMARK  status: ('A' for Active; 'I' for Inactive)
REMARK    1  A    between atoms: O_2  and  C_3 
REMARK    2  A    between atoms: C_6  and  N_7 
REMARK       I    between atoms: N_7  and  C_8 
REMARK    3  A    between atoms: C_8  and  C_9 
REMARK    4  A    between atoms: C_9  and  N_10 
REMARK    5  A    between atoms: N_10  and  C_11 
ROOT
HETATM    1  C   UNL     1       5.761  26.844  54.619  1.00  0.00     0.195 C 
ENDROOT
BRANCH   1   2
HETATM    2  C   UNL     1       5.606  28.301  54.189  1.00  0.00     0.235 C 
HETATM    3  N   UNL     1       6.235  29.331  54.826  1.00  0.00    -0.326 N 
HETATM    4  H   UNL     1       6.103  30.196  54.314  1.00  0.00     0.169 HD
HETATM    5  O   UNL     1       4.898  28.585  53.213  1.00  0.00    -0.272 OA
BRANCH   3   6
HETATM    6  C   UNL     1       6.989  29.431  56.010  1.00  0.00     0.034 A 
HETATM    7  C   UNL     1       8.259  28.893  56.210  1.00  0.00     0.032 A 
HETATM    8  C   UNL     1       8.930  29.063  57.431  1.00  0.00     0.039 A 
HETATM    9  C   UNL     1       8.332  29.761  58.476  1.00  0.00     0.068 A 
HETATM   10  C   UNL     1       7.044  30.262  58.298  1.00  0.00     0.039 A 
HETATM   11  C   UNL     1       6.378  30.096  57.080  1.00  0.00     0.032 A 
BRANCH   9  12
HETATM   12  O   UNL     1       8.881  30.000  59.704  1.00  0.00    -0.356 OA
HETATM   13  C   UNL     1       8.207  30.939  60.533  1.00  0.00     0.210 C 
ENDBRANCH   9  12
ENDBRANCH   3   6
ENDBRANCH   1   2
BRANCH   1  14
HETATM   14  N   UNL     1       6.970  26.278  54.016  1.00  0.00    -0.284 NA
HETATM   15  H   UNL     1       7.705  26.979  53.921  1.00  0.00     0.128 HD
BRANCH  14  16
HETATM   16  C   UNL     1       7.474  25.049  54.448  1.00  0.00     0.009 A 
HETATM   17  C   UNL     1       7.507  23.988  53.529  1.00  0.00     0.035 A 
HETATM   18  C   UNL     1       7.906  22.690  53.895  1.00  0.00    -0.024 A 
HETATM   19  C   UNL     1       8.260  22.433  55.235  1.00  0.00    -0.026 A 
HETATM   20  C   UNL     1       7.950  21.642  52.960  1.00  0.00     0.012 A 
HETATM   21  C   UNL     1       8.199  23.480  56.165  1.00  0.00     0.014 A 
HETATM   22  C   UNL     1       8.653  21.137  55.608  1.00  0.00     0.012 A 
HETATM   23  C   UNL     1       7.797  24.764  55.776  1.00  0.00     0.024 A 
HETATM   24  C   UNL     1       8.694  20.107  54.667  1.00  0.00     0.001 A 
HETATM   25  C   UNL     1       8.343  20.359  53.344  1.00  0.00     0.001 A 
ENDBRANCH  14  16
ENDBRANCH   1  14
TORSDOF 5
ENDMDL
MODEL 6
REMARK VINA RESULT:      -8.5      1.873      2.399
REMARK  5 active torsions:
REMARK  status: ('A' for Active; 'I' for Inactive)
REMARK    1  A    between atoms: O_2  and  C_3 
REMARK    2  A    between atoms: C_6  and  N_7 
REMARK       I    between atoms: N_7  and  C_8 
REMARK    3  A    between atoms: C_8  and  C_9 
REMARK    4  A    between atoms: C_9  and  N_10 
REMARK    5  A    between atoms: N_10  and  C_11 
ROOT
HETATM    1  C   UNL     1       4.002  27.608  53.584  1.00  0.00     0.195 C 
ENDROOT
BRANCH   1   2
HETATM    2  C   UNL     1       5.131  28.337  52.858  1.00  0.00     0.235 C 
HETATM    3  N   UNL     1       6.243  28.801  53.499  1.00  0.00    -0.326 N 
HETATM    4  H   UNL     1       6.922  29.140  52.827  1.00  0.00     0.169 HD
HETATM    5  O   UNL     1       5.065  28.514  51.634  1.00  0.00    -0.272 OA
BRANCH   3   6
HETATM    6  C   UNL     1       6.616  28.910  54.851  1.00  0.00     0.034 A 
HETATM    7  C   UNL     1       5.986  29.708  55.804  1.00  0.00     0.032 A 
HETATM    8  C   UNL     1       6.434  29.733  57.134  1.00  0.00     0.039 A 
HETATM    9  C   UNL     1       7.532  28.971  57.526  1.00  0.00     0.068 A 
HETATM   10  C   UNL     1       8.194  28.207  56.568  1.00  0.00     0.039 A 
HETATM   11  C   UNL     1       7.744  28.179  55.244  1.00  0.00     0.032 A 
BRANCH   9  12
HETATM   12  O   UNL     1       8.058  28.904  58.785  1.00  0.00    -0.356 OA
HETATM   13  C   UNL     1       8.385  30.140  59.407  1.00  0.00     0.210 C 
ENDBRANCH   9  12
ENDBRANCH   3   6
ENDBRANCH   1   2
BRANCH   1  14
HETATM   14  N   UNL     1       3.992  26.197  53.188  1.00  0.00    -0.284 NA
HETATM   15  H   UNL     1       3.693  26.081  52.220  1.00  0.00     0.128 HD
BRANCH  14  16
HETATM   16  C   UNL     1       5.063  25.360  53.507  1.00  0.00     0.009 A 
HETATM   17  C   UNL     1       5.525  25.354  54.834  1.00  0.00     0.035 A 
HETATM   18  C   UNL     1       6.656  24.618  55.230  1.00  0.00    -0.024 A 
HETATM   19  C   UNL     1       7.371  23.881  54.264  1.00  0.00    -0.026 A 
HETATM   20  C   UNL     1       7.096  24.607  56.565  1.00  0.00     0.012 A 
HETATM   21  C   UNL     1       6.934  23.908  52.933  1.00  0.00     0.014 A 
HETATM   22  C   UNL     1       8.505  23.150  54.653  1.00  0.00     0.012 A 
HETATM   23  C   UNL     1       5.804  24.650  52.561  1.00  0.00     0.024 A 
HETATM   24  C   UNL     1       8.929  23.148  55.983  1.00  0.00     0.001 A 
HETATM   25  C   UNL     1       8.225  23.876  56.938  1.00  0.00     0.001 A 
ENDBRANCH  14  16
ENDBRANCH   1  14
TORSDOF 5
ENDMDL
MODEL 7
REMARK VINA RESULT:      -8.4      2.111      2.923
REMARK  5 active torsions:
REMARK  status: ('A' for Active; 'I' for Inactive)
REMARK    1  A    between atoms: O_2  and  C_3 
REMARK    2  A    between atoms: C_6  and  N_7 
REMARK       I    between atoms: N_7  and  C_8 
REMARK    3  A    between atoms: C_8  and  C_9 
REMARK    4  A    between atoms: C_9  and  N_10 
REMARK    5  A    between atoms: N_10  and  C_11 
ROOT
HETATM    1  C   UNL     1       6.321  26.094  51.899  1.00  0.00     0.195 C 
ENDROOT
BRANCH   1   2
HETATM    2  C   UNL     1       4.967  25.651  52.450  1.00  0.00     0.235 C 
HETATM    3  N   UNL     1       4.150  26.482  53.161  1.00  0.00    -0.326 N 
HETATM    4  H   UNL     1       3.254  26.039  53.325  1.00  0.00     0.169 HD
HETATM    5  O   UNL     1       4.564  24.498  52.245  1.00  0.00    -0.272 OA
BRANCH   3   6
HETATM    6  C   UNL     1       4.301  27.773  53.698  1.00  0.00     0.034 A 
HETATM    7  C   UNL     1       3.970  28.963  53.053  1.00  0.00     0.032 A 
HETATM    8  C   UNL     1       4.150  30.203  53.688  1.00  0.00     0.039 A 
HETATM    9  C   UNL     1       4.681  30.268  54.974  1.00  0.00     0.068 A 
HETATM   10  C   UNL     1       5.057  29.085  55.606  1.00  0.00     0.039 A 
HETATM   11  C   UNL     1       4.873  27.851  54.974  1.00  0.00     0.032 A 
BRANCH   9  12
HETATM   12  O   UNL     1       4.898  31.405  55.699  1.00  0.00    -0.356 OA
HETATM   13  C   UNL     1       4.435  32.623  55.129  1.00  0.00     0.210 C 
ENDBRANCH   9  12
ENDBRANCH   3   6
ENDBRANCH   1   2
BRANCH   1  14
HETATM   14  N   UNL     1       7.315  26.093  52.975  1.00  0.00    -0.284 NA
HETATM   15  H   UNL     1       7.253  26.938  53.543  1.00  0.00     0.128 HD
BRANCH  14  16
HETATM   16  C   UNL     1       7.522  24.953  53.754  1.00  0.00     0.009 A 
HETATM   17  C   UNL     1       7.935  23.776  53.108  1.00  0.00     0.035 A 
HETATM   18  C   UNL     1       8.077  22.555  53.791  1.00  0.00    -0.024 A 
HETATM   19  C   UNL     1       7.769  22.498  55.166  1.00  0.00    -0.026 A 
HETATM   20  C   UNL     1       8.507  21.390  53.135  1.00  0.00     0.012 A 
HETATM   21  C   UNL     1       7.326  23.661  55.810  1.00  0.00     0.014 A 
HETATM   22  C   UNL     1       7.902  21.279  55.853  1.00  0.00     0.012 A 
HETATM   23  C   UNL     1       7.192  24.865  55.107  1.00  0.00     0.024 A 
HETATM   24  C   UNL     1       8.333  20.131  55.186  1.00  0.00     0.001 A 
HETATM   25  C   UNL     1       8.636  20.185  53.829  1.00  0.00     0.001 A 
ENDBRANCH  14  16
ENDBRANCH   1  14
TORSDOF 5
ENDMDL
MODEL 8
REMARK VINA RESULT:      -8.1      2.447      2.919
REMARK  5 active torsions:
REMARK  status: ('A' for Active; 'I' for Inactive)
REMARK    1  A    between atoms: O_2  and  C_3 
REMARK    2  A    between atoms: C_6  and  N_7 
REMARK       I    between atoms: N_7  and  C_8 
REMARK    3  A    between atoms: C_8  and  C_9 
REMARK    4  A    between atoms: C_9  and  N_10 
REMARK    5  A    between atoms: N_10  and  C_11 
ROOT
HETATM    1  C   UNL     1       5.873  26.907  54.805  1.00  0.00     0.195 C 
ENDROOT
BRANCH   1   2
HETATM    2  C   UNL     1       6.144  28.172  53.993  1.00  0.00     0.235 C 
HETATM    3  N   UNL     1       5.798  29.418  54.428  1.00  0.00    -0.326 N 
HETATM    4  H   UNL     1       6.174  30.125  53.807  1.00  0.00     0.169 HD
HETATM    5  O   UNL     1       6.715  28.091  52.897  1.00  0.00    -0.272 OA
BRANCH   3   6
HETATM    6  C   UNL     1       5.044  29.898  55.515  1.00  0.00     0.034 A 
HETATM    7  C   UNL     1       3.682  30.191  55.490  1.00  0.00     0.032 A 
HETATM    8  C   UNL     1       3.022  30.655  56.639  1.00  0.00     0.039 A 
HETATM    9  C   UNL     1       3.723  30.848  57.827  1.00  0.00     0.068 A 
HETATM   10  C   UNL     1       5.093  30.600  57.846  1.00  0.00     0.039 A 
HETATM   11  C   UNL     1       5.748  30.134  56.702  1.00  0.00     0.032 A 
BRANCH   9  12
HETATM   12  O   UNL     1       3.197  31.285  59.010  1.00  0.00    -0.356 OA
HETATM   13  C   UNL     1       3.725  32.497  59.534  1.00  0.00     0.210 C 
ENDBRANCH   9  12
ENDBRANCH   3   6
ENDBRANCH   1   2
BRANCH   1  14
HETATM   14  N   UNL     1       7.135  26.213  55.073  1.00  0.00    -0.284 NA
HETATM   15  H   UNL     1       7.390  26.266  56.060  1.00  0.00     0.128 HD
BRANCH  14  16
HETATM   16  C   UNL     1       7.380  24.947  54.537  1.00  0.00     0.009 A 
HETATM   17  C   UNL     1       7.545  23.873  55.427  1.00  0.00     0.035 A 
HETATM   18  C   UNL     1       7.889  22.582  54.989  1.00  0.00    -0.024 A 
HETATM   19  C   UNL     1       8.103  22.357  53.614  1.00  0.00    -0.026 A 
HETATM   20  C   UNL     1       8.035  21.513  55.889  1.00  0.00     0.012 A 
HETATM   21  C   UNL     1       7.971  23.432  52.723  1.00  0.00     0.014 A 
HETATM   22  C   UNL     1       8.454  21.071  53.171  1.00  0.00     0.012 A 
HETATM   23  C   UNL     1       7.628  24.710  53.185  1.00  0.00     0.024 A 
HETATM   24  C   UNL     1       8.593  20.019  54.078  1.00  0.00     0.001 A 
HETATM   25  C   UNL     1       8.383  20.240  55.436  1.00  0.00     0.001 A 
ENDBRANCH  14  16
ENDBRANCH   1  14
TORSDOF 5
ENDMDL
MODEL 9
REMARK VINA RESULT:      -8.0      2.167      7.506
REMARK  5 active torsions:
REMARK  status: ('A' for Active; 'I' for Inactive)
REMARK    1  A    between atoms: O_2  and  C_3 
REMARK    2  A    between atoms: C_6  and  N_7 
REMARK       I    between atoms: N_7  and  C_8 
REMARK    3  A    between atoms: C_8  and  C_9 
REMARK    4  A    between atoms: C_9  and  N_10 
REMARK    5  A    between atoms: N_10  and  C_11 
ROOT
HETATM    1  C   UNL     1       6.686  27.828  54.286  1.00  0.00     0.195 C 
ENDROOT
BRANCH   1   2
HETATM    2  C   UNL     1       5.347  27.096  54.234  1.00  0.00     0.235 C 
HETATM    3  N   UNL     1       5.244  25.737  54.314  1.00  0.00    -0.326 N 
HETATM    4  H   UNL     1       4.272  25.461  54.386  1.00  0.00     0.169 HD
HETATM    5  O   UNL     1       4.295  27.740  54.131  1.00  0.00    -0.272 OA
BRANCH   3   6
HETATM    6  C   UNL     1       6.178  24.685  54.304  1.00  0.00     0.034 A 
HETATM    7  C   UNL     1       6.761  24.108  55.430  1.00  0.00     0.032 A 
HETATM    8  C   UNL     1       7.677  23.051  55.307  1.00  0.00     0.039 A 
HETATM    9  C   UNL     1       8.034  22.567  54.052  1.00  0.00     0.068 A 
HETATM   10  C   UNL     1       7.490  23.170  52.920  1.00  0.00     0.039 A 
HETATM   11  C   UNL     1       6.575  24.220  53.044  1.00  0.00     0.032 A 
BRANCH   9  12
HETATM   12  O   UNL     1       8.903  21.543  53.801  1.00  0.00    -0.356 OA
HETATM   13  C   UNL     1       8.430  20.494  52.965  1.00  0.00     0.210 C 
ENDBRANCH   9  12
ENDBRANCH   3   6
ENDBRANCH   1   2
BRANCH   1  14
HETATM   14  N   UNL     1       6.515  29.121  54.954  1.00  0.00    -0.284 NA
HETATM   15  H   UNL     1       5.531  29.375  55.033  1.00  0.00     0.128 HD
BRANCH  14  16
HETATM   16  C   UNL     1       7.227  29.421  56.118  1.00  0.00     0.009 A 
HETATM   17  C   UNL     1       6.653  30.323  57.029  1.00  0.00     0.035 A 
HETATM   18  C   UNL     1       7.333  30.760  58.180  1.00  0.00    -0.024 A 
HETATM   19  C   UNL     1       8.645  30.304  58.419  1.00  0.00    -0.026 A 
HETATM   20  C   UNL     1       6.739  31.649  59.092  1.00  0.00     0.012 A 
HETATM   21  C   UNL     1       9.236  29.429  57.497  1.00  0.00     0.014 A 
HETATM   22  C   UNL     1       9.332  30.743  59.563  1.00  0.00     0.012 A 
HETATM   23  C   UNL     1       8.538  29.008  56.357  1.00  0.00     0.024 A 
HETATM   24  C   UNL     1       8.727  31.625  60.461  1.00  0.00     0.001 A 
HETATM   25  C   UNL     1       7.433  32.078  60.226  1.00  0.00     0.001 A 
ENDBRANCH  14  16
ENDBRANCH   1  14
TORSDOF 5
ENDMDL
MODEL 10
REMARK VINA RESULT:      -8.0      2.554      3.557
REMARK  5 active torsions:
REMARK  status: ('A' for Active; 'I' for Inactive)
REMARK    1  A    between atoms: O_2  and  C_3 
REMARK    2  A    between atoms: C_6  and  N_7 
REMARK       I    between atoms: N_7  and  C_8 
REMARK    3  A    between atoms: C_8  and  C_9 
REMARK    4  A    between atoms: C_9  and  N_10 
REMARK    5  A    between atoms: N_10  and  C_11 
ROOT
HETATM    1  C   UNL     1       6.655  26.917  55.926  1.00  0.00     0.195 C 
ENDROOT
BRANCH   1   2
HETATM    2  C   UNL     1       7.031  28.048  54.971  1.00  0.00     0.235 C 
HETATM    3  N   UNL     1       6.703  29.352  55.204  1.00  0.00    -0.326 N 
HETATM    4  H   UNL     1       7.148  29.954  54.521  1.00  0.00     0.169 HD
HETATM    5  O   UNL     1       7.674  27.798  53.942  1.00  0.00    -0.272 OA
BRANCH   3   6
HETATM    6  C   UNL     1       5.894  30.000  56.155  1.00  0.00     0.034 A 
HETATM    7  C   UNL     1       6.343  30.585  57.337  1.00  0.00     0.032 A 
HETATM    8  C   UNL     1       5.448  31.220  58.213  1.00  0.00     0.039 A 
HETATM    9  C   UNL     1       4.086  31.262  57.925  1.00  0.00     0.068 A 
HETATM   10  C   UNL     1       3.625  30.639  56.768  1.00  0.00     0.039 A 
HETATM   11  C   UNL     1       4.518  30.011  55.894  1.00  0.00     0.032 A 
BRANCH   9  12
HETATM   12  O   UNL     1       3.119  31.852  58.689  1.00  0.00    -0.356 OA
HETATM   13  C   UNL     1       3.324  31.842  60.096  1.00  0.00     0.210 C 
ENDBRANCH   9  12
ENDBRANCH   3   6
ENDBRANCH   1   2
BRANCH   1  14
HETATM   14  N   UNL     1       7.868  26.238  56.388  1.00  0.00    -0.284 NA
HETATM   15  H   UNL     1       8.090  26.482  57.353  1.00  0.00     0.128 HD
BRANCH  14  16
HETATM   16  C   UNL     1       8.065  24.879  56.134  1.00  0.00     0.009 A 
HETATM   17  C   UNL     1       7.894  24.420  54.818  1.00  0.00     0.035 A 
HETATM   18  C   UNL     1       7.976  23.057  54.482  1.00  0.00    -0.024 A 
HETATM   19  C   UNL     1       8.211  22.111  55.501  1.00  0.00    -0.026 A 
HETATM   20  C   UNL     1       7.821  22.615  53.158  1.00  0.00     0.012 A 
HETATM   21  C   UNL     1       8.350  22.559  56.821  1.00  0.00     0.014 A 
HETATM   22  C   UNL     1       8.287  20.747  55.172  1.00  0.00     0.012 A 
HETATM   23  C   UNL     1       8.264  23.922  57.131  1.00  0.00     0.024 A 
HETATM   24  C   UNL     1       8.132  20.324  53.851  1.00  0.00     0.001 A 
HETATM   25  C   UNL     1       7.899  21.256  52.844  1.00  0.00     0.001 A 
ENDBRANCH  14  16
ENDBRANCH   1  14
TORSDOF 5
ENDMDL
