MODEL 1
REMARK VINA RESULT:     -10.6      0.000      0.000
REMARK  6 active torsions:
REMARK  status: ('A' for Active; 'I' for Inactive)
REMARK    1  A    between atoms: C_6  and  O_7 
REMARK    2  A    between atoms: C_12  and  C_13 
REMARK    3  A    between atoms: C_13  and  C_14 
REMARK       I    between atoms: C_14  and  N_15 
REMARK    4  A    between atoms: N_15  and  C_16 
REMARK    5  A    between atoms: C_16  and  C_17 
REMARK    6  A    between atoms: C_17  and  C_18 
ROOT
HETATM    1  C   UNL     1       8.106  28.851  56.779  1.00  0.00     0.222 C 
HETATM    2  N   UNL     1       8.281  29.170  58.112  1.00  0.00    -0.360 N 
HETATM    3  O   UNL     1       8.771  29.364  55.881  1.00  0.00    -0.273 OA
HETATM    4  H   UNL     1       7.586  28.833  58.766  1.00  0.00     0.162 HD
ENDROOT
BRANCH   1   5
HETATM    5  C   UNL     1       6.962  27.887  56.476  1.00  0.00     0.148 C 
BRANCH   5   6
HETATM    6  C   UNL     1       7.234  26.523  55.874  1.00  0.00     0.033 C 
HETATM    7  C   UNL     1       7.519  25.510  56.935  1.00  0.00     0.295 C 
HETATM    8  O   UNL     1       7.461  24.178  56.576  1.00  0.00    -0.274 OA
HETATM    9  O   UNL     1       7.720  25.832  58.102  1.00  0.00    -0.259 OA
HETATM   10  C   UNL     1       7.553  23.801  55.230  1.00  0.00     0.093 A 
HETATM   11  C   UNL     1       7.724  22.433  54.996  1.00  0.00     0.045 A 
HETATM   12  C   UNL     1       7.518  24.747  54.208  1.00  0.00     0.038 A 
HETATM   13  C   UNL     1       7.906  21.969  53.695  1.00  0.00    -0.057 A 
HETATM   14  C   UNL     1       8.075  20.507  53.406  1.00  0.00     0.048 C 
HETATM   15  C   UNL     1       7.959  22.901  52.654  1.00  0.00     0.044 A 
HETATM   16  C   UNL     1       7.776  24.268  52.911  1.00  0.00     0.079 A 
HETATM   17  C   UNL     1       7.182  26.146  54.577  1.00  0.00    -0.034 C 
HETATM   18  C   UNL     1       6.700  27.042  53.470  1.00  0.00     0.050 C 
BRANCH  16  19
HETATM   19  O   UNL     1       7.892  25.139  51.861  1.00  0.00    -0.360 OA
HETATM   20  H   UNL     1       7.009  25.389  51.543  1.00  0.00     0.217 HD
ENDBRANCH  16  19
ENDBRANCH   5   6
ENDBRANCH   1   5
BRANCH   2  21
HETATM   21  C   UNL     1       9.033  30.365  58.476  1.00  0.00     0.127 C 
BRANCH  21  22
HETATM   22  C   UNL     1       8.200  31.427  59.186  1.00  0.00     0.060 C 
BRANCH  22  23
HETATM   23  C   UNL     1       8.236  31.502  60.690  1.00  0.00    -0.029 A 
HETATM   24  C   UNL     1       7.637  32.418  61.627  1.00  0.00    -0.000 A 
HETATM   25  C   UNL     1       8.006  32.001  62.912  1.00  0.00     0.043 A 
HETATM   26  C   UNL     1       6.816  33.563  61.533  1.00  0.00     0.038 A 
HETATM   27  C   UNL     1       7.615  32.664  64.083  1.00  0.00     0.032 A 
HETATM   28  N   UNL     1       8.778  30.875  62.771  1.00  0.00    -0.365 N 
HETATM   29  C   UNL     1       6.818  33.801  63.952  1.00  0.00     0.026 A 
HETATM   30  C   UNL     1       6.426  34.242  62.694  1.00  0.00     0.035 A 
HETATM   31 CL   UNL     1       5.449  35.655  62.563  1.00  0.00    -0.084 Cl
HETATM   32  H   UNL     1       9.174  30.351  63.539  1.00  0.00     0.165 HD
HETATM   33  C   UNL     1       8.925  30.570  61.450  1.00  0.00     0.096 A 
ENDBRANCH  22  23
ENDBRANCH  21  22
ENDBRANCH   2  21
TORSDOF 6
ENDMDL
MODEL 2
REMARK VINA RESULT:     -10.5      1.058      2.142
REMARK  6 active torsions:
REMARK  status: ('A' for Active; 'I' for Inactive)
REMARK    1  A    between atoms: C_6  and  O_7 
REMARK    2  A    between atoms: C_12  and  C_13 
REMARK    3  A    between atoms: C_13  and  C_14 
REMARK       I    between atoms: C_14  and  N_15 
REMARK    4  A    between atoms: N_15  and  C_16 
REMARK    5  A    between atoms: C_16  and  C_17 
REMARK    6  A    between atoms: C_17  and  C_18 
ROOT
HETATM    1  C   UNL     1       7.733  28.502  56.530  1.00  0.00     0.222 C 
HETATM    2  N   UNL     1       7.993  28.911  57.822  1.00  0.00    -0.360 N 
HETATM    3  O   UNL     1       8.298  28.989  55.553  1.00  0.00    -0.273 OA
HETATM    4  H   UNL     1       7.370  28.582  58.549  1.00  0.00     0.162 HD
ENDROOT
BRANCH   1   5
HETATM    5  C   UNL     1       6.621  27.468  56.375  1.00  0.00     0.148 C 
BRANCH   5   6
HETATM    6  C   UNL     1       6.895  26.121  55.735  1.00  0.00     0.033 C 
HETATM    7  C   UNL     1       6.353  26.062  54.343  1.00  0.00     0.295 C 
HETATM    8  O   UNL     1       6.804  25.044  53.527  1.00  0.00    -0.274 OA
HETATM    9  O   UNL     1       5.599  26.924  53.905  1.00  0.00    -0.259 OA
HETATM   10  C   UNL     1       7.392  23.899  54.080  1.00  0.00     0.093 A 
HETATM   11  C   UNL     1       7.592  22.835  53.194  1.00  0.00     0.045 A 
HETATM   12  C   UNL     1       7.708  23.828  55.435  1.00  0.00     0.038 A 
HETATM   13  C   UNL     1       8.097  21.625  53.666  1.00  0.00    -0.057 A 
HETATM   14  C   UNL     1       8.340  20.470  52.742  1.00  0.00     0.048 C 
HETATM   15  C   UNL     1       8.347  21.494  55.036  1.00  0.00     0.044 A 
HETATM   16  C   UNL     1       8.147  22.577  55.904  1.00  0.00     0.079 A 
HETATM   17  C   UNL     1       7.587  25.073  56.235  1.00  0.00    -0.034 C 
HETATM   18  C   UNL     1       8.344  25.121  57.534  1.00  0.00     0.050 C 
BRANCH  16  19
HETATM   19  O   UNL     1       8.359  22.374  57.242  1.00  0.00    -0.360 OA
HETATM   20  H   UNL     1       8.601  23.212  57.667  1.00  0.00     0.217 HD
ENDBRANCH  16  19
ENDBRANCH   5   6
ENDBRANCH   1   5
BRANCH   2  21
HETATM   21  C   UNL     1       8.707  30.161  58.055  1.00  0.00     0.127 C 
BRANCH  21  22
HETATM   22  C   UNL     1       7.907  31.193  58.842  1.00  0.00     0.060 C 
BRANCH  22  23
HETATM   23  C   UNL     1       8.158  31.346  60.319  1.00  0.00    -0.029 A 
HETATM   24  C   UNL     1       7.599  32.231  61.308  1.00  0.00    -0.000 A 
HETATM   25  C   UNL     1       8.204  31.923  62.533  1.00  0.00     0.043 A 
HETATM   26  C   UNL     1       6.639  33.267  61.307  1.00  0.00     0.038 A 
HETATM   27  C   UNL     1       7.915  32.593  63.730  1.00  0.00     0.032 A 
HETATM   28  N   UNL     1       9.077  30.888  62.310  1.00  0.00    -0.365 N 
HETATM   29  C   UNL     1       6.975  33.622  63.688  1.00  0.00     0.026 A 
HETATM   30  C   UNL     1       6.348  33.952  62.493  1.00  0.00     0.035 A 
HETATM   31 CL   UNL     1       5.198  35.235  62.471  1.00  0.00    -0.084 Cl
HETATM   32  H   UNL     1       9.645  30.452  63.023  1.00  0.00     0.165 HD
HETATM   33  C   UNL     1       9.062  30.538  60.991  1.00  0.00     0.096 A 
ENDBRANCH  22  23
ENDBRANCH  21  22
ENDBRANCH   2  21
TORSDOF 6
ENDMDL
MODEL 3
REMARK VINA RESULT:     -10.3      1.757      2.772
REMARK  6 active torsions:
REMARK  status: ('A' for Active; 'I' for Inactive)
REMARK    1  A    between atoms: C_6  and  O_7 
REMARK    2  A    between atoms: C_12  and  C_13 
REMARK    3  A    between atoms: C_13  and  C_14 
REMARK       I    between atoms: C_14  and  N_15 
REMARK    4  A    between atoms: N_15  and  C_16 
REMARK    5  A    between atoms: C_16  and  C_17 
REMARK    6  A    between atoms: C_17  and  C_18 
ROOT
HETATM    1  C   UNL     1       7.274  28.555  56.713  1.00  0.00     0.222 C 
HETATM    2  N   UNL     1       8.207  28.627  57.727  1.00  0.00    -0.360 N 
HETATM    3  O   UNL     1       7.169  29.419  55.844  1.00  0.00    -0.273 OA
HETATM    4  H   UNL     1       8.118  27.968  58.490  1.00  0.00     0.162 HD
ENDROOT
BRANCH   1   5
HETATM    5  C   UNL     1       6.306  27.376  56.788  1.00  0.00     0.148 C 
BRANCH   5   6
HETATM    6  C   UNL     1       6.625  26.064  56.100  1.00  0.00     0.033 C 
HETATM    7  C   UNL     1       6.041  26.018  54.724  1.00  0.00     0.295 C 
HETATM    8  O   UNL     1       6.513  25.047  53.864  1.00  0.00    -0.274 OA
HETATM    9  O   UNL     1       5.231  26.854  54.336  1.00  0.00    -0.259 OA
HETATM   10  C   UNL     1       7.174  23.917  54.364  1.00  0.00     0.093 A 
HETATM   11  C   UNL     1       7.396  22.890  53.441  1.00  0.00     0.045 A 
HETATM   12  C   UNL     1       7.538  23.823  55.705  1.00  0.00     0.038 A 
HETATM   13  C   UNL     1       7.974  21.693  53.860  1.00  0.00    -0.057 A 
HETATM   14  C   UNL     1       8.243  20.578  52.894  1.00  0.00     0.048 C 
HETATM   15  C   UNL     1       8.276  21.536  55.216  1.00  0.00     0.044 A 
HETATM   16  C   UNL     1       8.052  22.583  56.122  1.00  0.00     0.079 A 
HETATM   17  C   UNL     1       7.383  25.038  56.546  1.00  0.00    -0.034 C 
HETATM   18  C   UNL     1       8.178  25.086  57.821  1.00  0.00     0.050 C 
BRANCH  16  19
HETATM   19  O   UNL     1       8.317  22.353  57.446  1.00  0.00    -0.360 OA
HETATM   20  H   UNL     1       9.247  22.095  57.555  1.00  0.00     0.217 HD
ENDBRANCH  16  19
ENDBRANCH   5   6
ENDBRANCH   1   5
BRANCH   2  21
HETATM   21  C   UNL     1       8.885  29.890  57.997  1.00  0.00     0.127 C 
BRANCH  21  22
HETATM   22  C   UNL     1       8.657  30.425  59.407  1.00  0.00     0.060 C 
BRANCH  22  23
HETATM   23  C   UNL     1       7.522  31.383  59.654  1.00  0.00    -0.029 A 
HETATM   24  C   UNL     1       7.155  32.173  60.801  1.00  0.00    -0.000 A 
HETATM   25  C   UNL     1       6.000  32.889  60.463  1.00  0.00     0.043 A 
HETATM   26  C   UNL     1       7.675  32.365  62.100  1.00  0.00     0.038 A 
HETATM   27  C   UNL     1       5.344  33.761  61.343  1.00  0.00     0.032 A 
HETATM   28  N   UNL     1       5.685  32.569  59.166  1.00  0.00    -0.365 N 
HETATM   29  C   UNL     1       5.875  33.913  62.623  1.00  0.00     0.026 A 
HETATM   30  C   UNL     1       7.024  33.225  62.994  1.00  0.00     0.035 A 
HETATM   31 CL   UNL     1       7.650  33.428  64.586  1.00  0.00    -0.084 Cl
HETATM   32  H   UNL     1       4.901  32.951  58.655  1.00  0.00     0.165 HD
HETATM   33  C   UNL     1       6.583  31.668  58.674  1.00  0.00     0.096 A 
ENDBRANCH  22  23
ENDBRANCH  21  22
ENDBRANCH   2  21
TORSDOF 6
ENDMDL
MODEL 4
REMARK VINA RESULT:     -10.3      4.107     11.058
REMARK  6 active torsions:
REMARK  status: ('A' for Active; 'I' for Inactive)
REMARK    1  A    between atoms: C_6  and  O_7 
REMARK    2  A    between atoms: C_12  and  C_13 
REMARK    3  A    between atoms: C_13  and  C_14 
REMARK       I    between atoms: C_14  and  N_15 
REMARK    4  A    between atoms: N_15  and  C_16 
REMARK    5  A    between atoms: C_16  and  C_17 
REMARK    6  A    between atoms: C_17  and  C_18 
ROOT
HETATM    1  C   UNL     1       6.430  29.933  57.801  1.00  0.00     0.222 C 
HETATM    2  N   UNL     1       7.021  28.689  57.703  1.00  0.00    -0.360 N 
HETATM    3  O   UNL     1       5.280  30.153  57.425  1.00  0.00    -0.273 OA
HETATM    4  H   UNL     1       8.016  28.632  57.878  1.00  0.00     0.162 HD
ENDROOT
BRANCH   1   5
HETATM    5  C   UNL     1       7.328  31.053  58.320  1.00  0.00     0.148 C 
BRANCH   5   6
HETATM    6  C   UNL     1       7.219  31.537  59.752  1.00  0.00     0.033 C 
HETATM    7  C   UNL     1       8.351  31.027  60.585  1.00  0.00     0.295 C 
HETATM    8  O   UNL     1       8.570  31.637  61.804  1.00  0.00    -0.274 OA
HETATM    9  O   UNL     1       9.113  30.156  60.178  1.00  0.00    -0.259 OA
HETATM   10  C   UNL     1       7.556  32.385  62.415  1.00  0.00     0.093 A 
HETATM   11  C   UNL     1       7.795  32.755  63.743  1.00  0.00     0.045 A 
HETATM   12  C   UNL     1       6.375  32.692  61.743  1.00  0.00     0.038 A 
HETATM   13  C   UNL     1       6.812  33.432  64.462  1.00  0.00    -0.057 A 
HETATM   14  C   UNL     1       7.042  33.859  65.881  1.00  0.00     0.048 C 
HETATM   15  C   UNL     1       5.584  33.683  63.843  1.00  0.00     0.044 A 
HETATM   16  C   UNL     1       5.370  33.310  62.508  1.00  0.00     0.079 A 
HETATM   17  C   UNL     1       6.306  32.374  60.294  1.00  0.00    -0.034 C 
HETATM   18  C   UNL     1       5.263  33.098  59.489  1.00  0.00     0.050 C 
BRANCH  16  19
HETATM   19  O   UNL     1       4.130  33.534  61.971  1.00  0.00    -0.360 OA
HETATM   20  H   UNL     1       3.535  32.801  62.200  1.00  0.00     0.217 HD
ENDBRANCH  16  19
ENDBRANCH   5   6
ENDBRANCH   1   5
BRANCH   2  21
HETATM   21  C   UNL     1       6.422  27.669  56.851  1.00  0.00     0.127 C 
BRANCH  21  22
HETATM   22  C   UNL     1       7.249  26.394  56.737  1.00  0.00     0.060 C 
BRANCH  22  23
HETATM   23  C   UNL     1       7.428  25.753  55.386  1.00  0.00    -0.029 A 
HETATM   24  C   UNL     1       7.556  24.378  54.977  1.00  0.00    -0.000 A 
HETATM   25  C   UNL     1       7.696  24.367  53.584  1.00  0.00     0.043 A 
HETATM   26  C   UNL     1       7.569  23.128  55.635  1.00  0.00     0.038 A 
HETATM   27  C   UNL     1       7.856  23.197  52.831  1.00  0.00     0.032 A 
HETATM   28  N   UNL     1       7.637  25.671  53.157  1.00  0.00    -0.365 N 
HETATM   29  C   UNL     1       7.882  21.982  53.514  1.00  0.00     0.026 A 
HETATM   30  C   UNL     1       7.740  21.950  54.896  1.00  0.00     0.035 A 
HETATM   31 CL   UNL     1       7.785  20.434  55.714  1.00  0.00    -0.084 Cl
HETATM   32  H   UNL     1       7.699  25.962  52.192  1.00  0.00     0.165 HD
HETATM   33  C   UNL     1       7.482  26.506  54.224  1.00  0.00     0.096 A 
ENDBRANCH  22  23
ENDBRANCH  21  22
ENDBRANCH   2  21
TORSDOF 6
ENDMDL
MODEL 5
REMARK VINA RESULT:     -10.3      2.124      2.578
REMARK  6 active torsions:
REMARK  status: ('A' for Active; 'I' for Inactive)
REMARK    1  A    between atoms: C_6  and  O_7 
REMARK    2  A    between atoms: C_12  and  C_13 
REMARK    3  A    between atoms: C_13  and  C_14 
REMARK       I    between atoms: C_14  and  N_15 
REMARK    4  A    between atoms: N_15  and  C_16 
REMARK    5  A    between atoms: C_16  and  C_17 
REMARK    6  A    between atoms: C_17  and  C_18 
ROOT
HETATM    1  C   UNL     1       6.221  28.786  57.005  1.00  0.00     0.222 C 
HETATM    2  N   UNL     1       6.267  30.130  57.317  1.00  0.00    -0.360 N 
HETATM    3  O   UNL     1       5.170  28.148  56.975  1.00  0.00    -0.273 OA
HETATM    4  H   UNL     1       7.179  30.538  57.483  1.00  0.00     0.162 HD
ENDROOT
BRANCH   1   5
HETATM    5  C   UNL     1       7.573  28.110  56.791  1.00  0.00     0.148 C 
BRANCH   5   6
HETATM    6  C   UNL     1       7.664  26.746  56.135  1.00  0.00     0.033 C 
HETATM    7  C   UNL     1       7.776  25.660  57.157  1.00  0.00     0.295 C 
HETATM    8  O   UNL     1       7.538  24.366  56.738  1.00  0.00    -0.274 OA
HETATM    9  O   UNL     1       7.991  25.903  58.339  1.00  0.00    -0.259 OA
HETATM   10  C   UNL     1       7.610  24.035  55.378  1.00  0.00     0.093 A 
HETATM   11  C   UNL     1       7.592  22.667  55.088  1.00  0.00     0.045 A 
HETATM   12  C   UNL     1       7.736  25.017  54.399  1.00  0.00     0.038 A 
HETATM   13  C   UNL     1       7.739  22.235  53.771  1.00  0.00    -0.057 A 
HETATM   14  C   UNL     1       7.706  20.777  53.422  1.00  0.00     0.048 C 
HETATM   15  C   UNL     1       7.950  23.192  52.774  1.00  0.00     0.044 A 
HETATM   16  C   UNL     1       7.957  24.560  53.087  1.00  0.00     0.079 A 
HETATM   17  C   UNL     1       7.593  26.434  54.822  1.00  0.00    -0.034 C 
HETATM   18  C   UNL     1       7.270  27.434  53.747  1.00  0.00     0.050 C 
BRANCH  16  19
HETATM   19  O   UNL     1       8.221  25.447  52.079  1.00  0.00    -0.360 OA
HETATM   20  H   UNL     1       7.665  25.245  51.309  1.00  0.00     0.217 HD
ENDBRANCH  16  19
ENDBRANCH   5   6
ENDBRANCH   1   5
BRANCH   2  21
HETATM   21  C   UNL     1       5.115  30.768  57.942  1.00  0.00     0.127 C 
BRANCH  21  22
HETATM   22  C   UNL     1       5.278  32.268  58.155  1.00  0.00     0.060 C 
BRANCH  22  23
HETATM   23  C   UNL     1       5.543  32.788  59.545  1.00  0.00    -0.029 A 
HETATM   24  C   UNL     1       6.523  32.435  60.539  1.00  0.00    -0.000 A 
HETATM   25  C   UNL     1       6.302  33.254  61.653  1.00  0.00     0.043 A 
HETATM   26  C   UNL     1       7.584  31.506  60.623  1.00  0.00     0.038 A 
HETATM   27  C   UNL     1       7.063  33.186  62.827  1.00  0.00     0.032 A 
HETATM   28  N   UNL     1       5.250  34.082  61.349  1.00  0.00    -0.365 N 
HETATM   29  C   UNL     1       8.091  32.245  62.882  1.00  0.00     0.026 A 
HETATM   30  C   UNL     1       8.346  31.419  61.794  1.00  0.00     0.035 A 
HETATM   31 CL   UNL     1       9.618  30.260  61.896  1.00  0.00    -0.084 Cl
HETATM   32  H   UNL     1       4.879  34.789  61.968  1.00  0.00     0.165 HD
HETATM   33  C   UNL     1       4.786  33.809  60.096  1.00  0.00     0.096 A 
ENDBRANCH  22  23
ENDBRANCH  21  22
ENDBRANCH   2  21
TORSDOF 6
ENDMDL
MODEL 6
REMARK VINA RESULT:     -10.1      6.362      9.405
REMARK  6 active torsions:
REMARK  status: ('A' for Active; 'I' for Inactive)
REMARK    1  A    between atoms: C_6  and  O_7 
REMARK    2  A    between atoms: C_12  and  C_13 
REMARK    3  A    between atoms: C_13  and  C_14 
REMARK       I    between atoms: C_14  and  N_15 
REMARK    4  A    between atoms: N_15  and  C_16 
REMARK    5  A    between atoms: C_16  and  C_17 
REMARK    6  A    between atoms: C_17  and  C_18 
ROOT
HETATM    1  C   UNL     1       5.369  28.279  54.754  1.00  0.00     0.222 C 
HETATM    2  N   UNL     1       4.206  28.909  54.356  1.00  0.00    -0.360 N 
HETATM    3  O   UNL     1       6.482  28.648  54.387  1.00  0.00    -0.273 OA
HETATM    4  H   UNL     1       3.331  28.444  54.564  1.00  0.00     0.162 HD
ENDROOT
BRANCH   1   5
HETATM    5  C   UNL     1       5.183  27.025  55.606  1.00  0.00     0.148 C 
BRANCH   5   6
HETATM    6  C   UNL     1       5.847  25.718  55.220  1.00  0.00     0.033 C 
HETATM    7  C   UNL     1       5.411  25.270  53.861  1.00  0.00     0.295 C 
HETATM    8  O   UNL     1       6.163  24.291  53.243  1.00  0.00    -0.274 OA
HETATM    9  O   UNL     1       4.473  25.798  53.275  1.00  0.00    -0.259 OA
HETATM   10  C   UNL     1       7.014  23.469  53.994  1.00  0.00     0.093 A 
HETATM   11  C   UNL     1       7.541  22.365  53.315  1.00  0.00     0.045 A 
HETATM   12  C   UNL     1       7.270  23.725  55.338  1.00  0.00     0.038 A 
HETATM   13  C   UNL     1       8.333  21.444  53.998  1.00  0.00    -0.057 A 
HETATM   14  C   UNL     1       8.928  20.260  53.297  1.00  0.00     0.048 C 
HETATM   15  C   UNL     1       8.541  21.629  55.368  1.00  0.00     0.044 A 
HETATM   16  C   UNL     1       8.010  22.747  56.026  1.00  0.00     0.079 A 
HETATM   17  C   UNL     1       6.773  25.007  55.901  1.00  0.00    -0.034 C 
HETATM   18  C   UNL     1       7.422  25.489  57.169  1.00  0.00     0.050 C 
BRANCH  16  19
HETATM   19  O   UNL     1       8.202  22.847  57.378  1.00  0.00    -0.360 OA
HETATM   20  H   UNL     1       8.507  21.996  57.730  1.00  0.00     0.217 HD
ENDBRANCH  16  19
ENDBRANCH   5   6
ENDBRANCH   1   5
BRANCH   2  21
HETATM   21  C   UNL     1       4.234  29.831  53.227  1.00  0.00     0.127 C 
BRANCH  21  22
HETATM   22  C   UNL     1       3.369  29.394  52.051  1.00  0.00     0.060 C 
BRANCH  22  23
HETATM   23  C   UNL     1       3.990  28.579  50.946  1.00  0.00    -0.029 A 
HETATM   24  C   UNL     1       3.453  28.039  49.724  1.00  0.00    -0.000 A 
HETATM   25  C   UNL     1       4.493  27.364  49.073  1.00  0.00     0.043 A 
HETATM   26  C   UNL     1       2.192  28.046  49.087  1.00  0.00     0.038 A 
HETATM   27  C   UNL     1       4.338  26.699  47.850  1.00  0.00     0.032 A 
HETATM   28  N   UNL     1       5.617  27.500  49.849  1.00  0.00    -0.365 N 
HETATM   29  C   UNL     1       3.075  26.710  47.258  1.00  0.00     0.026 A 
HETATM   30  C   UNL     1       2.019  27.375  47.870  1.00  0.00     0.035 A 
HETATM   31 CL   UNL     1       0.469  27.364  47.119  1.00  0.00    -0.084 Cl
HETATM   32  H   UNL     1       6.525  27.121  49.616  1.00  0.00     0.165 HD
HETATM   33  C   UNL     1       5.328  28.219  50.971  1.00  0.00     0.096 A 
ENDBRANCH  22  23
ENDBRANCH  21  22
ENDBRANCH   2  21
TORSDOF 6
ENDMDL
MODEL 7
REMARK VINA RESULT:      -9.9      4.167     10.512
REMARK  6 active torsions:
REMARK  status: ('A' for Active; 'I' for Inactive)
REMARK    1  A    between atoms: C_6  and  O_7 
REMARK    2  A    between atoms: C_12  and  C_13 
REMARK    3  A    between atoms: C_13  and  C_14 
REMARK       I    between atoms: C_14  and  N_15 
REMARK    4  A    between atoms: N_15  and  C_16 
REMARK    5  A    between atoms: C_16  and  C_17 
REMARK    6  A    between atoms: C_17  and  C_18 
ROOT
HETATM    1  C   UNL     1       5.029  29.228  56.615  1.00  0.00     0.222 C 
HETATM    2  N   UNL     1       5.553  28.087  57.190  1.00  0.00    -0.360 N 
HETATM    3  O   UNL     1       3.979  29.227  55.976  1.00  0.00    -0.273 OA
HETATM    4  H   UNL     1       6.497  28.140  57.551  1.00  0.00     0.162 HD
ENDROOT
BRANCH   1   5
HETATM    5  C   UNL     1       5.889  30.484  56.736  1.00  0.00     0.148 C 
BRANCH   5   6
HETATM    6  C   UNL     1       6.279  31.029  58.096  1.00  0.00     0.033 C 
HETATM    7  C   UNL     1       5.249  31.980  58.615  1.00  0.00     0.295 C 
HETATM    8  O   UNL     1       5.296  32.299  59.957  1.00  0.00    -0.274 OA
HETATM    9  O   UNL     1       4.343  32.405  57.905  1.00  0.00    -0.259 OA
HETATM   10  C   UNL     1       6.469  32.094  60.695  1.00  0.00     0.093 A 
HETATM   11  C   UNL     1       6.488  32.667  61.971  1.00  0.00     0.045 A 
HETATM   12  C   UNL     1       7.551  31.400  60.159  1.00  0.00     0.038 A 
HETATM   13  C   UNL     1       7.641  32.587  62.750  1.00  0.00    -0.057 A 
HETATM   14  C   UNL     1       7.690  33.175  64.129  1.00  0.00     0.048 C 
HETATM   15  C   UNL     1       8.772  31.969  62.208  1.00  0.00     0.044 A 
HETATM   16  C   UNL     1       8.727  31.394  60.930  1.00  0.00     0.079 A 
HETATM   17  C   UNL     1       7.351  30.714  58.857  1.00  0.00    -0.034 C 
HETATM   18  C   UNL     1       8.321  29.618  58.511  1.00  0.00     0.050 C 
BRANCH  16  19
HETATM   19  O   UNL     1       9.880  30.850  60.431  1.00  0.00    -0.360 OA
HETATM   20  H   UNL     1      10.466  30.595  61.161  1.00  0.00     0.217 HD
ENDBRANCH  16  19
ENDBRANCH   5   6
ENDBRANCH   1   5
BRANCH   2  21
HETATM   21  C   UNL     1       5.052  26.779  56.786  1.00  0.00     0.127 C 
BRANCH  21  22
HETATM   22  C   UNL     1       6.123  25.694  56.741  1.00  0.00     0.060 C 
BRANCH  22  23
HETATM   23  C   UNL     1       6.421  25.011  55.432  1.00  0.00    -0.029 A 
HETATM   24  C   UNL     1       7.096  23.779  55.116  1.00  0.00    -0.000 A 
HETATM   25  C   UNL     1       7.078  23.638  53.723  1.00  0.00     0.043 A 
HETATM   26  C   UNL     1       7.727  22.756  55.858  1.00  0.00     0.038 A 
HETATM   27  C   UNL     1       7.656  22.556  53.046  1.00  0.00     0.032 A 
HETATM   28  N   UNL     1       6.407  24.721  53.211  1.00  0.00    -0.365 N 
HETATM   29  C   UNL     1       8.286  21.573  53.810  1.00  0.00     0.026 A 
HETATM   30  C   UNL     1       8.319  21.674  55.195  1.00  0.00     0.035 A 
HETATM   31 CL   UNL     1       9.113  20.449  56.110  1.00  0.00    -0.084 Cl
HETATM   32  H   UNL     1       6.232  24.875  52.228  1.00  0.00     0.165 HD
HETATM   33  C   UNL     1       6.015  25.549  54.221  1.00  0.00     0.096 A 
ENDBRANCH  22  23
ENDBRANCH  21  22
ENDBRANCH   2  21
TORSDOF 6
ENDMDL
MODEL 8
REMARK VINA RESULT:      -9.9      2.603      3.887
REMARK  6 active torsions:
REMARK  status: ('A' for Active; 'I' for Inactive)
REMARK    1  A    between atoms: C_6  and  O_7 
REMARK    2  A    between atoms: C_12  and  C_13 
REMARK    3  A    between atoms: C_13  and  C_14 
REMARK       I    between atoms: C_14  and  N_15 
REMARK    4  A    between atoms: N_15  and  C_16 
REMARK    5  A    between atoms: C_16  and  C_17 
REMARK    6  A    between atoms: C_17  and  C_18 
ROOT
HETATM    1  C   UNL     1       5.790  28.676  56.401  1.00  0.00     0.222 C 
HETATM    2  N   UNL     1       5.207  29.838  55.934  1.00  0.00    -0.360 N 
HETATM    3  O   UNL     1       5.364  28.066  57.379  1.00  0.00    -0.273 OA
HETATM    4  H   UNL     1       5.714  30.365  55.234  1.00  0.00     0.162 HD
ENDROOT
BRANCH   1   5
HETATM    5  C   UNL     1       7.065  28.243  55.682  1.00  0.00     0.148 C 
BRANCH   5   6
HETATM    6  C   UNL     1       7.243  26.814  55.209  1.00  0.00     0.033 C 
HETATM    7  C   UNL     1       6.915  26.678  53.757  1.00  0.00     0.295 C 
HETATM    8  O   UNL     1       7.337  25.532  53.112  1.00  0.00    -0.274 OA
HETATM    9  O   UNL     1       6.362  27.577  53.131  1.00  0.00    -0.259 OA
HETATM   10  C   UNL     1       7.669  24.387  53.848  1.00  0.00     0.093 A 
HETATM   11  C   UNL     1       7.850  23.220  53.097  1.00  0.00     0.045 A 
HETATM   12  C   UNL     1       7.764  24.418  55.236  1.00  0.00     0.038 A 
HETATM   13  C   UNL     1       8.104  22.012  53.744  1.00  0.00    -0.057 A 
HETATM   14  C   UNL     1       8.321  20.746  52.970  1.00  0.00     0.048 C 
HETATM   15  C   UNL     1       8.124  21.994  55.142  1.00  0.00     0.044 A 
HETATM   16  C   UNL     1       7.949  23.178  55.873  1.00  0.00     0.079 A 
HETATM   17  C   UNL     1       7.699  25.745  55.901  1.00  0.00    -0.034 C 
HETATM   18  C   UNL     1       8.250  25.833  57.297  1.00  0.00     0.050 C 
BRANCH  16  19
HETATM   19  O   UNL     1       7.926  23.090  57.240  1.00  0.00    -0.360 OA
HETATM   20  H   UNL     1       8.064  22.169  57.512  1.00  0.00     0.217 HD
ENDBRANCH  16  19
ENDBRANCH   5   6
ENDBRANCH   1   5
BRANCH   2  21
HETATM   21  C   UNL     1       4.264  30.563  56.779  1.00  0.00     0.127 C 
BRANCH  21  22
HETATM   22  C   UNL     1       4.813  31.871  57.335  1.00  0.00     0.060 C 
BRANCH  22  23
HETATM   23  C   UNL     1       5.618  31.847  58.608  1.00  0.00    -0.029 A 
HETATM   24  C   UNL     1       6.975  31.452  58.887  1.00  0.00    -0.000 A 
HETATM   25  C   UNL     1       7.193  31.645  60.257  1.00  0.00     0.043 A 
HETATM   26  C   UNL     1       8.055  30.950  58.128  1.00  0.00     0.038 A 
HETATM   27  C   UNL     1       8.405  31.355  60.896  1.00  0.00     0.032 A 
HETATM   28  N   UNL     1       6.032  32.150  60.789  1.00  0.00    -0.365 N 
HETATM   29  C   UNL     1       9.444  30.844  60.119  1.00  0.00     0.026 A 
HETATM   30  C   UNL     1       9.269  30.645  58.755  1.00  0.00     0.035 A 
HETATM   31 CL   UNL     1      10.569  30.004  57.823  1.00  0.00    -0.084 Cl
HETATM   32  H   UNL     1       5.906  32.397  61.761  1.00  0.00     0.165 HD
HETATM   33  C   UNL     1       5.085  32.271  59.815  1.00  0.00     0.096 A 
ENDBRANCH  22  23
ENDBRANCH  21  22
ENDBRANCH   2  21
TORSDOF 6
ENDMDL
MODEL 9
REMARK VINA RESULT:      -9.8      6.540      9.617
REMARK  6 active torsions:
REMARK  status: ('A' for Active; 'I' for Inactive)
REMARK    1  A    between atoms: C_6  and  O_7 
REMARK    2  A    between atoms: C_12  and  C_13 
REMARK    3  A    between atoms: C_13  and  C_14 
REMARK       I    between atoms: C_14  and  N_15 
REMARK    4  A    between atoms: N_15  and  C_16 
REMARK    5  A    between atoms: C_16  and  C_17 
REMARK    6  A    between atoms: C_17  and  C_18 
ROOT
HETATM    1  C   UNL     1       5.559  28.206  53.982  1.00  0.00     0.222 C 
HETATM    2  N   UNL     1       4.540  29.028  53.544  1.00  0.00    -0.360 N 
HETATM    3  O   UNL     1       6.699  28.259  53.523  1.00  0.00    -0.273 OA
HETATM    4  H   UNL     1       3.601  28.808  53.851  1.00  0.00     0.162 HD
ENDROOT
BRANCH   1   5
HETATM    5  C   UNL     1       5.162  27.152  55.013  1.00  0.00     0.148 C 
BRANCH   5   6
HETATM    6  C   UNL     1       5.991  25.897  55.200  1.00  0.00     0.033 C 
HETATM    7  C   UNL     1       6.576  25.834  56.575  1.00  0.00     0.295 C 
HETATM    8  O   UNL     1       7.072  24.619  57.001  1.00  0.00    -0.274 OA
HETATM    9  O   UNL     1       6.549  26.797  57.335  1.00  0.00    -0.259 OA
HETATM   10  C   UNL     1       7.401  23.622  56.073  1.00  0.00     0.093 A 
HETATM   11  C   UNL     1       8.113  22.532  56.584  1.00  0.00     0.045 A 
HETATM   12  C   UNL     1       7.070  23.747  54.726  1.00  0.00     0.038 A 
HETATM   13  C   UNL     1       8.556  21.528  55.725  1.00  0.00    -0.057 A 
HETATM   14  C   UNL     1       9.306  20.337  56.242  1.00  0.00     0.048 C 
HETATM   15  C   UNL     1       8.312  21.665  54.356  1.00  0.00     0.044 A 
HETATM   16  C   UNL     1       7.588  22.762  53.866  1.00  0.00     0.079 A 
HETATM   17  C   UNL     1       6.185  24.875  54.337  1.00  0.00    -0.034 C 
HETATM   18  C   UNL     1       5.469  24.753  53.021  1.00  0.00     0.050 C 
BRANCH  16  19
HETATM   19  O   UNL     1       7.426  22.870  52.511  1.00  0.00    -0.360 OA
HETATM   20  H   UNL     1       7.053  23.739  52.293  1.00  0.00     0.217 HD
ENDBRANCH  16  19
ENDBRANCH   5   6
ENDBRANCH   1   5
BRANCH   2  21
HETATM   21  C   UNL     1       4.691  29.763  52.294  1.00  0.00     0.127 C 
BRANCH  21  22
HETATM   22  C   UNL     1       3.683  29.370  51.220  1.00  0.00     0.060 C 
BRANCH  22  23
HETATM   23  C   UNL     1       4.007  28.229  50.291  1.00  0.00    -0.029 A 
HETATM   24  C   UNL     1       3.295  27.656  49.179  1.00  0.00    -0.000 A 
HETATM   25  C   UNL     1       4.078  26.608  48.677  1.00  0.00     0.043 A 
HETATM   26  C   UNL     1       2.065  27.907  48.532  1.00  0.00     0.038 A 
HETATM   27  C   UNL     1       3.696  25.808  47.592  1.00  0.00     0.032 A 
HETATM   28  N   UNL     1       5.222  26.555  49.433  1.00  0.00    -0.365 N 
HETATM   29  C   UNL     1       2.467  26.072  46.989  1.00  0.00     0.026 A 
HETATM   30  C   UNL     1       1.665  27.108  47.454  1.00  0.00     0.035 A 
HETATM   31 CL   UNL     1       0.148  27.405  46.693  1.00  0.00    -0.084 Cl
HETATM   32  H   UNL     1       5.977  25.898  49.286  1.00  0.00     0.165 HD
HETATM   33  C   UNL     1       5.189  27.514  50.402  1.00  0.00     0.096 A 
ENDBRANCH  22  23
ENDBRANCH  21  22
ENDBRANCH   2  21
TORSDOF 6
ENDMDL
MODEL 10
REMARK VINA RESULT:      -9.7      6.987     10.371
REMARK  6 active torsions:
REMARK  status: ('A' for Active; 'I' for Inactive)
REMARK    1  A    between atoms: C_6  and  O_7 
REMARK    2  A    between atoms: C_12  and  C_13 
REMARK    3  A    between atoms: C_13  and  C_14 
REMARK       I    between atoms: C_14  and  N_15 
REMARK    4  A    between atoms: N_15  and  C_16 
REMARK    5  A    between atoms: C_16  and  C_17 
REMARK    6  A    between atoms: C_17  and  C_18 
ROOT
HETATM    1  C   UNL     1       5.611  26.682  51.628  1.00  0.00     0.222 C 
HETATM    2  N   UNL     1       6.555  26.894  52.613  1.00  0.00    -0.360 N 
HETATM    3  O   UNL     1       5.052  25.599  51.466  1.00  0.00    -0.273 OA
HETATM    4  H   UNL     1       7.085  27.756  52.572  1.00  0.00     0.162 HD
ENDROOT
BRANCH   1   5
HETATM    5  C   UNL     1       5.368  27.855  50.682  1.00  0.00     0.148 C 
BRANCH   5   6
HETATM    6  C   UNL     1       4.120  27.917  49.824  1.00  0.00     0.033 C 
HETATM    7  C   UNL     1       3.111  28.856  50.403  1.00  0.00     0.295 C 
HETATM    8  O   UNL     1       2.078  29.265  49.582  1.00  0.00    -0.274 OA
HETATM    9  O   UNL     1       3.227  29.315  51.534  1.00  0.00    -0.259 OA
HETATM   10  C   UNL     1       1.750  28.531  48.435  1.00  0.00     0.093 A 
HETATM   11  C   UNL     1       0.550  28.890  47.812  1.00  0.00     0.045 A 
HETATM   12  C   UNL     1       2.556  27.488  47.985  1.00  0.00     0.038 A 
HETATM   13  C   UNL     1       0.097  28.166  46.710  1.00  0.00    -0.057 A 
HETATM   14  C   UNL     1      -1.176  28.534  46.008  1.00  0.00     0.048 C 
HETATM   15  C   UNL     1       0.841  27.062  46.285  1.00  0.00     0.044 A 
HETATM   16  C   UNL     1       2.046  26.726  46.920  1.00  0.00     0.079 A 
HETATM   17  C   UNL     1       3.875  27.305  48.644  1.00  0.00    -0.034 C 
HETATM   18  C   UNL     1       4.908  26.517  47.887  1.00  0.00     0.050 C 
BRANCH  16  19
HETATM   19  O   UNL     1       2.704  25.603  46.494  1.00  0.00    -0.360 OA
HETATM   20  H   UNL     1       2.257  24.811  46.835  1.00  0.00     0.217 HD
ENDBRANCH  16  19
ENDBRANCH   5   6
ENDBRANCH   1   5
BRANCH   2  21
HETATM   21  C   UNL     1       7.166  25.753  53.286  1.00  0.00     0.127 C 
BRANCH  21  22
HETATM   22  C   UNL     1       7.171  25.864  54.807  1.00  0.00     0.060 C 
BRANCH  22  23
HETATM   23  C   UNL     1       7.593  24.673  55.627  1.00  0.00    -0.029 A 
HETATM   24  C   UNL     1       7.891  23.310  55.271  1.00  0.00    -0.000 A 
HETATM   25  C   UNL     1       8.235  22.636  56.449  1.00  0.00     0.043 A 
HETATM   26  C   UNL     1       7.909  22.562  54.072  1.00  0.00     0.038 A 
HETATM   27  C   UNL     1       8.578  21.278  56.492  1.00  0.00     0.032 A 
HETATM   28  N   UNL     1       8.170  23.546  57.475  1.00  0.00    -0.365 N 
HETATM   29  C   UNL     1       8.569  20.566  55.293  1.00  0.00     0.026 A 
HETATM   30  C   UNL     1       8.239  21.201  54.102  1.00  0.00     0.035 A 
HETATM   31 CL   UNL     1       8.228  20.293  52.638  1.00  0.00    -0.084 Cl
HETATM   32  H   UNL     1       8.381  23.337  58.441  1.00  0.00     0.165 HD
HETATM   33  C   UNL     1       7.783  24.763  56.997  1.00  0.00     0.096 A 
ENDBRANCH  22  23
ENDBRANCH  21  22
ENDBRANCH   2  21
TORSDOF 6
ENDMDL
