MODEL 1
REMARK VINA RESULT:      -9.5      0.000      0.000
REMARK  7 active torsions:
REMARK  status: ('A' for Active; 'I' for Inactive)
REMARK    1  A    between atoms: O_2  and  C_3 
REMARK    2  A    between atoms: C_5  and  C_6 
REMARK    3  A    between atoms: C_6  and  O_7 
REMARK    4  A    between atoms: C_6  and  C_8 
REMARK    5  A    between atoms: C_8  and  N_9 
REMARK       I    between atoms: N_9  and  C_10 
REMARK    6  A    between atoms: C_10  and  C_11 
REMARK    7  A    between atoms: C_12  and  C_13 
ROOT
HETATM    1  C   UNL     1       6.250  25.064  54.462  1.00  0.00     0.089 C 
HETATM    2  C   UNL     1       6.109  24.716  52.966  1.00  0.00     0.068 C 
HETATM    3  C   UNL     1       7.377  24.133  52.317  1.00  0.00     0.013 C 
HETATM    4  C   UNL     1       8.001  23.027  53.157  1.00  0.00     0.001 C 
HETATM    5  C   UNL     1       8.281  23.504  54.574  1.00  0.00     0.001 C 
HETATM    6  C   UNL     1       7.003  23.984  55.254  1.00  0.00     0.015 C 
ENDROOT
BRANCH   1   7
HETATM    7  C   UNL     1       6.789  26.453  54.833  1.00  0.00     0.222 C 
HETATM    8  N   UNL     1       5.934  27.297  55.494  1.00  0.00    -0.358 N 
HETATM    9  H   UNL     1       5.341  26.836  56.177  1.00  0.00     0.162 HD
HETATM   10  O   UNL     1       7.904  26.802  54.446  1.00  0.00    -0.273 OA
BRANCH   8  11
HETATM   11  C   UNL     1       6.335  28.638  55.896  1.00  0.00     0.159 C 
BRANCH  11  12
HETATM   12  C   UNL     1       6.875  28.813  57.332  1.00  0.00     0.169 C 
BRANCH  12  13
HETATM   13  C   UNL     1       8.224  29.500  57.418  1.00  0.00    -0.025 A 
HETATM   14  C   UNL     1       8.464  30.527  58.350  1.00  0.00     0.046 A 
HETATM   15  C   UNL     1       9.720  31.134  58.433  1.00  0.00     0.068 A 
HETATM   16  C   UNL     1      10.737  30.723  57.568  1.00  0.00     0.037 A 
HETATM   17  C   UNL     1      10.512  29.713  56.635  1.00  0.00     0.003 A 
HETATM   18  C   UNL     1       9.261  29.104  56.562  1.00  0.00     0.010 A 
BRANCH  15  19
HETATM   19  O   UNL     1      10.079  32.126  59.303  1.00  0.00    -0.356 OA
HETATM   20  C   UNL     1       9.508  32.077  60.604  1.00  0.00     0.210 C 
ENDBRANCH  15  19
ENDBRANCH  12  13
BRANCH  12  21
HETATM   21  O   UNL     1       5.924  29.582  58.087  1.00  0.00    -0.389 OA
HETATM   22  H   UNL     1       5.407  28.938  58.604  1.00  0.00     0.210 HD
ENDBRANCH  12  21
ENDBRANCH  11  12
ENDBRANCH   8  11
ENDBRANCH   1   7
BRANCH   2  23
HETATM   23  C   UNL     1       5.586  25.877  52.173  1.00  0.00     0.110 A 
HETATM   24  N   UNL     1       4.718  26.777  52.591  1.00  0.00    -0.233 NA
HETATM   25  C   UNL     1       4.495  27.604  51.516  1.00  0.00     0.087 A 
HETATM   26  C   UNL     1       5.248  27.201  50.419  1.00  0.00     0.062 A 
HETATM   27  C   UNL     1       3.656  28.719  51.405  1.00  0.00     0.057 A 
HETATM   28  N   UNL     1       5.934  26.100  50.864  1.00  0.00    -0.342 N 
HETATM   29  C   UNL     1       5.218  27.852  49.185  1.00  0.00     0.034 A 
HETATM   30  H   UNL     1       6.571  25.539  50.315  1.00  0.00     0.167 HD
HETATM   31  C   UNL     1       4.375  28.965  49.087  1.00  0.00     0.026 A 
HETATM   32  C   UNL     1       3.610  29.388  50.178  1.00  0.00     0.036 A 
HETATM   33 CL   UNL     1       2.586  30.764  50.006  1.00  0.00    -0.084 Cl
ENDBRANCH   2  23
TORSDOF 7
ENDMDL
MODEL 2
REMARK VINA RESULT:      -9.4      3.296      8.053
REMARK  7 active torsions:
REMARK  status: ('A' for Active; 'I' for Inactive)
REMARK    1  A    between atoms: O_2  and  C_3 
REMARK    2  A    between atoms: C_5  and  C_6 
REMARK    3  A    between atoms: C_6  and  O_7 
REMARK    4  A    between atoms: C_6  and  C_8 
REMARK    5  A    between atoms: C_8  and  N_9 
REMARK       I    between atoms: N_9  and  C_10 
REMARK    6  A    between atoms: C_10  and  C_11 
REMARK    7  A    between atoms: C_12  and  C_13 
ROOT
HETATM    1  C   UNL     1       5.469  27.801  56.583  1.00  0.00     0.089 C 
HETATM    2  C   UNL     1       6.661  26.949  57.066  1.00  0.00     0.068 C 
HETATM    3  C   UNL     1       7.942  27.747  57.372  1.00  0.00     0.013 C 
HETATM    4  C   UNL     1       7.669  28.977  58.227  1.00  0.00     0.001 C 
HETATM    5  C   UNL     1       6.609  29.864  57.591  1.00  0.00     0.001 C 
HETATM    6  C   UNL     1       5.305  29.101  57.386  1.00  0.00     0.015 C 
ENDROOT
BRANCH   1   7
HETATM    7  C   UNL     1       5.355  28.098  55.082  1.00  0.00     0.222 C 
HETATM    8  N   UNL     1       4.424  27.383  54.374  1.00  0.00    -0.358 N 
HETATM    9  H   UNL     1       3.558  27.217  54.877  1.00  0.00     0.162 HD
HETATM   10  O   UNL     1       6.151  28.869  54.546  1.00  0.00    -0.273 OA
BRANCH   8  11
HETATM   11  C   UNL     1       4.227  27.579  52.945  1.00  0.00     0.159 C 
BRANCH  11  12
HETATM   12  C   UNL     1       5.237  26.901  51.992  1.00  0.00     0.169 C 
BRANCH  12  13
HETATM   13  C   UNL     1       5.063  27.262  50.530  1.00  0.00    -0.025 A 
HETATM   14  C   UNL     1       4.594  26.321  49.595  1.00  0.00     0.046 A 
HETATM   15  C   UNL     1       4.416  26.676  48.255  1.00  0.00     0.068 A 
HETATM   16  C   UNL     1       4.724  27.976  47.845  1.00  0.00     0.037 A 
HETATM   17  C   UNL     1       5.196  28.916  48.758  1.00  0.00     0.003 A 
HETATM   18  C   UNL     1       5.363  28.561  50.094  1.00  0.00     0.010 A 
BRANCH  15  19
HETATM   19  O   UNL     1       3.955  25.860  47.259  1.00  0.00    -0.356 OA
HETATM   20  C   UNL     1       2.559  25.901  46.992  1.00  0.00     0.210 C 
ENDBRANCH  15  19
ENDBRANCH  12  13
BRANCH  12  21
HETATM   21  O   UNL     1       6.565  27.270  52.397  1.00  0.00    -0.389 OA
HETATM   22  H   UNL     1       6.483  28.134  52.838  1.00  0.00     0.210 HD
ENDBRANCH  12  21
ENDBRANCH  11  12
ENDBRANCH   8  11
ENDBRANCH   1   7
BRANCH   2  23
HETATM   23  C   UNL     1       6.946  25.813  56.130  1.00  0.00     0.110 A 
HETATM   24  N   UNL     1       6.820  24.530  56.402  1.00  0.00    -0.233 NA
HETATM   25  C   UNL     1       7.245  23.868  55.275  1.00  0.00     0.087 A 
HETATM   26  C   UNL     1       7.635  24.770  54.291  1.00  0.00     0.062 A 
HETATM   27  C   UNL     1       7.329  22.493  55.023  1.00  0.00     0.057 A 
HETATM   28  N   UNL     1       7.434  26.001  54.860  1.00  0.00    -0.342 N 
HETATM   29  C   UNL     1       8.118  24.382  53.040  1.00  0.00     0.034 A 
HETATM   30  H   UNL     1       7.631  26.892  54.426  1.00  0.00     0.167 HD
HETATM   31  C   UNL     1       8.197  23.005  52.802  1.00  0.00     0.026 A 
HETATM   32  C   UNL     1       7.809  22.081  53.776  1.00  0.00     0.036 A 
HETATM   33 CL   UNL     1       7.927  20.396  53.434  1.00  0.00    -0.084 Cl
ENDBRANCH   2  23
TORSDOF 7
ENDMDL
MODEL 3
REMARK VINA RESULT:      -9.4      3.320      7.389
REMARK  7 active torsions:
REMARK  status: ('A' for Active; 'I' for Inactive)
REMARK    1  A    between atoms: O_2  and  C_3 
REMARK    2  A    between atoms: C_5  and  C_6 
REMARK    3  A    between atoms: C_6  and  O_7 
REMARK    4  A    between atoms: C_6  and  C_8 
REMARK    5  A    between atoms: C_8  and  N_9 
REMARK       I    between atoms: N_9  and  C_10 
REMARK    6  A    between atoms: C_10  and  C_11 
REMARK    7  A    between atoms: C_12  and  C_13 
ROOT
HETATM    1  C   UNL     1       8.497  23.636  53.969  1.00  0.00     0.089 C 
HETATM    2  C   UNL     1       8.187  23.569  55.479  1.00  0.00     0.068 C 
HETATM    3  C   UNL     1       7.288  22.393  55.900  1.00  0.00     0.013 C 
HETATM    4  C   UNL     1       7.743  21.070  55.299  1.00  0.00     0.001 C 
HETATM    5  C   UNL     1       7.851  21.163  53.784  1.00  0.00     0.001 C 
HETATM    6  C   UNL     1       8.824  22.260  53.369  1.00  0.00     0.015 C 
ENDROOT
BRANCH   1   7
HETATM    7  C   UNL     1       7.508  24.379  53.061  1.00  0.00     0.222 C 
HETATM    8  N   UNL     1       6.176  24.108  53.236  1.00  0.00    -0.358 N 
HETATM    9  H   UNL     1       5.903  23.979  54.205  1.00  0.00     0.162 HD
HETATM   10  O   UNL     1       7.928  25.097  52.153  1.00  0.00    -0.273 OA
BRANCH   8  11
HETATM   11  C   UNL     1       5.147  24.752  52.433  1.00  0.00     0.159 C 
BRANCH  11  12
HETATM   12  C   UNL     1       5.080  26.295  52.474  1.00  0.00     0.169 C 
BRANCH  12  13
HETATM   13  C   UNL     1       5.082  26.961  51.111  1.00  0.00    -0.025 A 
HETATM   14  C   UNL     1       4.757  26.243  49.946  1.00  0.00     0.046 A 
HETATM   15  C   UNL     1       4.740  26.877  48.701  1.00  0.00     0.068 A 
HETATM   16  C   UNL     1       5.066  28.233  48.618  1.00  0.00     0.037 A 
HETATM   17  C   UNL     1       5.398  28.955  49.763  1.00  0.00     0.003 A 
HETATM   18  C   UNL     1       5.404  28.322  51.004  1.00  0.00     0.010 A 
BRANCH  15  19
HETATM   19  O   UNL     1       4.427  26.295  47.504  1.00  0.00    -0.356 OA
HETATM   20  C   UNL     1       3.045  26.110  47.223  1.00  0.00     0.210 C 
ENDBRANCH  15  19
ENDBRANCH  12  13
BRANCH  12  21
HETATM   21  O   UNL     1       3.884  26.683  53.168  1.00  0.00    -0.389 OA
HETATM   22  H   UNL     1       4.165  27.306  53.862  1.00  0.00     0.210 HD
ENDBRANCH  12  21
ENDBRANCH  11  12
ENDBRANCH   8  11
ENDBRANCH   1   7
BRANCH   2  23
HETATM   23  C   UNL     1       7.645  24.870  55.992  1.00  0.00     0.110 A 
HETATM   24  N   UNL     1       6.404  25.297  55.875  1.00  0.00    -0.233 NA
HETATM   25  C   UNL     1       6.389  26.550  56.438  1.00  0.00     0.087 A 
HETATM   26  C   UNL     1       7.650  26.894  56.914  1.00  0.00     0.062 A 
HETATM   27  C   UNL     1       5.330  27.457  56.573  1.00  0.00     0.057 A 
HETATM   28  N   UNL     1       8.431  25.806  56.619  1.00  0.00    -0.342 N 
HETATM   29  C   UNL     1       7.934  28.113  57.530  1.00  0.00     0.034 A 
HETATM   30  H   UNL     1       9.419  25.719  56.812  1.00  0.00     0.167 HD
HETATM   31  C   UNL     1       6.867  29.010  57.658  1.00  0.00     0.026 A 
HETATM   32  C   UNL     1       5.591  28.685  57.188  1.00  0.00     0.036 A 
HETATM   33 CL   UNL     1       4.311  29.825  57.369  1.00  0.00    -0.084 Cl
ENDBRANCH   2  23
TORSDOF 7
ENDMDL
MODEL 4
REMARK VINA RESULT:      -9.4      1.756      2.353
REMARK  7 active torsions:
REMARK  status: ('A' for Active; 'I' for Inactive)
REMARK    1  A    between atoms: O_2  and  C_3 
REMARK    2  A    between atoms: C_5  and  C_6 
REMARK    3  A    between atoms: C_6  and  O_7 
REMARK    4  A    between atoms: C_6  and  C_8 
REMARK    5  A    between atoms: C_8  and  N_9 
REMARK       I    between atoms: N_9  and  C_10 
REMARK    6  A    between atoms: C_10  and  C_11 
REMARK    7  A    between atoms: C_12  and  C_13 
ROOT
HETATM    1  C   UNL     1       7.266  22.975  55.550  1.00  0.00     0.089 C 
HETATM    2  C   UNL     1       6.979  23.031  54.034  1.00  0.00     0.068 C 
HETATM    3  C   UNL     1       8.166  22.634  53.139  1.00  0.00     0.013 C 
HETATM    4  C   UNL     1       8.834  21.345  53.598  1.00  0.00     0.001 C 
HETATM    5  C   UNL     1       9.254  21.434  55.058  1.00  0.00     0.001 C 
HETATM    6  C   UNL     1       8.058  21.723  55.958  1.00  0.00     0.015 C 
ENDROOT
BRANCH   1   7
HETATM    7  C   UNL     1       7.874  24.217  56.216  1.00  0.00     0.222 C 
HETATM    8  N   UNL     1       7.035  24.990  56.976  1.00  0.00    -0.358 N 
HETATM    9  H   UNL     1       6.361  24.460  57.520  1.00  0.00     0.162 HD
HETATM   10  O   UNL     1       9.037  24.537  55.971  1.00  0.00    -0.273 OA
BRANCH   8  11
HETATM   11  C   UNL     1       7.500  26.191  57.655  1.00  0.00     0.159 C 
BRANCH  11  12
HETATM   12  C   UNL     1       7.387  27.526  56.886  1.00  0.00     0.169 C 
BRANCH  12  13
HETATM   13  C   UNL     1       8.283  28.632  57.411  1.00  0.00    -0.025 A 
HETATM   14  C   UNL     1       7.924  29.389  58.541  1.00  0.00     0.046 A 
HETATM   15  C   UNL     1       8.771  30.389  59.027  1.00  0.00     0.068 A 
HETATM   16  C   UNL     1       9.976  30.644  58.369  1.00  0.00     0.037 A 
HETATM   17  C   UNL     1      10.342  29.908  57.244  1.00  0.00     0.003 A 
HETATM   18  C   UNL     1       9.499  28.905  56.768  1.00  0.00     0.010 A 
BRANCH  15  19
HETATM   19  O   UNL     1       8.542  31.178  60.120  1.00  0.00    -0.356 OA
HETATM   20  C   UNL     1       9.053  30.715  61.364  1.00  0.00     0.210 C 
ENDBRANCH  15  19
ENDBRANCH  12  13
BRANCH  12  21
HETATM   21  O   UNL     1       7.717  27.290  55.508  1.00  0.00    -0.389 OA
HETATM   22  H   UNL     1       6.980  27.656  54.987  1.00  0.00     0.210 HD
ENDBRANCH  12  21
ENDBRANCH  11  12
ENDBRANCH   8  11
ENDBRANCH   1   7
BRANCH   2  23
HETATM   23  C   UNL     1       6.417  24.359  53.625  1.00  0.00     0.110 A 
HETATM   24  N   UNL     1       5.635  25.132  54.352  1.00  0.00    -0.233 NA
HETATM   25  C   UNL     1       5.329  26.207  53.553  1.00  0.00     0.087 A 
HETATM   26  C   UNL     1       5.942  26.089  52.310  1.00  0.00     0.062 A 
HETATM   27  C   UNL     1       4.525  27.322  53.823  1.00  0.00     0.057 A 
HETATM   28  N   UNL     1       6.630  24.905  52.383  1.00  0.00    -0.342 N 
HETATM   29  C   UNL     1       5.803  27.033  51.291  1.00  0.00     0.034 A 
HETATM   30  H   UNL     1       7.181  24.496  51.641  1.00  0.00     0.167 HD
HETATM   31  C   UNL     1       4.997  28.141  51.574  1.00  0.00     0.026 A 
HETATM   32  C   UNL     1       4.372  28.281  52.817  1.00  0.00     0.036 A 
HETATM   33 CL   UNL     1       3.389  29.664  53.115  1.00  0.00    -0.084 Cl
ENDBRANCH   2  23
TORSDOF 7
ENDMDL
MODEL 5
REMARK VINA RESULT:      -8.9      3.832      7.810
REMARK  7 active torsions:
REMARK  status: ('A' for Active; 'I' for Inactive)
REMARK    1  A    between atoms: O_2  and  C_3 
REMARK    2  A    between atoms: C_5  and  C_6 
REMARK    3  A    between atoms: C_6  and  O_7 
REMARK    4  A    between atoms: C_6  and  C_8 
REMARK    5  A    between atoms: C_8  and  N_9 
REMARK       I    between atoms: N_9  and  C_10 
REMARK    6  A    between atoms: C_10  and  C_11 
REMARK    7  A    between atoms: C_12  and  C_13 
ROOT
HETATM    1  C   UNL     1       8.755  31.958  59.641  1.00  0.00     0.089 C 
HETATM    2  C   UNL     1       7.349  32.458  60.034  1.00  0.00     0.068 C 
HETATM    3  C   UNL     1       6.856  31.979  61.411  1.00  0.00     0.013 C 
HETATM    4  C   UNL     1       7.908  32.159  62.498  1.00  0.00     0.001 C 
HETATM    5  C   UNL     1       9.215  31.480  62.116  1.00  0.00     0.001 C 
HETATM    6  C   UNL     1       9.757  32.031  60.803  1.00  0.00     0.015 C 
ENDROOT
BRANCH   1   7
HETATM    7  C   UNL     1       8.867  30.597  58.941  1.00  0.00     0.222 C 
HETATM    8  N   UNL     1       9.393  30.588  57.675  1.00  0.00    -0.358 N 
HETATM    9  H   UNL     1      10.160  31.239  57.539  1.00  0.00     0.162 HD
HETATM   10  O   UNL     1       8.398  29.591  59.474  1.00  0.00    -0.273 OA
BRANCH   8  11
HETATM   11  C   UNL     1       9.548  29.357  56.914  1.00  0.00     0.159 C 
BRANCH  11  12
HETATM   12  C   UNL     1       8.421  28.992  55.922  1.00  0.00     0.169 C 
BRANCH  12  13
HETATM   13  C   UNL     1       7.860  27.594  56.093  1.00  0.00    -0.025 A 
HETATM   14  C   UNL     1       7.263  26.908  55.018  1.00  0.00     0.046 A 
HETATM   15  C   UNL     1       6.773  25.610  55.186  1.00  0.00     0.068 A 
HETATM   16  C   UNL     1       6.865  25.001  56.439  1.00  0.00     0.037 A 
HETATM   17  C   UNL     1       7.446  25.669  57.514  1.00  0.00     0.003 A 
HETATM   18  C   UNL     1       7.942  26.960  57.341  1.00  0.00     0.010 A 
BRANCH  15  19
HETATM   19  O   UNL     1       6.189  24.839  54.219  1.00  0.00    -0.356 OA
HETATM   20  C   UNL     1       6.879  23.654  53.842  1.00  0.00     0.210 C 
ENDBRANCH  15  19
ENDBRANCH  12  13
BRANCH  12  21
HETATM   21  O   UNL     1       7.348  29.935  56.081  1.00  0.00    -0.389 OA
HETATM   22  H   UNL     1       6.973  30.070  55.193  1.00  0.00     0.210 HD
ENDBRANCH  12  21
ENDBRANCH  11  12
ENDBRANCH   8  11
ENDBRANCH   1   7
BRANCH   2  23
HETATM   23  C   UNL     1       6.336  32.161  58.968  1.00  0.00     0.110 A 
HETATM   24  N   UNL     1       5.890  33.006  58.061  1.00  0.00    -0.233 NA
HETATM   25  C   UNL     1       4.943  32.315  57.345  1.00  0.00     0.087 A 
HETATM   26  C   UNL     1       4.811  31.016  57.824  1.00  0.00     0.062 A 
HETATM   27  C   UNL     1       4.149  32.738  56.271  1.00  0.00     0.057 A 
HETATM   28  N   UNL     1       5.711  30.944  58.856  1.00  0.00    -0.342 N 
HETATM   29  C   UNL     1       3.917  30.087  57.291  1.00  0.00     0.034 A 
HETATM   30  H   UNL     1       5.870  30.138  59.446  1.00  0.00     0.167 HD
HETATM   31  C   UNL     1       3.130  30.523  56.219  1.00  0.00     0.026 A 
HETATM   32  C   UNL     1       3.246  31.823  55.721  1.00  0.00     0.036 A 
HETATM   33 CL   UNL     1       2.253  32.311  54.400  1.00  0.00    -0.084 Cl
ENDBRANCH   2  23
TORSDOF 7
ENDMDL
MODEL 6
REMARK VINA RESULT:      -8.8      3.442      7.182
REMARK  7 active torsions:
REMARK  status: ('A' for Active; 'I' for Inactive)
REMARK    1  A    between atoms: O_2  and  C_3 
REMARK    2  A    between atoms: C_5  and  C_6 
REMARK    3  A    between atoms: C_6  and  O_7 
REMARK    4  A    between atoms: C_6  and  C_8 
REMARK    5  A    between atoms: C_8  and  N_9 
REMARK       I    between atoms: N_9  and  C_10 
REMARK    6  A    between atoms: C_10  and  C_11 
REMARK    7  A    between atoms: C_12  and  C_13 
ROOT
HETATM    1  C   UNL     1       8.912  23.271  54.799  1.00  0.00     0.089 C 
HETATM    2  C   UNL     1       8.692  23.516  56.307  1.00  0.00     0.068 C 
HETATM    3  C   UNL     1       7.920  22.401  57.035  1.00  0.00     0.013 C 
HETATM    4  C   UNL     1       8.451  21.014  56.700  1.00  0.00     0.001 C 
HETATM    5  C   UNL     1       8.467  20.779  55.197  1.00  0.00     0.001 C 
HETATM    6  C   UNL     1       9.320  21.823  54.487  1.00  0.00     0.015 C 
ENDROOT
BRANCH   1   7
HETATM    7  C   UNL     1       7.816  23.726  53.827  1.00  0.00     0.222 C 
HETATM    8  N   UNL     1       8.141  24.721  52.941  1.00  0.00    -0.358 N 
HETATM    9  H   UNL     1       9.085  24.656  52.573  1.00  0.00     0.162 HD
HETATM   10  O   UNL     1       6.675  23.276  53.933  1.00  0.00    -0.273 OA
BRANCH   8  11
HETATM   11  C   UNL     1       7.183  25.232  51.972  1.00  0.00     0.159 C 
BRANCH  11  12
HETATM   12  C   UNL     1       6.280  26.403  52.421  1.00  0.00     0.169 C 
BRANCH  12  13
HETATM   13  C   UNL     1       5.363  26.941  51.340  1.00  0.00    -0.025 A 
HETATM   14  C   UNL     1       4.840  28.246  51.406  1.00  0.00     0.046 A 
HETATM   15  C   UNL     1       4.016  28.735  50.390  1.00  0.00     0.068 A 
HETATM   16  C   UNL     1       3.698  27.909  49.309  1.00  0.00     0.037 A 
HETATM   17  C   UNL     1       4.201  26.612  49.233  1.00  0.00     0.003 A 
HETATM   18  C   UNL     1       5.031  26.131  50.244  1.00  0.00     0.010 A 
BRANCH  15  19
HETATM   19  O   UNL     1       3.462  29.984  50.333  1.00  0.00    -0.356 OA
HETATM   20  C   UNL     1       2.046  30.063  50.444  1.00  0.00     0.210 C 
ENDBRANCH  15  19
ENDBRANCH  12  13
BRANCH  12  21
HETATM   21  O   UNL     1       5.472  25.961  53.524  1.00  0.00    -0.389 OA
HETATM   22  H   UNL     1       4.732  25.463  53.134  1.00  0.00     0.210 HD
ENDBRANCH  12  21
ENDBRANCH  11  12
ENDBRANCH   8  11
ENDBRANCH   1   7
BRANCH   2  23
HETATM   23  C   UNL     1       8.073  24.856  56.567  1.00  0.00     0.110 A 
HETATM   24  N   UNL     1       8.698  25.932  57.001  1.00  0.00    -0.233 NA
HETATM   25  C   UNL     1       7.727  26.893  57.144  1.00  0.00     0.087 A 
HETATM   26  C   UNL     1       6.480  26.393  56.785  1.00  0.00     0.062 A 
HETATM   27  C   UNL     1       7.838  28.219  57.582  1.00  0.00     0.057 A 
HETATM   28  N   UNL     1       6.728  25.095  56.420  1.00  0.00    -0.342 N 
HETATM   29  C   UNL     1       5.305  27.145  56.836  1.00  0.00     0.034 A 
HETATM   30  H   UNL     1       6.036  24.424  56.116  1.00  0.00     0.167 HD
HETATM   31  C   UNL     1       5.431  28.467  57.276  1.00  0.00     0.026 A 
HETATM   32  C   UNL     1       6.674  28.991  57.642  1.00  0.00     0.036 A 
HETATM   33 CL   UNL     1       6.775  30.626  58.178  1.00  0.00    -0.084 Cl
ENDBRANCH   2  23
TORSDOF 7
ENDMDL
MODEL 7
REMARK VINA RESULT:      -8.7      3.513      7.651
REMARK  7 active torsions:
REMARK  status: ('A' for Active; 'I' for Inactive)
REMARK    1  A    between atoms: O_2  and  C_3 
REMARK    2  A    between atoms: C_5  and  C_6 
REMARK    3  A    between atoms: C_6  and  O_7 
REMARK    4  A    between atoms: C_6  and  C_8 
REMARK    5  A    between atoms: C_8  and  N_9 
REMARK       I    between atoms: N_9  and  C_10 
REMARK    6  A    between atoms: C_10  and  C_11 
REMARK    7  A    between atoms: C_12  and  C_13 
ROOT
HETATM    1  C   UNL     1       7.745  24.552  53.348  1.00  0.00     0.089 C 
HETATM    2  C   UNL     1       7.721  24.825  54.867  1.00  0.00     0.068 C 
HETATM    3  C   UNL     1       7.162  23.672  55.720  1.00  0.00     0.013 C 
HETATM    4  C   UNL     1       7.761  22.325  55.338  1.00  0.00     0.001 C 
HETATM    5  C   UNL     1       7.582  22.045  53.853  1.00  0.00     0.001 C 
HETATM    6  C   UNL     1       8.230  23.134  53.007  1.00  0.00     0.015 C 
ENDROOT
BRANCH   1   7
HETATM    7  C   UNL     1       6.485  24.881  52.536  1.00  0.00     0.222 C 
HETATM    8  N   UNL     1       6.614  25.806  51.532  1.00  0.00    -0.358 N 
HETATM    9  H   UNL     1       7.488  25.744  51.020  1.00  0.00     0.162 HD
HETATM   10  O   UNL     1       5.400  24.401  52.864  1.00  0.00    -0.273 OA
BRANCH   8  11
HETATM   11  C   UNL     1       5.488  26.197  50.696  1.00  0.00     0.159 C 
BRANCH  11  12
HETATM   12  C   UNL     1       4.974  27.647  50.836  1.00  0.00     0.169 C 
BRANCH  12  13
HETATM   13  C   UNL     1       4.489  28.271  49.541  1.00  0.00    -0.025 A 
HETATM   14  C   UNL     1       3.399  27.732  48.833  1.00  0.00     0.046 A 
HETATM   15  C   UNL     1       2.949  28.332  47.654  1.00  0.00     0.068 A 
HETATM   16  C   UNL     1       3.604  29.467  47.171  1.00  0.00     0.037 A 
HETATM   17  C   UNL     1       4.690  30.007  47.856  1.00  0.00     0.003 A 
HETATM   18  C   UNL     1       5.129  29.412  49.037  1.00  0.00     0.010 A 
BRANCH  15  19
HETATM   19  O   UNL     1       1.895  27.914  46.889  1.00  0.00    -0.356 OA
HETATM   20  C   UNL     1       0.837  27.246  47.564  1.00  0.00     0.210 C 
ENDBRANCH  15  19
ENDBRANCH  12  13
BRANCH  12  21
HETATM   21  O   UNL     1       3.891  27.660  51.780  1.00  0.00    -0.389 OA
HETATM   22  H   UNL     1       3.627  28.593  51.874  1.00  0.00     0.210 HD
ENDBRANCH  12  21
ENDBRANCH  11  12
ENDBRANCH   8  11
ENDBRANCH   1   7
BRANCH   2  23
HETATM   23  C   UNL     1       7.029  26.115  55.188  1.00  0.00     0.110 A 
HETATM   24  N   UNL     1       7.608  27.283  55.380  1.00  0.00    -0.233 NA
HETATM   25  C   UNL     1       6.594  28.152  55.701  1.00  0.00     0.087 A 
HETATM   26  C   UNL     1       5.366  27.500  55.701  1.00  0.00     0.062 A 
HETATM   27  C   UNL     1       6.650  29.517  56.011  1.00  0.00     0.057 A 
HETATM   28  N   UNL     1       5.670  26.205  55.370  1.00  0.00    -0.342 N 
HETATM   29  C   UNL     1       4.158  28.133  55.998  1.00  0.00     0.034 A 
HETATM   30  H   UNL     1       5.010  25.444  55.293  1.00  0.00     0.167 HD
HETATM   31  C   UNL     1       4.229  29.497  56.307  1.00  0.00     0.026 A 
HETATM   32  C   UNL     1       5.452  30.172  56.312  1.00  0.00     0.036 A 
HETATM   33 CL   UNL     1       5.486  31.851  56.700  1.00  0.00    -0.084 Cl
ENDBRANCH   2  23
TORSDOF 7
ENDMDL
MODEL 8
REMARK VINA RESULT:      -8.7      3.457      7.141
REMARK  7 active torsions:
REMARK  status: ('A' for Active; 'I' for Inactive)
REMARK    1  A    between atoms: O_2  and  C_3 
REMARK    2  A    between atoms: C_5  and  C_6 
REMARK    3  A    between atoms: C_6  and  O_7 
REMARK    4  A    between atoms: C_6  and  C_8 
REMARK    5  A    between atoms: C_8  and  N_9 
REMARK       I    between atoms: N_9  and  C_10 
REMARK    6  A    between atoms: C_10  and  C_11 
REMARK    7  A    between atoms: C_12  and  C_13 
ROOT
HETATM    1  C   UNL     1       4.175  27.450  50.802  1.00  0.00     0.089 C 
HETATM    2  C   UNL     1       4.527  28.891  51.228  1.00  0.00     0.068 C 
HETATM    3  C   UNL     1       5.586  29.582  50.351  1.00  0.00     0.013 C 
HETATM    4  C   UNL     1       5.299  29.426  48.864  1.00  0.00     0.001 C 
HETATM    5  C   UNL     1       5.145  27.960  48.485  1.00  0.00     0.001 C 
HETATM    6  C   UNL     1       4.023  27.302  49.280  1.00  0.00     0.015 C 
ENDROOT
BRANCH   1   7
HETATM    7  C   UNL     1       5.034  26.304  51.354  1.00  0.00     0.222 C 
HETATM    8  N   UNL     1       4.680  25.794  52.576  1.00  0.00    -0.358 N 
HETATM    9  H   UNL     1       3.679  25.731  52.726  1.00  0.00     0.162 HD
HETATM   10  O   UNL     1       6.050  25.954  50.754  1.00  0.00    -0.273 OA
BRANCH   8  11
HETATM   11  C   UNL     1       5.421  24.706  53.199  1.00  0.00     0.159 C 
BRANCH  11  12
HETATM   12  C   UNL     1       6.548  25.090  54.183  1.00  0.00     0.169 C 
BRANCH  12  13
HETATM   13  C   UNL     1       7.215  23.912  54.867  1.00  0.00    -0.025 A 
HETATM   14  C   UNL     1       7.407  22.689  54.198  1.00  0.00     0.046 A 
HETATM   15  C   UNL     1       8.044  21.621  54.834  1.00  0.00     0.068 A 
HETATM   16  C   UNL     1       8.477  21.771  56.154  1.00  0.00     0.037 A 
HETATM   17  C   UNL     1       8.288  22.973  56.833  1.00  0.00     0.003 A 
HETATM   18  C   UNL     1       7.660  24.039  56.191  1.00  0.00     0.010 A 
BRANCH  15  19
HETATM   19  O   UNL     1       8.301  20.395  54.287  1.00  0.00    -0.356 OA
HETATM   20  C   UNL     1       8.462  20.343  52.875  1.00  0.00     0.210 C 
ENDBRANCH  15  19
ENDBRANCH  12  13
BRANCH  12  21
HETATM   21  O   UNL     1       7.552  25.825  53.464  1.00  0.00    -0.389 OA
HETATM   22  H   UNL     1       7.076  26.346  52.792  1.00  0.00     0.210 HD
ENDBRANCH  12  21
ENDBRANCH  11  12
ENDBRANCH   8  11
ENDBRANCH   1   7
BRANCH   2  23
HETATM   23  C   UNL     1       4.900  28.964  52.679  1.00  0.00     0.110 A 
HETATM   24  N   UNL     1       6.069  28.651  53.199  1.00  0.00    -0.233 NA
HETATM   25  C   UNL     1       5.928  28.818  54.556  1.00  0.00     0.087 A 
HETATM   26  C   UNL     1       4.643  29.247  54.870  1.00  0.00     0.062 A 
HETATM   27  C   UNL     1       6.858  28.616  55.583  1.00  0.00     0.057 A 
HETATM   28  N   UNL     1       4.009  29.334  53.657  1.00  0.00    -0.342 N 
HETATM   29  C   UNL     1       4.211  29.493  56.174  1.00  0.00     0.034 A 
HETATM   30  H   UNL     1       3.046  29.603  53.512  1.00  0.00     0.167 HD
HETATM   31  C   UNL     1       5.150  29.287  57.191  1.00  0.00     0.026 A 
HETATM   32  C   UNL     1       6.448  28.857  56.898  1.00  0.00     0.036 A 
HETATM   33 CL   UNL     1       7.567  28.616  58.187  1.00  0.00    -0.084 Cl
ENDBRANCH   2  23
TORSDOF 7
ENDMDL
MODEL 9
REMARK VINA RESULT:      -8.6      1.350      2.096
REMARK  7 active torsions:
REMARK  status: ('A' for Active; 'I' for Inactive)
REMARK    1  A    between atoms: O_2  and  C_3 
REMARK    2  A    between atoms: C_5  and  C_6 
REMARK    3  A    between atoms: C_6  and  O_7 
REMARK    4  A    between atoms: C_6  and  C_8 
REMARK    5  A    between atoms: C_8  and  N_9 
REMARK       I    between atoms: N_9  and  C_10 
REMARK    6  A    between atoms: C_10  and  C_11 
REMARK    7  A    between atoms: C_12  and  C_13 
ROOT
HETATM    1  C   UNL     1       6.167  25.097  54.621  1.00  0.00     0.089 C 
HETATM    2  C   UNL     1       5.988  24.639  53.159  1.00  0.00     0.068 C 
HETATM    3  C   UNL     1       7.232  23.985  52.531  1.00  0.00     0.013 C 
HETATM    4  C   UNL     1       7.855  22.935  53.441  1.00  0.00     0.001 C 
HETATM    5  C   UNL     1       8.173  23.513  54.812  1.00  0.00     0.001 C 
HETATM    6  C   UNL     1       6.918  24.066  55.478  1.00  0.00     0.015 C 
ENDROOT
BRANCH   1   7
HETATM    7  C   UNL     1       6.736  26.499  54.874  1.00  0.00     0.222 C 
HETATM    8  N   UNL     1       6.153  27.238  55.871  1.00  0.00    -0.358 N 
HETATM    9  H   UNL     1       5.885  26.697  56.687  1.00  0.00     0.162 HD
HETATM   10  O   UNL     1       7.604  26.954  54.129  1.00  0.00    -0.273 OA
BRANCH   8  11
HETATM   11  C   UNL     1       6.609  28.581  56.201  1.00  0.00     0.159 C 
BRANCH  11  12
HETATM   12  C   UNL     1       7.690  28.712  57.297  1.00  0.00     0.169 C 
BRANCH  12  13
HETATM   13  C   UNL     1       7.506  29.897  58.225  1.00  0.00    -0.025 A 
HETATM   14  C   UNL     1       8.326  30.077  59.353  1.00  0.00     0.046 A 
HETATM   15  C   UNL     1       8.160  31.187  60.185  1.00  0.00     0.068 A 
HETATM   16  C   UNL     1       7.155  32.114  59.897  1.00  0.00     0.037 A 
HETATM   17  C   UNL     1       6.330  31.946  58.787  1.00  0.00     0.003 A 
HETATM   18  C   UNL     1       6.506  30.842  57.954  1.00  0.00     0.010 A 
BRANCH  15  19
HETATM   19  O   UNL     1       8.900  31.479  61.297  1.00  0.00    -0.356 OA
HETATM   20  C   UNL     1       8.464  30.911  62.526  1.00  0.00     0.210 C 
ENDBRANCH  15  19
ENDBRANCH  12  13
BRANCH  12  21
HETATM   21  O   UNL     1       7.688  27.512  58.086  1.00  0.00    -0.389 OA
HETATM   22  H   UNL     1       7.647  27.800  59.015  1.00  0.00     0.210 HD
ENDBRANCH  12  21
ENDBRANCH  11  12
ENDBRANCH   8  11
ENDBRANCH   1   7
BRANCH   2  23
HETATM   23  C   UNL     1       5.467  25.746  52.291  1.00  0.00     0.110 A 
HETATM   24  N   UNL     1       5.812  25.983  51.041  1.00  0.00    -0.233 NA
HETATM   25  C   UNL     1       5.131  27.120  50.678  1.00  0.00     0.087 A 
HETATM   26  C   UNL     1       4.349  27.584  51.730  1.00  0.00     0.062 A 
HETATM   27  C   UNL     1       5.137  27.816  49.462  1.00  0.00     0.057 A 
HETATM   28  N   UNL     1       4.580  26.691  52.744  1.00  0.00    -0.342 N 
HETATM   29  C   UNL     1       3.552  28.727  51.650  1.00  0.00     0.034 A 
HETATM   30  H   UNL     1       4.181  26.734  53.672  1.00  0.00     0.167 HD
HETATM   31  C   UNL     1       3.568  29.414  50.430  1.00  0.00     0.026 A 
HETATM   32  C   UNL     1       4.346  28.964  49.359  1.00  0.00     0.036 A 
HETATM   33 CL   UNL     1       4.331  29.846  47.878  1.00  0.00    -0.084 Cl
ENDBRANCH   2  23
TORSDOF 7
ENDMDL
MODEL 10
REMARK VINA RESULT:      -8.4      3.606      8.263
REMARK  7 active torsions:
REMARK  status: ('A' for Active; 'I' for Inactive)
REMARK    1  A    between atoms: O_2  and  C_3 
REMARK    2  A    between atoms: C_5  and  C_6 
REMARK    3  A    between atoms: C_6  and  O_7 
REMARK    4  A    between atoms: C_6  and  C_8 
REMARK    5  A    between atoms: C_8  and  N_9 
REMARK       I    between atoms: N_9  and  C_10 
REMARK    6  A    between atoms: C_10  and  C_11 
REMARK    7  A    between atoms: C_12  and  C_13 
ROOT
HETATM    1  C   UNL     1       7.406  25.443  52.666  1.00  0.00     0.089 C 
HETATM    2  C   UNL     1       7.585  25.559  54.195  1.00  0.00     0.068 C 
HETATM    3  C   UNL     1       7.222  24.289  54.985  1.00  0.00     0.013 C 
HETATM    4  C   UNL     1       7.839  23.035  54.380  1.00  0.00     0.001 C 
HETATM    5  C   UNL     1       7.466  22.892  52.912  1.00  0.00     0.001 C 
HETATM    6  C   UNL     1       7.921  24.106  52.109  1.00  0.00     0.015 C 
ENDROOT
BRANCH   1   7
HETATM    7  C   UNL     1       6.026  25.757  52.074  1.00  0.00     0.222 C 
HETATM    8  N   UNL     1       5.959  26.772  51.154  1.00  0.00    -0.358 N 
HETATM    9  H   UNL     1       6.751  26.810  50.520  1.00  0.00     0.162 HD
HETATM   10  O   UNL     1       5.027  25.182  52.506  1.00  0.00    -0.273 OA
BRANCH   8  11
HETATM   11  C   UNL     1       4.704  27.159  50.526  1.00  0.00     0.159 C 
BRANCH  11  12
HETATM   12  C   UNL     1       4.354  26.493  49.176  1.00  0.00     0.169 C 
BRANCH  12  13
HETATM   13  C   UNL     1       3.151  27.091  48.473  1.00  0.00    -0.025 A 
HETATM   14  C   UNL     1       2.693  28.386  48.780  1.00  0.00     0.046 A 
HETATM   15  C   UNL     1       1.597  28.932  48.106  1.00  0.00     0.068 A 
HETATM   16  C   UNL     1       0.945  28.172  47.132  1.00  0.00     0.037 A 
HETATM   17  C   UNL     1       1.381  26.886  46.823  1.00  0.00     0.003 A 
HETATM   18  C   UNL     1       2.480  26.348  47.490  1.00  0.00     0.010 A 
BRANCH  15  19
HETATM   19  O   UNL     1       1.070  30.179  48.302  1.00  0.00    -0.356 OA
HETATM   20  C   UNL     1       0.030  30.581  47.420  1.00  0.00     0.210 C 
ENDBRANCH  15  19
ENDBRANCH  12  13
BRANCH  12  21
HETATM   21  O   UNL     1       5.491  26.602  48.304  1.00  0.00    -0.389 OA
HETATM   22  H   UNL     1       5.592  25.729  47.883  1.00  0.00     0.210 HD
ENDBRANCH  12  21
ENDBRANCH  11  12
ENDBRANCH   8  11
ENDBRANCH   1   7
BRANCH   2  23
HETATM   23  C   UNL     1       6.871  26.757  54.746  1.00  0.00     0.110 A 
HETATM   24  N   UNL     1       7.414  27.923  55.034  1.00  0.00    -0.233 NA
HETATM   25  C   UNL     1       6.399  28.684  55.561  1.00  0.00     0.087 A 
HETATM   26  C   UNL     1       5.208  27.967  55.592  1.00  0.00     0.062 A 
HETATM   27  C   UNL     1       6.425  30.000  56.040  1.00  0.00     0.057 A 
HETATM   28  N   UNL     1       5.536  26.744  55.067  1.00  0.00    -0.342 N 
HETATM   29  C   UNL     1       4.010  28.487  56.084  1.00  0.00     0.034 A 
HETATM   30  H   UNL     1       4.906  25.961  54.955  1.00  0.00     0.167 HD
HETATM   31  C   UNL     1       4.050  29.802  56.560  1.00  0.00     0.026 A 
HETATM   32  C   UNL     1       5.235  30.542  56.537  1.00  0.00     0.036 A 
HETATM   33 CL   UNL     1       5.232  32.158  57.137  1.00  0.00    -0.084 Cl
ENDBRANCH   2  23
TORSDOF 7
ENDMDL
