MODEL 1
REMARK VINA RESULT:      -9.7      0.000      0.000
REMARK  6 active torsions:
REMARK  status: ('A' for Active; 'I' for Inactive)
REMARK    1  A    between atoms: C_2  and  O_3 
REMARK    2  A    between atoms: C_2  and  C_4 
REMARK    3  A    between atoms: C_7  and  N_8 
REMARK       I    between atoms: N_8  and  C_9 
REMARK    4  A    between atoms: C_9  and  C_10 
REMARK    5  A    between atoms: C_13  and  C_14 
REMARK    6  A    between atoms: C_19  and  C_20 
ROOT
HETATM    1  C   UNL     1       6.451  28.057  56.557  1.00  0.00     0.096 A 
HETATM    2  C   UNL     1       6.613  29.233  57.267  1.00  0.00     0.138 A 
HETATM    3  N   UNL     1       5.479  29.975  57.022  1.00  0.00    -0.240 N 
HETATM    4  C   UNL     1       5.229  31.288  57.583  1.00  0.00     0.221 C 
HETATM    5  C   UNL     1       6.061  31.475  58.863  1.00  0.00     0.068 C 
HETATM    6  C   UNL     1       7.524  31.080  58.620  1.00  0.00     0.143 C 
HETATM    7  N   UNL     1       7.577  29.706  58.098  1.00  0.00    -0.363 N 
HETATM    8  N   UNL     1       4.626  29.397  56.168  1.00  0.00    -0.181 NA
HETATM    9  C   UNL     1       5.193  28.213  55.922  1.00  0.00     0.160 A 
HETATM   10  H   UNL     1       8.159  29.085  58.664  1.00  0.00     0.162 HD
ENDROOT
BRANCH   1  11
HETATM   11  C   UNL     1       7.323  26.903  56.402  1.00  0.00     0.261 C 
HETATM   12  N   UNL     1       6.879  25.980  55.472  1.00  0.00    -0.323 N 
HETATM   13  H   UNL     1       6.002  26.207  55.018  1.00  0.00     0.169 HD
HETATM   14  O   UNL     1       8.318  26.790  57.107  1.00  0.00    -0.267 OA
BRANCH  12  15
HETATM   15  C   UNL     1       7.426  24.709  55.198  1.00  0.00     0.035 A 
HETATM   16  C   UNL     1       7.576  23.702  56.153  1.00  0.00     0.030 A 
HETATM   17  C   UNL     1       8.066  22.440  55.793  1.00  0.00     0.012 A 
HETATM   18  C   UNL     1       8.422  22.161  54.471  1.00  0.00    -0.030 A 
HETATM   19  C   UNL     1       8.303  23.183  53.519  1.00  0.00     0.012 A 
HETATM   20  C   UNL     1       7.811  24.443  53.880  1.00  0.00     0.030 A 
BRANCH  18  21
HETATM   21  C   UNL     1       8.905  20.779  54.087  1.00  0.00     0.147 C 
HETATM   22  C   UNL     1       8.294  20.272  52.790  1.00  0.00     0.044 C 
BRANCH  21  23
HETATM   23  O   UNL     1       8.598  19.855  55.132  1.00  0.00    -0.391 OA
HETATM   24  H   UNL     1       8.224  19.063  54.709  1.00  0.00     0.210 HD
ENDBRANCH  21  23
ENDBRANCH  18  21
ENDBRANCH  12  15
ENDBRANCH   1  11
BRANCH   4  25
HETATM   25  C   UNL     1       3.765  31.526  57.892  1.00  0.00     0.409 C 
HETATM   26  F   UNL     1       3.215  30.521  58.609  1.00  0.00    -0.169 F 
HETATM   27  F   UNL     1       3.647  32.648  58.656  1.00  0.00    -0.169 F 
HETATM   28  F   UNL     1       3.008  31.744  56.799  1.00  0.00    -0.169 F 
ENDBRANCH   4  25
BRANCH   6  29
HETATM   29  C   UNL     1       8.358  31.283  59.854  1.00  0.00     0.075 A 
HETATM   30  O   UNL     1       8.713  30.153  60.537  1.00  0.00    -0.325 OA
HETATM   31  C   UNL     1       9.473  30.543  61.591  1.00  0.00     0.142 A 
HETATM   32  C   UNL     1       9.613  31.910  61.605  1.00  0.00     0.027 A 
HETATM   33  C   UNL     1       8.897  32.390  60.482  1.00  0.00     0.037 A 
ENDBRANCH   6  29
TORSDOF 6
ENDMDL
MODEL 2
REMARK VINA RESULT:      -9.4      4.538      9.447
REMARK  6 active torsions:
REMARK  status: ('A' for Active; 'I' for Inactive)
REMARK    1  A    between atoms: C_2  and  O_3 
REMARK    2  A    between atoms: C_2  and  C_4 
REMARK    3  A    between atoms: C_7  and  N_8 
REMARK       I    between atoms: N_8  and  C_9 
REMARK    4  A    between atoms: C_9  and  C_10 
REMARK    5  A    between atoms: C_13  and  C_14 
REMARK    6  A    between atoms: C_19  and  C_20 
ROOT
HETATM    1  C   UNL     1       8.301  24.758  56.467  1.00  0.00     0.096 A 
HETATM    2  C   UNL     1       8.020  24.592  55.123  1.00  0.00     0.138 A 
HETATM    3  N   UNL     1       8.419  23.311  54.814  1.00  0.00    -0.240 N 
HETATM    4  C   UNL     1       8.297  22.715  53.497  1.00  0.00     0.221 C 
HETATM    5  C   UNL     1       7.200  23.440  52.698  1.00  0.00     0.068 C 
HETATM    6  C   UNL     1       7.395  24.961  52.768  1.00  0.00     0.143 C 
HETATM    7  N   UNL     1       7.449  25.381  54.176  1.00  0.00    -0.363 N 
HETATM    8  N   UNL     1       8.985  22.657  55.835  1.00  0.00    -0.181 NA
HETATM    9  C   UNL     1       8.872  23.517  56.850  1.00  0.00     0.160 A 
HETATM   10  H   UNL     1       6.750  26.090  54.410  1.00  0.00     0.162 HD
ENDROOT
BRANCH   1  11
HETATM   11  C   UNL     1       8.130  25.902  57.348  1.00  0.00     0.261 C 
HETATM   12  N   UNL     1       8.423  27.118  56.759  1.00  0.00    -0.323 N 
HETATM   13  H   UNL     1       8.731  27.072  55.794  1.00  0.00     0.169 HD
HETATM   14  O   UNL     1       7.809  25.729  58.517  1.00  0.00    -0.267 OA
BRANCH  12  15
HETATM   15  C   UNL     1       8.484  28.381  57.385  1.00  0.00     0.035 A 
HETATM   16  C   UNL     1       7.413  28.969  58.060  1.00  0.00     0.030 A 
HETATM   17  C   UNL     1       7.566  30.197  58.715  1.00  0.00     0.012 A 
HETATM   18  C   UNL     1       8.794  30.866  58.704  1.00  0.00    -0.030 A 
HETATM   19  C   UNL     1       9.860  30.291  57.998  1.00  0.00     0.012 A 
HETATM   20  C   UNL     1       9.705  29.062  57.347  1.00  0.00     0.030 A 
BRANCH  18  21
HETATM   21  C   UNL     1       8.959  32.169  59.457  1.00  0.00     0.147 C 
HETATM   22  C   UNL     1       9.662  32.001  60.795  1.00  0.00     0.044 C 
BRANCH  21  23
HETATM   23  O   UNL     1       7.678  32.760  59.681  1.00  0.00    -0.391 OA
HETATM   24  H   UNL     1       7.834  33.691  59.916  1.00  0.00     0.210 HD
ENDBRANCH  21  23
ENDBRANCH  18  21
ENDBRANCH  12  15
ENDBRANCH   1  11
BRANCH   4  25
HETATM   25  C   UNL     1       7.988  21.233  53.549  1.00  0.00     0.409 C 
HETATM   26  F   UNL     1       7.300  20.806  52.468  1.00  0.00    -0.169 F 
HETATM   27  F   UNL     1       9.159  20.534  53.556  1.00  0.00    -0.169 F 
HETATM   28  F   UNL     1       7.328  20.855  54.661  1.00  0.00    -0.169 F 
ENDBRANCH   4  25
BRANCH   6  29
HETATM   29  C   UNL     1       6.348  25.684  51.968  1.00  0.00     0.075 A 
HETATM   30  O   UNL     1       6.525  27.032  51.818  1.00  0.00    -0.325 OA
HETATM   31  C   UNL     1       5.500  27.489  51.056  1.00  0.00     0.142 A 
HETATM   32  C   UNL     1       4.658  26.459  50.711  1.00  0.00     0.027 A 
HETATM   33  C   UNL     1       5.206  25.291  51.296  1.00  0.00     0.037 A 
ENDBRANCH   6  29
TORSDOF 6
ENDMDL
MODEL 3
REMARK VINA RESULT:      -9.1      5.788      8.396
REMARK  6 active torsions:
REMARK  status: ('A' for Active; 'I' for Inactive)
REMARK    1  A    between atoms: C_2  and  O_3 
REMARK    2  A    between atoms: C_2  and  C_4 
REMARK    3  A    between atoms: C_7  and  N_8 
REMARK       I    between atoms: N_8  and  C_9 
REMARK    4  A    between atoms: C_9  and  C_10 
REMARK    5  A    between atoms: C_13  and  C_14 
REMARK    6  A    between atoms: C_19  and  C_20 
ROOT
HETATM    1  C   UNL     1       5.459  27.253  52.145  1.00  0.00     0.096 A 
HETATM    2  C   UNL     1       4.637  27.858  51.212  1.00  0.00     0.138 A 
HETATM    3  N   UNL     1       4.982  29.191  51.220  1.00  0.00    -0.240 N 
HETATM    4  C   UNL     1       4.365  30.197  50.377  1.00  0.00     0.221 C 
HETATM    5  C   UNL     1       3.737  29.528  49.142  1.00  0.00     0.068 C 
HETATM    6  C   UNL     1       2.872  28.330  49.558  1.00  0.00     0.143 C 
HETATM    7  N   UNL     1       3.680  27.401  50.363  1.00  0.00    -0.363 N 
HETATM    8  N   UNL     1       5.922  29.503  52.120  1.00  0.00    -0.181 NA
HETATM    9  C   UNL     1       6.245  28.321  52.649  1.00  0.00     0.160 A 
HETATM   10  H   UNL     1       3.701  26.453  49.981  1.00  0.00     0.162 HD
ENDROOT
BRANCH   1  11
HETATM   11  C   UNL     1       5.543  25.874  52.598  1.00  0.00     0.261 C 
HETATM   12  N   UNL     1       6.694  25.580  53.306  1.00  0.00    -0.323 N 
HETATM   13  H   UNL     1       7.346  26.349  53.417  1.00  0.00     0.169 HD
HETATM   14  O   UNL     1       4.664  25.077  52.295  1.00  0.00    -0.267 OA
BRANCH  12  15
HETATM   15  C   UNL     1       7.125  24.314  53.754  1.00  0.00     0.035 A 
HETATM   16  C   UNL     1       7.043  23.887  55.081  1.00  0.00     0.030 A 
HETATM   17  C   UNL     1       7.429  22.590  55.441  1.00  0.00     0.012 A 
HETATM   18  C   UNL     1       7.911  21.694  54.483  1.00  0.00    -0.030 A 
HETATM   19  C   UNL     1       8.025  22.134  53.157  1.00  0.00     0.012 A 
HETATM   20  C   UNL     1       7.636  23.430  52.798  1.00  0.00     0.030 A 
BRANCH  18  21
HETATM   21  C   UNL     1       8.279  20.280  54.878  1.00  0.00     0.147 C 
HETATM   22  C   UNL     1       9.129  20.214  56.138  1.00  0.00     0.044 C 
BRANCH  21  23
HETATM   23  O   UNL     1       8.989  19.651  53.811  1.00  0.00    -0.391 OA
HETATM   24  H   UNL     1       8.551  19.917  52.984  1.00  0.00     0.210 HD
ENDBRANCH  21  23
ENDBRANCH  18  21
ENDBRANCH  12  15
ENDBRANCH   1  11
BRANCH   4  25
HETATM   25  C   UNL     1       5.340  31.267  49.930  1.00  0.00     0.409 C 
HETATM   26  F   UNL     1       6.503  30.754  49.473  1.00  0.00    -0.169 F 
HETATM   27  F   UNL     1       4.795  31.961  48.891  1.00  0.00    -0.169 F 
HETATM   28  F   UNL     1       5.614  32.183  50.880  1.00  0.00    -0.169 F 
ENDBRANCH   4  25
BRANCH   6  29
HETATM   29  C   UNL     1       2.227  27.681  48.366  1.00  0.00     0.075 A 
HETATM   30  O   UNL     1       2.897  26.621  47.817  1.00  0.00    -0.325 OA
HETATM   31  C   UNL     1       2.149  26.166  46.781  1.00  0.00     0.142 A 
HETATM   32  C   UNL     1       1.006  26.917  46.645  1.00  0.00     0.027 A 
HETATM   33  C   UNL     1       1.052  27.893  47.670  1.00  0.00     0.037 A 
ENDBRANCH   6  29
TORSDOF 6
ENDMDL
MODEL 4
REMARK VINA RESULT:      -9.1      3.384      8.695
REMARK  6 active torsions:
REMARK  status: ('A' for Active; 'I' for Inactive)
REMARK    1  A    between atoms: C_2  and  O_3 
REMARK    2  A    between atoms: C_2  and  C_4 
REMARK    3  A    between atoms: C_7  and  N_8 
REMARK       I    between atoms: N_8  and  C_9 
REMARK    4  A    between atoms: C_9  and  C_10 
REMARK    5  A    between atoms: C_13  and  C_14 
REMARK    6  A    between atoms: C_19  and  C_20 
ROOT
HETATM    1  C   UNL     1       5.111  28.171  54.982  1.00  0.00     0.096 A 
HETATM    2  C   UNL     1       5.355  27.030  54.239  1.00  0.00     0.138 A 
HETATM    3  N   UNL     1       4.777  27.256  53.010  1.00  0.00    -0.240 N 
HETATM    4  C   UNL     1       4.803  26.309  51.912  1.00  0.00     0.221 C 
HETATM    5  C   UNL     1       5.983  25.339  52.089  1.00  0.00     0.068 C 
HETATM    6  C   UNL     1       6.005  24.767  53.514  1.00  0.00     0.143 C 
HETATM    7  N   UNL     1       6.023  25.874  54.483  1.00  0.00    -0.363 N 
HETATM    8  N   UNL     1       4.134  28.426  52.919  1.00  0.00    -0.181 NA
HETATM    9  C   UNL     1       4.375  29.002  54.099  1.00  0.00     0.160 A 
HETATM   10  H   UNL     1       6.817  25.830  55.126  1.00  0.00     0.162 HD
ENDROOT
BRANCH   1  11
HETATM   11  C   UNL     1       5.449  28.512  56.355  1.00  0.00     0.261 C 
HETATM   12  N   UNL     1       6.030  29.758  56.502  1.00  0.00    -0.323 N 
HETATM   13  H   UNL     1       6.163  30.281  55.644  1.00  0.00     0.169 HD
HETATM   14  O   UNL     1       5.262  27.697  57.250  1.00  0.00    -0.267 OA
BRANCH  12  15
HETATM   15  C   UNL     1       6.586  30.312  57.674  1.00  0.00     0.035 A 
HETATM   16  C   UNL     1       6.046  31.406  58.352  1.00  0.00     0.030 A 
HETATM   17  C   UNL     1       6.615  31.860  59.549  1.00  0.00     0.012 A 
HETATM   18  C   UNL     1       7.741  31.232  60.089  1.00  0.00    -0.030 A 
HETATM   19  C   UNL     1       8.303  30.155  59.390  1.00  0.00     0.012 A 
HETATM   20  C   UNL     1       7.731  29.700  58.196  1.00  0.00     0.030 A 
BRANCH  18  21
HETATM   21  C   UNL     1       8.316  31.704  61.408  1.00  0.00     0.147 C 
HETATM   22  C   UNL     1       9.826  31.878  61.372  1.00  0.00     0.044 C 
BRANCH  21  23
HETATM   23  O   UNL     1       7.985  30.772  62.437  1.00  0.00    -0.391 OA
HETATM   24  H   UNL     1       8.661  30.864  63.131  1.00  0.00     0.210 HD
ENDBRANCH  21  23
ENDBRANCH  18  21
ENDBRANCH  12  15
ENDBRANCH   1  11
BRANCH   4  25
HETATM   25  C   UNL     1       4.900  26.981  50.559  1.00  0.00     0.409 C 
HETATM   26  F   UNL     1       5.911  27.875  50.492  1.00  0.00    -0.169 F 
HETATM   27  F   UNL     1       5.163  26.038  49.610  1.00  0.00    -0.169 F 
HETATM   28  F   UNL     1       3.760  27.586  50.170  1.00  0.00    -0.169 F 
ENDBRANCH   4  25
BRANCH   6  29
HETATM   29  C   UNL     1       7.136  23.795  53.696  1.00  0.00     0.075 A 
HETATM   30  O   UNL     1       7.769  23.823  54.908  1.00  0.00    -0.325 OA
HETATM   31  C   UNL     1       8.732  22.867  54.881  1.00  0.00     0.142 A 
HETATM   32  C   UNL     1       8.736  22.221  53.668  1.00  0.00     0.027 A 
HETATM   33  C   UNL     1       7.705  22.816  52.902  1.00  0.00     0.037 A 
ENDBRANCH   6  29
TORSDOF 6
ENDMDL
MODEL 5
REMARK VINA RESULT:      -8.8      5.916      8.620
REMARK  6 active torsions:
REMARK  status: ('A' for Active; 'I' for Inactive)
REMARK    1  A    between atoms: C_2  and  O_3 
REMARK    2  A    between atoms: C_2  and  C_4 
REMARK    3  A    between atoms: C_7  and  N_8 
REMARK       I    between atoms: N_8  and  C_9 
REMARK    4  A    between atoms: C_9  and  C_10 
REMARK    5  A    between atoms: C_13  and  C_14 
REMARK    6  A    between atoms: C_19  and  C_20 
ROOT
HETATM    1  C   UNL     1       5.795  33.013  62.306  1.00  0.00     0.096 A 
HETATM    2  C   UNL     1       5.581  34.270  62.844  1.00  0.00     0.138 A 
HETATM    3  N   UNL     1       5.062  34.054  64.101  1.00  0.00    -0.240 N 
HETATM    4  C   UNL     1       4.696  35.111  65.023  1.00  0.00     0.221 C 
HETATM    5  C   UNL     1       5.461  36.398  64.670  1.00  0.00     0.068 C 
HETATM    6  C   UNL     1       5.347  36.701  63.170  1.00  0.00     0.143 C 
HETATM    7  N   UNL     1       5.805  35.534  62.401  1.00  0.00    -0.363 N 
HETATM    8  N   UNL     1       4.873  32.762  64.395  1.00  0.00    -0.181 NA
HETATM    9  C   UNL     1       5.360  32.129  63.327  1.00  0.00     0.160 A 
HETATM   10  H   UNL     1       6.561  35.755  61.749  1.00  0.00     0.162 HD
ENDROOT
BRANCH   1  11
HETATM   11  C   UNL     1       6.298  32.599  61.006  1.00  0.00     0.261 C 
HETATM   12  N   UNL     1       7.398  31.764  61.065  1.00  0.00    -0.323 N 
HETATM   13  H   UNL     1       7.731  31.547  61.998  1.00  0.00     0.169 HD
HETATM   14  O   UNL     1       5.782  33.036  59.985  1.00  0.00    -0.267 OA
BRANCH  12  15
HETATM   15  C   UNL     1       8.187  31.308  59.989  1.00  0.00     0.035 A 
HETATM   16  C   UNL     1       7.832  30.242  59.159  1.00  0.00     0.030 A 
HETATM   17  C   UNL     1       8.634  29.888  58.066  1.00  0.00     0.012 A 
HETATM   18  C   UNL     1       9.811  30.587  57.785  1.00  0.00    -0.030 A 
HETATM   19  C   UNL     1      10.183  31.635  58.638  1.00  0.00     0.012 A 
HETATM   20  C   UNL     1       9.380  31.991  59.728  1.00  0.00     0.030 A 
BRANCH  18  21
HETATM   21  C   UNL     1      10.642  30.224  56.573  1.00  0.00     0.147 C 
HETATM   22  C   UNL     1       9.915  29.304  55.605  1.00  0.00     0.044 C 
BRANCH  21  23
HETATM   23  O   UNL     1      11.850  29.589  56.992  1.00  0.00    -0.391 OA
HETATM   24  H   UNL     1      11.918  28.754  56.495  1.00  0.00     0.210 HD
ENDBRANCH  21  23
ENDBRANCH  18  21
ENDBRANCH  12  15
ENDBRANCH   1  11
BRANCH   4  25
HETATM   25  C   UNL     1       4.960  34.746  66.469  1.00  0.00     0.409 C 
HETATM   26  F   UNL     1       4.057  33.867  66.957  1.00  0.00    -0.169 F 
HETATM   27  F   UNL     1       6.175  34.135  66.560  1.00  0.00    -0.169 F 
HETATM   28  F   UNL     1       5.020  35.810  67.295  1.00  0.00    -0.169 F 
ENDBRANCH   4  25
BRANCH   6  29
HETATM   29  C   UNL     1       6.067  37.971  62.812  1.00  0.00     0.075 A 
HETATM   30  O   UNL     1       6.511  38.731  63.860  1.00  0.00    -0.325 OA
HETATM   31  C   UNL     1       7.146  39.808  63.334  1.00  0.00     0.142 A 
HETATM   32  C   UNL     1       7.118  39.762  61.961  1.00  0.00     0.027 A 
HETATM   33  C   UNL     1       6.425  38.575  61.621  1.00  0.00     0.037 A 
ENDBRANCH   6  29
TORSDOF 6
ENDMDL
MODEL 6
REMARK VINA RESULT:      -8.8      4.791     10.444
REMARK  6 active torsions:
REMARK  status: ('A' for Active; 'I' for Inactive)
REMARK    1  A    between atoms: C_2  and  O_3 
REMARK    2  A    between atoms: C_2  and  C_4 
REMARK    3  A    between atoms: C_7  and  N_8 
REMARK       I    between atoms: N_8  and  C_9 
REMARK    4  A    between atoms: C_9  and  C_10 
REMARK    5  A    between atoms: C_13  and  C_14 
REMARK    6  A    between atoms: C_19  and  C_20 
ROOT
HETATM    1  C   UNL     1       7.279  31.433  60.023  1.00  0.00     0.096 A 
HETATM    2  C   UNL     1       6.909  31.151  58.720  1.00  0.00     0.138 A 
HETATM    3  N   UNL     1       7.782  30.177  58.288  1.00  0.00    -0.240 N 
HETATM    4  C   UNL     1       7.746  29.581  56.967  1.00  0.00     0.221 C 
HETATM    5  C   UNL     1       6.341  29.738  56.361  1.00  0.00     0.068 C 
HETATM    6  C   UNL     1       5.855  31.189  56.493  1.00  0.00     0.143 C 
HETATM    7  N   UNL     1       5.920  31.598  57.904  1.00  0.00    -0.363 N 
HETATM    8  N   UNL     1       8.717  29.849  59.186  1.00  0.00    -0.181 NA
HETATM    9  C   UNL     1       8.385  30.576  60.255  1.00  0.00     0.160 A 
HETATM   10  H   UNL     1       5.022  31.925  58.268  1.00  0.00     0.162 HD
ENDROOT
BRANCH   1  11
HETATM   11  C   UNL     1       6.751  32.388  60.984  1.00  0.00     0.261 C 
HETATM   12  N   UNL     1       7.089  32.115  62.297  1.00  0.00    -0.323 N 
HETATM   13  H   UNL     1       7.652  31.284  62.438  1.00  0.00     0.169 HD
HETATM   14  O   UNL     1       6.027  33.300  60.603  1.00  0.00    -0.267 OA
BRANCH  12  15
HETATM   15  C   UNL     1       6.624  32.770  63.455  1.00  0.00     0.035 A 
HETATM   16  C   UNL     1       5.274  32.900  63.789  1.00  0.00     0.030 A 
HETATM   17  C   UNL     1       4.888  33.506  64.992  1.00  0.00     0.012 A 
HETATM   18  C   UNL     1       5.844  34.001  65.883  1.00  0.00    -0.030 A 
HETATM   19  C   UNL     1       7.198  33.900  65.532  1.00  0.00     0.012 A 
HETATM   20  C   UNL     1       7.582  33.292  64.331  1.00  0.00     0.030 A 
BRANCH  18  21
HETATM   21  C   UNL     1       5.415  34.609  67.201  1.00  0.00     0.147 C 
HETATM   22  C   UNL     1       4.478  35.795  67.033  1.00  0.00     0.044 C 
BRANCH  21  23
HETATM   23  O   UNL     1       6.565  35.031  67.934  1.00  0.00    -0.391 OA
HETATM   24  H   UNL     1       6.266  35.709  68.564  1.00  0.00     0.210 HD
ENDBRANCH  21  23
ENDBRANCH  18  21
ENDBRANCH  12  15
ENDBRANCH   1  11
BRANCH   4  25
HETATM   25  C   UNL     1       8.132  28.116  56.973  1.00  0.00     0.409 C 
HETATM   26  F   UNL     1       7.472  27.408  57.915  1.00  0.00    -0.169 F 
HETATM   27  F   UNL     1       7.796  27.561  55.774  1.00  0.00    -0.169 F 
HETATM   28  F   UNL     1       9.455  27.904  57.118  1.00  0.00    -0.169 F 
ENDBRANCH   4  25
BRANCH   6  29
HETATM   29  C   UNL     1       4.494  31.367  55.881  1.00  0.00     0.075 A 
HETATM   30  O   UNL     1       4.345  30.921  54.596  1.00  0.00    -0.325 OA
HETATM   31  C   UNL     1       3.056  31.149  54.239  1.00  0.00     0.142 A 
HETATM   32  C   UNL     1       2.367  31.740  55.271  1.00  0.00     0.027 A 
HETATM   33  C   UNL     1       3.293  31.879  56.334  1.00  0.00     0.037 A 
ENDBRANCH   6  29
TORSDOF 6
ENDMDL
MODEL 7
REMARK VINA RESULT:      -8.8      5.610      7.484
REMARK  6 active torsions:
REMARK  status: ('A' for Active; 'I' for Inactive)
REMARK    1  A    between atoms: C_2  and  O_3 
REMARK    2  A    between atoms: C_2  and  C_4 
REMARK    3  A    between atoms: C_7  and  N_8 
REMARK       I    between atoms: N_8  and  C_9 
REMARK    4  A    between atoms: C_9  and  C_10 
REMARK    5  A    between atoms: C_13  and  C_14 
REMARK    6  A    between atoms: C_19  and  C_20 
ROOT
HETATM    1  C   UNL     1       5.744  25.685  53.698  1.00  0.00     0.096 A 
HETATM    2  C   UNL     1       6.164  25.999  54.978  1.00  0.00     0.138 A 
HETATM    3  N   UNL     1       6.748  24.853  55.470  1.00  0.00    -0.240 N 
HETATM    4  C   UNL     1       7.335  24.741  56.792  1.00  0.00     0.221 C 
HETATM    5  C   UNL     1       7.722  26.137  57.309  1.00  0.00     0.068 C 
HETATM    6  C   UNL     1       6.556  27.120  57.137  1.00  0.00     0.143 C 
HETATM    7  N   UNL     1       6.131  27.130  55.729  1.00  0.00    -0.363 N 
HETATM    8  N   UNL     1       6.689  23.811  54.633  1.00  0.00    -0.181 NA
HETATM    9  C   UNL     1       6.123  24.327  53.540  1.00  0.00     0.160 A 
HETATM   10  H   UNL     1       6.156  28.061  55.309  1.00  0.00     0.162 HD
ENDROOT
BRANCH   1  11
HETATM   11  C   UNL     1       5.041  26.473  52.699  1.00  0.00     0.261 C 
HETATM   12  N   UNL     1       5.496  26.286  51.407  1.00  0.00    -0.323 N 
HETATM   13  H   UNL     1       6.266  25.635  51.307  1.00  0.00     0.169 HD
HETATM   14  O   UNL     1       4.169  27.261  53.046  1.00  0.00    -0.267 OA
BRANCH  12  15
HETATM   15  C   UNL     1       5.112  26.998  50.252  1.00  0.00     0.035 A 
HETATM   16  C   UNL     1       4.333  26.459  49.226  1.00  0.00     0.030 A 
HETATM   17  C   UNL     1       3.935  27.248  48.139  1.00  0.00     0.012 A 
HETATM   18  C   UNL     1       4.314  28.591  48.052  1.00  0.00    -0.030 A 
HETATM   19  C   UNL     1       5.124  29.121  49.065  1.00  0.00     0.012 A 
HETATM   20  C   UNL     1       5.518  28.333  50.152  1.00  0.00     0.030 A 
BRANCH  18  21
HETATM   21  C   UNL     1       3.837  29.443  46.896  1.00  0.00     0.147 C 
HETATM   22  C   UNL     1       4.160  30.919  47.069  1.00  0.00     0.044 C 
BRANCH  21  23
HETATM   23  O   UNL     1       2.425  29.296  46.740  1.00  0.00    -0.391 OA
HETATM   24  H   UNL     1       2.248  29.251  45.785  1.00  0.00     0.210 HD
ENDBRANCH  21  23
ENDBRANCH  18  21
ENDBRANCH  12  15
ENDBRANCH   1  11
BRANCH   4  25
HETATM   25  C   UNL     1       8.549  23.837  56.820  1.00  0.00     0.409 C 
HETATM   26  F   UNL     1       9.230  23.841  55.653  1.00  0.00    -0.169 F 
HETATM   27  F   UNL     1       9.418  24.287  57.770  1.00  0.00    -0.169 F 
HETATM   28  F   UNL     1       8.269  22.561  57.154  1.00  0.00    -0.169 F 
ENDBRANCH   4  25
BRANCH   6  29
HETATM   29  C   UNL     1       6.908  28.484  57.664  1.00  0.00     0.075 A 
HETATM   30  O   UNL     1       8.054  28.568  58.407  1.00  0.00    -0.325 OA
HETATM   31  C   UNL     1       8.205  29.868  58.764  1.00  0.00     0.142 A 
HETATM   32  C   UNL     1       7.173  30.628  58.268  1.00  0.00     0.027 A 
HETATM   33  C   UNL     1       6.336  29.737  57.554  1.00  0.00     0.037 A 
ENDBRANCH   6  29
TORSDOF 6
ENDMDL
MODEL 8
REMARK VINA RESULT:      -8.7      4.320      9.526
REMARK  6 active torsions:
REMARK  status: ('A' for Active; 'I' for Inactive)
REMARK    1  A    between atoms: C_2  and  O_3 
REMARK    2  A    between atoms: C_2  and  C_4 
REMARK    3  A    between atoms: C_7  and  N_8 
REMARK       I    between atoms: N_8  and  C_9 
REMARK    4  A    between atoms: C_9  and  C_10 
REMARK    5  A    between atoms: C_13  and  C_14 
REMARK    6  A    between atoms: C_19  and  C_20 
ROOT
HETATM    1  C   UNL     1       7.242  26.444  56.322  1.00  0.00     0.096 A 
HETATM    2  C   UNL     1       7.183  26.120  54.979  1.00  0.00     0.138 A 
HETATM    3  N   UNL     1       7.861  24.928  54.853  1.00  0.00    -0.240 N 
HETATM    4  C   UNL     1       8.036  24.219  53.601  1.00  0.00     0.221 C 
HETATM    5  C   UNL     1       6.940  24.639  52.607  1.00  0.00     0.068 C 
HETATM    6  C   UNL     1       6.827  26.168  52.541  1.00  0.00     0.143 C 
HETATM    7  N   UNL     1       6.605  26.699  53.895  1.00  0.00    -0.363 N 
HETATM    8  N   UNL     1       8.397  24.485  55.997  1.00  0.00    -0.181 NA
HETATM    9  C   UNL     1       7.983  25.380  56.897  1.00  0.00     0.160 A 
HETATM   10  H   UNL     1       5.758  27.266  53.970  1.00  0.00     0.162 HD
ENDROOT
BRANCH   1  11
HETATM   11  C   UNL     1       6.735  27.594  57.054  1.00  0.00     0.261 C 
HETATM   12  N   UNL     1       7.696  28.542  57.353  1.00  0.00    -0.323 N 
HETATM   13  H   UNL     1       8.635  28.325  57.041  1.00  0.00     0.169 HD
HETATM   14  O   UNL     1       5.559  27.630  57.396  1.00  0.00    -0.267 OA
BRANCH  12  15
HETATM   15  C   UNL     1       7.545  29.689  58.160  1.00  0.00     0.035 A 
HETATM   16  C   UNL     1       6.537  30.639  57.987  1.00  0.00     0.030 A 
HETATM   17  C   UNL     1       6.410  31.719  58.869  1.00  0.00     0.012 A 
HETATM   18  C   UNL     1       7.293  31.875  59.942  1.00  0.00    -0.030 A 
HETATM   19  C   UNL     1       8.326  30.940  60.096  1.00  0.00     0.012 A 
HETATM   20  C   UNL     1       8.450  29.859  59.214  1.00  0.00     0.030 A 
BRANCH  18  21
HETATM   21  C   UNL     1       7.114  33.020  60.915  1.00  0.00     0.147 C 
HETATM   22  C   UNL     1       7.611  32.696  62.315  1.00  0.00     0.044 C 
BRANCH  21  23
HETATM   23  O   UNL     1       5.734  33.378  60.988  1.00  0.00    -0.391 OA
HETATM   24  H   UNL     1       5.697  34.349  61.053  1.00  0.00     0.210 HD
ENDBRANCH  21  23
ENDBRANCH  18  21
ENDBRANCH  12  15
ENDBRANCH   1  11
BRANCH   4  25
HETATM   25  C   UNL     1       8.016  22.714  53.769  1.00  0.00     0.409 C 
HETATM   26  F   UNL     1       7.107  22.304  54.681  1.00  0.00    -0.169 F 
HETATM   27  F   UNL     1       7.656  22.137  52.587  1.00  0.00    -0.169 F 
HETATM   28  F   UNL     1       9.215  22.186  54.086  1.00  0.00    -0.169 F 
ENDBRANCH   4  25
BRANCH   6  29
HETATM   29  C   UNL     1       5.779  26.597  51.553  1.00  0.00     0.075 A 
HETATM   30  O   UNL     1       5.432  27.920  51.574  1.00  0.00    -0.325 OA
HETATM   31  C   UNL     1       4.501  28.107  50.605  1.00  0.00     0.142 A 
HETATM   32  C   UNL     1       4.236  26.925  49.956  1.00  0.00     0.027 A 
HETATM   33  C   UNL     1       5.062  25.949  50.564  1.00  0.00     0.037 A 
ENDBRANCH   6  29
TORSDOF 6
ENDMDL
MODEL 9
REMARK VINA RESULT:      -8.6      3.069      5.577
REMARK  6 active torsions:
REMARK  status: ('A' for Active; 'I' for Inactive)
REMARK    1  A    between atoms: C_2  and  O_3 
REMARK    2  A    between atoms: C_2  and  C_4 
REMARK    3  A    between atoms: C_7  and  N_8 
REMARK       I    between atoms: N_8  and  C_9 
REMARK    4  A    between atoms: C_9  and  C_10 
REMARK    5  A    between atoms: C_13  and  C_14 
REMARK    6  A    between atoms: C_19  and  C_20 
ROOT
HETATM    1  C   UNL     1       5.151  27.642  56.225  1.00  0.00     0.096 A 
HETATM    2  C   UNL     1       4.446  28.343  55.264  1.00  0.00     0.138 A 
HETATM    3  N   UNL     1       4.190  29.578  55.815  1.00  0.00    -0.240 N 
HETATM    4  C   UNL     1       3.472  30.640  55.137  1.00  0.00     0.221 C 
HETATM    5  C   UNL     1       3.547  30.430  53.616  1.00  0.00     0.068 C 
HETATM    6  C   UNL     1       3.179  28.985  53.250  1.00  0.00     0.143 C 
HETATM    7  N   UNL     1       4.041  28.058  53.999  1.00  0.00    -0.363 N 
HETATM    8  N   UNL     1       4.625  29.711  57.074  1.00  0.00    -0.181 NA
HETATM    9  C   UNL     1       5.249  28.555  57.307  1.00  0.00     0.160 A 
HETATM   10  H   UNL     1       4.558  27.416  53.395  1.00  0.00     0.162 HD
ENDROOT
BRANCH   1  11
HETATM   11  C   UNL     1       5.670  26.284  56.234  1.00  0.00     0.261 C 
HETATM   12  N   UNL     1       6.714  26.072  55.352  1.00  0.00    -0.323 N 
HETATM   13  H   UNL     1       6.987  26.876  54.799  1.00  0.00     0.169 HD
HETATM   14  O   UNL     1       5.145  25.434  56.943  1.00  0.00    -0.267 OA
BRANCH  12  15
HETATM   15  C   UNL     1       7.332  24.845  55.034  1.00  0.00     0.035 A 
HETATM   16  C   UNL     1       8.203  24.166  55.888  1.00  0.00     0.030 A 
HETATM   17  C   UNL     1       8.728  22.917  55.532  1.00  0.00     0.012 A 
HETATM   18  C   UNL     1       8.396  22.323  54.311  1.00  0.00    -0.030 A 
HETATM   19  C   UNL     1       7.547  23.020  53.440  1.00  0.00     0.012 A 
HETATM   20  C   UNL     1       7.022  24.267  53.798  1.00  0.00     0.030 A 
BRANCH  18  21
HETATM   21  C   UNL     1       8.932  20.951  53.961  1.00  0.00     0.147 C 
HETATM   22  C   UNL     1       8.275  20.351  52.728  1.00  0.00     0.044 C 
BRANCH  21  23
HETATM   23  O   UNL     1       8.740  20.064  55.063  1.00  0.00    -0.391 OA
HETATM   24  H   UNL     1       9.623  19.837  55.401  1.00  0.00     0.210 HD
ENDBRANCH  21  23
ENDBRANCH  18  21
ENDBRANCH  12  15
ENDBRANCH   1  11
BRANCH   4  25
HETATM   25  C   UNL     1       3.996  32.018  55.484  1.00  0.00     0.409 C 
HETATM   26  F   UNL     1       5.346  32.067  55.523  1.00  0.00    -0.169 F 
HETATM   27  F   UNL     1       3.611  32.898  54.516  1.00  0.00    -0.169 F 
HETATM   28  F   UNL     1       3.510  32.509  56.641  1.00  0.00    -0.169 F 
ENDBRANCH   4  25
BRANCH   6  29
HETATM   29  C   UNL     1       3.220  28.770  51.763  1.00  0.00     0.075 A 
HETATM   30  O   UNL     1       4.264  28.024  51.288  1.00  0.00    -0.325 OA
HETATM   31  C   UNL     1       4.109  27.927  49.944  1.00  0.00     0.142 A 
HETATM   32  C   UNL     1       2.982  28.600  49.538  1.00  0.00     0.027 A 
HETATM   33  C   UNL     1       2.404  29.142  50.711  1.00  0.00     0.037 A 
ENDBRANCH   6  29
TORSDOF 6
ENDMDL
MODEL 10
REMARK VINA RESULT:      -8.5      6.676      8.474
REMARK  6 active torsions:
REMARK  status: ('A' for Active; 'I' for Inactive)
REMARK    1  A    between atoms: C_2  and  O_3 
REMARK    2  A    between atoms: C_2  and  C_4 
REMARK    3  A    between atoms: C_7  and  N_8 
REMARK       I    between atoms: N_8  and  C_9 
REMARK    4  A    between atoms: C_9  and  C_10 
REMARK    5  A    between atoms: C_13  and  C_14 
REMARK    6  A    between atoms: C_19  and  C_20 
ROOT
HETATM    1  C   UNL     1       5.005  26.386  50.382  1.00  0.00     0.096 A 
HETATM    2  C   UNL     1       4.804  27.509  49.601  1.00  0.00     0.138 A 
HETATM    3  N   UNL     1       3.895  27.135  48.636  1.00  0.00    -0.240 N 
HETATM    4  C   UNL     1       3.394  28.019  47.603  1.00  0.00     0.221 C 
HETATM    5  C   UNL     1       3.544  29.483  48.052  1.00  0.00     0.068 C 
HETATM    6  C   UNL     1       4.963  29.744  48.575  1.00  0.00     0.143 C 
HETATM    7  N   UNL     1       5.273  28.783  49.645  1.00  0.00    -0.363 N 
HETATM    8  N   UNL     1       3.537  25.847  48.699  1.00  0.00    -0.181 NA
HETATM    9  C   UNL     1       4.173  25.404  49.786  1.00  0.00     0.160 A 
HETATM   10  H   UNL     1       5.542  29.233  50.522  1.00  0.00     0.162 HD
ENDROOT
BRANCH   1  11
HETATM   11  C   UNL     1       5.870  26.158  51.529  1.00  0.00     0.261 C 
HETATM   12  N   UNL     1       5.966  24.832  51.910  1.00  0.00    -0.323 N 
HETATM   13  H   UNL     1       5.420  24.179  51.359  1.00  0.00     0.169 HD
HETATM   14  O   UNL     1       6.392  27.108  52.098  1.00  0.00    -0.267 OA
BRANCH  12  15
HETATM   15  C   UNL     1       6.610  24.313  53.052  1.00  0.00     0.035 A 
HETATM   16  C   UNL     1       6.178  24.536  54.361  1.00  0.00     0.030 A 
HETATM   17  C   UNL     1       6.830  23.933  55.443  1.00  0.00     0.012 A 
HETATM   18  C   UNL     1       7.933  23.097  55.240  1.00  0.00    -0.030 A 
HETATM   19  C   UNL     1       8.387  22.901  53.928  1.00  0.00     0.012 A 
HETATM   20  C   UNL     1       7.732  23.502  52.847  1.00  0.00     0.030 A 
BRANCH  18  21
HETATM   21  C   UNL     1       8.598  22.414  56.416  1.00  0.00     0.147 C 
HETATM   22  C   UNL     1       8.210  20.950  56.553  1.00  0.00     0.044 C 
BRANCH  21  23
HETATM   23  O   UNL     1       8.257  23.095  57.623  1.00  0.00    -0.391 OA
HETATM   24  H   UNL     1       8.261  24.047  57.422  1.00  0.00     0.210 HD
ENDBRANCH  21  23
ENDBRANCH  18  21
ENDBRANCH  12  15
ENDBRANCH   1  11
BRANCH   4  25
HETATM   25  C   UNL     1       1.947  27.746  47.247  1.00  0.00     0.409 C 
HETATM   26  F   UNL     1       1.396  28.737  46.512  1.00  0.00    -0.169 F 
HETATM   27  F   UNL     1       1.881  26.620  46.481  1.00  0.00    -0.169 F 
HETATM   28  F   UNL     1       1.160  27.511  48.316  1.00  0.00    -0.169 F 
ENDBRANCH   4  25
BRANCH   6  29
HETATM   29  C   UNL     1       5.137  31.178  48.992  1.00  0.00     0.075 A 
HETATM   30  O   UNL     1       6.133  31.429  49.897  1.00  0.00    -0.325 OA
HETATM   31  C   UNL     1       6.142  32.766  50.123  1.00  0.00     0.142 A 
HETATM   32  C   UNL     1       5.165  33.388  49.382  1.00  0.00     0.027 A 
HETATM   33  C   UNL     1       4.517  32.365  48.648  1.00  0.00     0.037 A 
ENDBRANCH   6  29
TORSDOF 6
ENDMDL
