MODEL 1
REMARK VINA RESULT:      -9.9      0.000      0.000
REMARK  5 active torsions:
REMARK  status: ('A' for Active; 'I' for Inactive)
REMARK    1  A    between atoms: N_1  and  C_2 
REMARK    2  A    between atoms: C_2  and  C_3 
REMARK    3  A    between atoms: C_2  and  C_12 
REMARK    4  A    between atoms: C_3  and  C_4 
REMARK    5  A    between atoms: C_17  and  C_23 
ROOT
HETATM    1  C   UNL     1       5.723  27.187  56.392  1.00  0.00     0.141 A 
HETATM    2  N   UNL     1       6.576  26.481  57.064  1.00  0.00    -0.232 NA
HETATM    3  C   UNL     1       6.961  25.239  56.530  1.00  0.00     0.074 A 
HETATM    4  C   UNL     1       7.914  24.482  57.211  1.00  0.00     0.033 A 
HETATM    5  C   UNL     1       8.345  23.252  56.698  1.00  0.00     0.014 A 
HETATM    6  C   UNL     1       7.828  22.752  55.493  1.00  0.00    -0.022 A 
HETATM    7  C   UNL     1       6.867  23.507  54.811  1.00  0.00     0.031 A 
HETATM    8  C   UNL     1       6.446  24.736  55.332  1.00  0.00     0.061 A 
HETATM    9  C   UNL     1       5.448  25.556  54.624  1.00  0.00     0.259 A 
HETATM   10  O   UNL     1       4.938  25.198  53.572  1.00  0.00    -0.267 OA
HETATM   11  N   UNL     1       5.145  26.747  55.227  1.00  0.00    -0.309 N 
HETATM   12  H   UNL     1       4.480  27.365  54.775  1.00  0.00     0.170 HD
ENDROOT
BRANCH   1  13
HETATM   13  C   UNL     1       5.228  28.558  56.878  1.00  0.00     0.291 C 
BRANCH  13  14
HETATM   14  N   UNL     1       3.766  28.668  56.636  1.00  0.00     0.090 N 
HETATM   15  H   UNL     1       3.573  29.588  56.234  1.00  0.00     0.313 HD
HETATM   16  H   UNL     1       3.288  28.668  57.538  1.00  0.00     0.313 HD
ENDBRANCH  13  14
BRANCH  13  17
HETATM   17  C   UNL     1       6.043  29.741  56.315  1.00  0.00     0.082 C 
BRANCH  17  18
HETATM   18  C   UNL     1       7.520  29.739  56.654  1.00  0.00    -0.053 A 
HETATM   19  C   UNL     1       8.473  29.349  55.697  1.00  0.00     0.010 A 
HETATM   20  C   UNL     1       9.837  29.359  56.001  1.00  0.00     0.046 A 
HETATM   21  C   UNL     1      10.255  29.752  57.266  1.00  0.00     0.154 A 
HETATM   22  F   UNL     1      11.563  29.762  57.554  1.00  0.00    -0.203 F 
HETATM   23  C   UNL     1       9.323  30.129  58.224  1.00  0.00     0.155 A 
HETATM   24  F   UNL     1       9.726  30.509  59.445  1.00  0.00    -0.203 F 
HETATM   25  C   UNL     1       7.962  30.123  57.929  1.00  0.00     0.052 A 
ENDBRANCH  17  18
ENDBRANCH  13  17
ENDBRANCH   1  13
BRANCH   6  26
HETATM   26  C   UNL     1       8.299  21.482  54.968  1.00  0.00     0.010 A 
HETATM   27  C   UNL     1       8.275  20.956  53.654  1.00  0.00     0.152 A 
HETATM   28  N   UNL     1       8.821  19.740  53.571  1.00  0.00    -0.187 NA
HETATM   29  N   UNL     1       9.199  19.480  54.832  1.00  0.00    -0.289 N 
HETATM   30  H   UNL     1       9.652  18.593  55.027  1.00  0.00     0.188 HD
HETATM   31  C   UNL     1       8.913  20.490  55.705  1.00  0.00     0.123 A 
ENDBRANCH   6  26
TORSDOF 5
ENDMDL
MODEL 2
REMARK VINA RESULT:      -9.8      2.103      3.164
REMARK  5 active torsions:
REMARK  status: ('A' for Active; 'I' for Inactive)
REMARK    1  A    between atoms: N_1  and  C_2 
REMARK    2  A    between atoms: C_2  and  C_3 
REMARK    3  A    between atoms: C_2  and  C_12 
REMARK    4  A    between atoms: C_3  and  C_4 
REMARK    5  A    between atoms: C_17  and  C_23 
ROOT
HETATM    1  C   UNL     1       6.556  27.609  56.928  1.00  0.00     0.141 A 
HETATM    2  N   UNL     1       6.159  27.149  55.784  1.00  0.00    -0.232 NA
HETATM    3  C   UNL     1       6.627  25.883  55.390  1.00  0.00     0.074 A 
HETATM    4  C   UNL     1       6.177  25.346  54.184  1.00  0.00     0.033 A 
HETATM    5  C   UNL     1       6.598  24.077  53.768  1.00  0.00     0.014 A 
HETATM    6  C   UNL     1       7.483  23.319  54.550  1.00  0.00    -0.022 A 
HETATM    7  C   UNL     1       7.942  23.859  55.758  1.00  0.00     0.031 A 
HETATM    8  C   UNL     1       7.512  25.127  56.163  1.00  0.00     0.061 A 
HETATM    9  C   UNL     1       7.968  25.709  57.437  1.00  0.00     0.259 A 
HETATM   10  O   UNL     1       8.745  25.124  58.180  1.00  0.00    -0.267 OA
HETATM   11  N   UNL     1       7.451  26.943  57.728  1.00  0.00    -0.309 N 
HETATM   12  H   UNL     1       7.712  27.384  58.603  1.00  0.00     0.170 HD
ENDROOT
BRANCH   1  13
HETATM   13  C   UNL     1       6.113  28.979  57.461  1.00  0.00     0.291 C 
BRANCH  13  14
HETATM   14  N   UNL     1       4.886  29.413  56.745  1.00  0.00     0.090 N 
HETATM   15  H   UNL     1       4.127  28.770  56.986  1.00  0.00     0.313 HD
HETATM   16  H   UNL     1       5.033  29.283  55.743  1.00  0.00     0.313 HD
ENDBRANCH  13  14
BRANCH  13  17
HETATM   17  C   UNL     1       7.240  30.033  57.459  1.00  0.00     0.082 C 
BRANCH  17  18
HETATM   18  C   UNL     1       7.519  30.696  58.793  1.00  0.00    -0.053 A 
HETATM   19  C   UNL     1       6.765  31.806  59.211  1.00  0.00     0.010 A 
HETATM   20  C   UNL     1       7.009  32.412  60.446  1.00  0.00     0.046 A 
HETATM   21  C   UNL     1       8.013  31.915  61.268  1.00  0.00     0.154 A 
HETATM   22  F   UNL     1       8.244  32.497  62.452  1.00  0.00    -0.203 F 
HETATM   23  C   UNL     1       8.773  30.825  60.862  1.00  0.00     0.155 A 
HETATM   24  F   UNL     1       9.742  30.345  61.655  1.00  0.00    -0.203 F 
HETATM   25  C   UNL     1       8.535  30.215  59.633  1.00  0.00     0.052 A 
ENDBRANCH  17  18
ENDBRANCH  13  17
ENDBRANCH   1  13
BRANCH   6  26
HETATM   26  C   UNL     1       7.896  21.997  54.112  1.00  0.00     0.010 A 
HETATM   27  C   UNL     1       8.433  20.906  54.835  1.00  0.00     0.152 A 
HETATM   28  N   UNL     1       8.679  19.843  54.066  1.00  0.00    -0.187 NA
HETATM   29  N   UNL     1       8.300  20.246  52.844  1.00  0.00    -0.289 N 
HETATM   30  H   UNL     1       8.391  19.595  52.070  1.00  0.00     0.188 HD
HETATM   31  C   UNL     1       7.821  21.525  52.818  1.00  0.00     0.123 A 
ENDBRANCH   6  26
TORSDOF 5
ENDMDL
MODEL 3
REMARK VINA RESULT:      -9.8      2.362      3.223
REMARK  5 active torsions:
REMARK  status: ('A' for Active; 'I' for Inactive)
REMARK    1  A    between atoms: N_1  and  C_2 
REMARK    2  A    between atoms: C_2  and  C_3 
REMARK    3  A    between atoms: C_2  and  C_12 
REMARK    4  A    between atoms: C_3  and  C_4 
REMARK    5  A    between atoms: C_17  and  C_23 
ROOT
HETATM    1  C   UNL     1       7.210  28.033  57.189  1.00  0.00     0.141 A 
HETATM    2  N   UNL     1       7.862  27.028  57.681  1.00  0.00    -0.232 NA
HETATM    3  C   UNL     1       7.896  25.840  56.931  1.00  0.00     0.074 A 
HETATM    4  C   UNL     1       8.631  24.759  57.418  1.00  0.00     0.033 A 
HETATM    5  C   UNL     1       8.713  23.567  56.687  1.00  0.00     0.014 A 
HETATM    6  C   UNL     1       8.057  23.431  55.454  1.00  0.00    -0.022 A 
HETATM    7  C   UNL     1       7.314  24.512  54.966  1.00  0.00     0.031 A 
HETATM    8  C   UNL     1       7.241  25.699  55.705  1.00  0.00     0.061 A 
HETATM    9  C   UNL     1       6.478  26.855  55.204  1.00  0.00     0.259 A 
HETATM   10  O   UNL     1       5.870  26.825  54.144  1.00  0.00    -0.267 OA
HETATM   11  N   UNL     1       6.512  27.962  56.009  1.00  0.00    -0.309 N 
HETATM   12  H   UNL     1       6.023  28.797  55.706  1.00  0.00     0.170 HD
ENDROOT
BRANCH   1  13
HETATM   13  C   UNL     1       7.102  29.380  57.920  1.00  0.00     0.291 C 
BRANCH  13  14
HETATM   14  N   UNL     1       6.419  30.364  57.042  1.00  0.00     0.090 N 
HETATM   15  H   UNL     1       5.593  29.917  56.636  1.00  0.00     0.313 HD
HETATM   16  H   UNL     1       7.027  30.566  56.247  1.00  0.00     0.313 HD
ENDBRANCH  13  14
BRANCH  13  17
HETATM   17  C   UNL     1       8.447  29.880  58.488  1.00  0.00     0.082 C 
BRANCH  17  18
HETATM   18  C   UNL     1       8.360  30.676  59.775  1.00  0.00    -0.053 A 
HETATM   19  C   UNL     1       9.269  30.445  60.821  1.00  0.00     0.010 A 
HETATM   20  C   UNL     1       9.201  31.186  62.004  1.00  0.00     0.046 A 
HETATM   21  C   UNL     1       8.219  32.158  62.148  1.00  0.00     0.154 A 
HETATM   22  F   UNL     1       8.157  32.868  63.283  1.00  0.00    -0.203 F 
HETATM   23  C   UNL     1       7.307  32.389  61.127  1.00  0.00     0.155 A 
HETATM   24  F   UNL     1       6.359  33.326  61.266  1.00  0.00    -0.203 F 
HETATM   25  C   UNL     1       7.368  31.655  59.944  1.00  0.00     0.052 A 
ENDBRANCH  17  18
ENDBRANCH  13  17
ENDBRANCH   1  13
BRANCH   6  26
HETATM   26  C   UNL     1       8.168  22.192  54.702  1.00  0.00     0.010 A 
HETATM   27  C   UNL     1       8.544  20.891  55.110  1.00  0.00     0.152 A 
HETATM   28  N   UNL     1       8.514  20.004  54.112  1.00  0.00    -0.187 NA
HETATM   29  N   UNL     1       8.118  20.733  53.058  1.00  0.00    -0.289 N 
HETATM   30  H   UNL     1       8.016  20.269  52.161  1.00  0.00     0.188 HD
HETATM   31  C   UNL     1       7.894  22.046  53.358  1.00  0.00     0.123 A 
ENDBRANCH   6  26
TORSDOF 5
ENDMDL
MODEL 4
REMARK VINA RESULT:      -9.7      5.604      7.176
REMARK  5 active torsions:
REMARK  status: ('A' for Active; 'I' for Inactive)
REMARK    1  A    between atoms: N_1  and  C_2 
REMARK    2  A    between atoms: C_2  and  C_3 
REMARK    3  A    between atoms: C_2  and  C_12 
REMARK    4  A    between atoms: C_3  and  C_4 
REMARK    5  A    between atoms: C_17  and  C_23 
ROOT
HETATM    1  C   UNL     1       5.496  26.980  52.367  1.00  0.00     0.141 A 
HETATM    2  N   UNL     1       6.297  26.121  51.819  1.00  0.00    -0.232 NA
HETATM    3  C   UNL     1       6.781  25.075  52.623  1.00  0.00     0.074 A 
HETATM    4  C   UNL     1       7.607  24.111  52.045  1.00  0.00     0.033 A 
HETATM    5  C   UNL     1       8.089  23.038  52.804  1.00  0.00     0.014 A 
HETATM    6  C   UNL     1       7.756  22.908  54.162  1.00  0.00    -0.022 A 
HETATM    7  C   UNL     1       6.931  23.877  54.746  1.00  0.00     0.031 A 
HETATM    8  C   UNL     1       6.455  24.944  53.976  1.00  0.00     0.061 A 
HETATM    9  C   UNL     1       5.574  25.967  54.564  1.00  0.00     0.259 A 
HETATM   10  O   UNL     1       5.236  25.939  55.740  1.00  0.00    -0.267 OA
HETATM   11  N   UNL     1       5.157  26.940  53.696  1.00  0.00    -0.309 N 
HETATM   12  H   UNL     1       4.530  27.660  54.039  1.00  0.00     0.170 HD
ENDROOT
BRANCH   1  13
HETATM   13  C   UNL     1       4.906  28.166  51.587  1.00  0.00     0.291 C 
BRANCH  13  14
HETATM   14  N   UNL     1       3.432  28.189  51.767  1.00  0.00     0.090 N 
HETATM   15  H   UNL     1       3.206  27.724  52.650  1.00  0.00     0.313 HD
HETATM   16  H   UNL     1       3.009  27.604  51.045  1.00  0.00     0.313 HD
ENDBRANCH  13  14
BRANCH  13  17
HETATM   17  C   UNL     1       5.356  28.215  50.112  1.00  0.00     0.082 C 
BRANCH  17  18
HETATM   18  C   UNL     1       4.372  27.647  49.108  1.00  0.00    -0.053 A 
HETATM   19  C   UNL     1       3.651  28.498  48.254  1.00  0.00     0.010 A 
HETATM   20  C   UNL     1       2.754  27.978  47.318  1.00  0.00     0.046 A 
HETATM   21  C   UNL     1       2.569  26.604  47.235  1.00  0.00     0.154 A 
HETATM   22  F   UNL     1       1.709  26.107  46.335  1.00  0.00    -0.203 F 
HETATM   23  C   UNL     1       3.267  25.752  48.081  1.00  0.00     0.155 A 
HETATM   24  F   UNL     1       3.088  24.425  48.002  1.00  0.00    -0.203 F 
HETATM   25  C   UNL     1       4.164  26.262  49.017  1.00  0.00     0.052 A 
ENDBRANCH  17  18
ENDBRANCH  13  17
ENDBRANCH   1  13
BRANCH   6  26
HETATM   26  C   UNL     1       8.250  21.778  54.929  1.00  0.00     0.010 A 
HETATM   27  C   UNL     1       8.535  21.649  56.310  1.00  0.00     0.152 A 
HETATM   28  N   UNL     1       8.970  20.430  56.638  1.00  0.00    -0.187 NA
HETATM   29  N   UNL     1       8.967  19.771  55.470  1.00  0.00    -0.289 N 
HETATM   30  H   UNL     1       9.265  18.800  55.462  1.00  0.00     0.188 HD
HETATM   31  C   UNL     1       8.542  20.531  54.418  1.00  0.00     0.123 A 
ENDBRANCH   6  26
TORSDOF 5
ENDMDL
MODEL 5
REMARK VINA RESULT:      -9.5      3.491      7.821
REMARK  5 active torsions:
REMARK  status: ('A' for Active; 'I' for Inactive)
REMARK    1  A    between atoms: N_1  and  C_2 
REMARK    2  A    between atoms: C_2  and  C_3 
REMARK    3  A    between atoms: C_2  and  C_12 
REMARK    4  A    between atoms: C_3  and  C_4 
REMARK    5  A    between atoms: C_17  and  C_23 
ROOT
HETATM    1  C   UNL     1       6.775  26.240  54.031  1.00  0.00     0.141 A 
HETATM    2  N   UNL     1       7.675  27.165  54.143  1.00  0.00    -0.232 NA
HETATM    3  C   UNL     1       7.638  27.978  55.289  1.00  0.00     0.074 A 
HETATM    4  C   UNL     1       8.625  28.949  55.455  1.00  0.00     0.033 A 
HETATM    5  C   UNL     1       8.639  29.761  56.596  1.00  0.00     0.014 A 
HETATM    6  C   UNL     1       7.663  29.620  57.594  1.00  0.00    -0.022 A 
HETATM    7  C   UNL     1       6.668  28.649  57.427  1.00  0.00     0.031 A 
HETATM    8  C   UNL     1       6.666  27.842  56.283  1.00  0.00     0.061 A 
HETATM    9  C   UNL     1       5.638  26.804  56.092  1.00  0.00     0.259 A 
HETATM   10  O   UNL     1       4.745  26.613  56.906  1.00  0.00    -0.267 OA
HETATM   11  N   UNL     1       5.767  26.068  54.946  1.00  0.00    -0.309 N 
HETATM   12  H   UNL     1       5.101  25.323  54.771  1.00  0.00     0.170 HD
ENDROOT
BRANCH   1  13
HETATM   13  C   UNL     1       6.716  25.294  52.821  1.00  0.00     0.291 C 
BRANCH  13  14
HETATM   14  N   UNL     1       5.440  24.534  52.853  1.00  0.00     0.090 N 
HETATM   15  H   UNL     1       4.666  25.202  52.884  1.00  0.00     0.313 HD
HETATM   16  H   UNL     1       5.387  24.027  53.738  1.00  0.00     0.313 HD
ENDBRANCH  13  14
BRANCH  13  17
HETATM   17  C   UNL     1       7.968  24.405  52.675  1.00  0.00     0.082 C 
BRANCH  17  18
HETATM   18  C   UNL     1       7.995  23.163  53.545  1.00  0.00    -0.053 A 
HETATM   19  C   UNL     1       7.864  21.887  52.972  1.00  0.00     0.010 A 
HETATM   20  C   UNL     1       7.902  20.739  53.769  1.00  0.00     0.046 A 
HETATM   21  C   UNL     1       8.066  20.863  55.142  1.00  0.00     0.154 A 
HETATM   22  F   UNL     1       8.104  19.760  55.903  1.00  0.00    -0.203 F 
HETATM   23  C   UNL     1       8.186  22.119  55.722  1.00  0.00     0.155 A 
HETATM   24  F   UNL     1       8.344  22.238  57.048  1.00  0.00    -0.203 F 
HETATM   25  C   UNL     1       8.150  23.268  54.936  1.00  0.00     0.052 A 
ENDBRANCH  17  18
ENDBRANCH  13  17
ENDBRANCH   1  13
BRANCH   6  26
HETATM   26  C   UNL     1       7.704  30.459  58.780  1.00  0.00     0.010 A 
HETATM   27  C   UNL     1       6.891  31.549  59.172  1.00  0.00     0.152 A 
HETATM   28  N   UNL     1       7.246  32.062  60.353  1.00  0.00    -0.187 NA
HETATM   29  N   UNL     1       8.288  31.304  60.724  1.00  0.00    -0.289 N 
HETATM   30  H   UNL     1       8.739  31.504  61.611  1.00  0.00     0.188 HD
HETATM   31  C   UNL     1       8.600  30.329  59.820  1.00  0.00     0.123 A 
ENDBRANCH   6  26
TORSDOF 5
ENDMDL
MODEL 6
REMARK VINA RESULT:      -9.4      5.433      9.869
REMARK  5 active torsions:
REMARK  status: ('A' for Active; 'I' for Inactive)
REMARK    1  A    between atoms: N_1  and  C_2 
REMARK    2  A    between atoms: C_2  and  C_3 
REMARK    3  A    between atoms: C_2  and  C_12 
REMARK    4  A    between atoms: C_3  and  C_4 
REMARK    5  A    between atoms: C_17  and  C_23 
ROOT
HETATM    1  C   UNL     1       8.371  29.909  58.482  1.00  0.00     0.141 A 
HETATM    2  N   UNL     1       8.869  29.903  59.678  1.00  0.00    -0.232 NA
HETATM    3  C   UNL     1       8.375  30.845  60.597  1.00  0.00     0.074 A 
HETATM    4  C   UNL     1       8.862  30.828  61.904  1.00  0.00     0.033 A 
HETATM    5  C   UNL     1       8.375  31.730  62.858  1.00  0.00     0.014 A 
HETATM    6  C   UNL     1       7.391  32.673  62.521  1.00  0.00    -0.022 A 
HETATM    7  C   UNL     1       6.905  32.696  61.209  1.00  0.00     0.031 A 
HETATM    8  C   UNL     1       7.398  31.788  60.266  1.00  0.00     0.061 A 
HETATM    9  C   UNL     1       6.891  31.783  58.883  1.00  0.00     0.259 A 
HETATM   10  O   UNL     1       6.038  32.571  58.498  1.00  0.00    -0.267 OA
HETATM   11  N   UNL     1       7.436  30.826  58.070  1.00  0.00    -0.309 N 
HETATM   12  H   UNL     1       7.109  30.759  57.112  1.00  0.00     0.170 HD
ENDROOT
BRANCH   1  13
HETATM   13  C   UNL     1       8.835  28.929  57.394  1.00  0.00     0.291 C 
BRANCH  13  14
HETATM   14  N   UNL     1       9.971  29.527  56.646  1.00  0.00     0.090 N 
HETATM   15  H   UNL     1      10.554  30.049  57.305  1.00  0.00     0.313 HD
HETATM   16  H   UNL     1       9.602  30.231  56.005  1.00  0.00     0.313 HD
ENDBRANCH  13  14
BRANCH  13  17
HETATM   17  C   UNL     1       7.689  28.427  56.491  1.00  0.00     0.082 C 
BRANCH  17  18
HETATM   18  C   UNL     1       7.583  26.922  56.344  1.00  0.00    -0.053 A 
HETATM   19  C   UNL     1       8.265  26.068  57.227  1.00  0.00     0.010 A 
HETATM   20  C   UNL     1       8.158  24.680  57.104  1.00  0.00     0.046 A 
HETATM   21  C   UNL     1       7.375  24.139  56.093  1.00  0.00     0.154 A 
HETATM   22  F   UNL     1       7.273  22.808  55.978  1.00  0.00    -0.203 F 
HETATM   23  C   UNL     1       6.705  24.972  55.206  1.00  0.00     0.155 A 
HETATM   24  F   UNL     1       5.948  24.450  54.230  1.00  0.00    -0.203 F 
HETATM   25  C   UNL     1       6.804  26.356  55.322  1.00  0.00     0.052 A 
ENDBRANCH  17  18
ENDBRANCH  13  17
ENDBRANCH   1  13
BRANCH   6  26
HETATM   26  C   UNL     1       6.886  33.591  63.528  1.00  0.00     0.010 A 
HETATM   27  C   UNL     1       5.936  34.636  63.436  1.00  0.00     0.152 A 
HETATM   28  N   UNL     1       5.729  35.254  64.602  1.00  0.00    -0.187 NA
HETATM   29  N   UNL     1       6.546  34.608  65.448  1.00  0.00    -0.289 N 
HETATM   30  H   UNL     1       6.566  34.903  66.419  1.00  0.00     0.188 HD
HETATM   31  C   UNL     1       7.257  33.603  64.856  1.00  0.00     0.123 A 
ENDBRANCH   6  26
TORSDOF 5
ENDMDL
MODEL 7
REMARK VINA RESULT:      -9.3      3.553      8.071
REMARK  5 active torsions:
REMARK  status: ('A' for Active; 'I' for Inactive)
REMARK    1  A    between atoms: N_1  and  C_2 
REMARK    2  A    between atoms: C_2  and  C_3 
REMARK    3  A    between atoms: C_2  and  C_12 
REMARK    4  A    between atoms: C_3  and  C_4 
REMARK    5  A    between atoms: C_17  and  C_23 
ROOT
HETATM    1  C   UNL     1       6.684  26.388  53.637  1.00  0.00     0.141 A 
HETATM    2  N   UNL     1       5.778  26.574  54.544  1.00  0.00    -0.232 NA
HETATM    3  C   UNL     1       5.958  27.644  55.438  1.00  0.00     0.074 A 
HETATM    4  C   UNL     1       4.973  27.893  56.393  1.00  0.00     0.033 A 
HETATM    5  C   UNL     1       5.101  28.966  57.285  1.00  0.00     0.014 A 
HETATM    6  C   UNL     1       6.221  29.810  57.241  1.00  0.00    -0.022 A 
HETATM    7  C   UNL     1       7.214  29.558  56.287  1.00  0.00     0.031 A 
HETATM    8  C   UNL     1       7.073  28.484  55.401  1.00  0.00     0.061 A 
HETATM    9  C   UNL     1       8.097  28.209  54.378  1.00  0.00     0.259 A 
HETATM   10  O   UNL     1       9.110  28.887  54.270  1.00  0.00    -0.267 OA
HETATM   11  N   UNL     1       7.825  27.148  53.558  1.00  0.00    -0.309 N 
HETATM   12  H   UNL     1       8.483  26.923  52.820  1.00  0.00     0.170 HD
ENDROOT
BRANCH   1  13
HETATM   13  C   UNL     1       6.595  25.250  52.609  1.00  0.00     0.291 C 
BRANCH  13  14
HETATM   14  N   UNL     1       5.347  24.478  52.835  1.00  0.00     0.090 N 
HETATM   15  H   UNL     1       5.325  23.698  52.174  1.00  0.00     0.313 HD
HETATM   16  H   UNL     1       4.552  25.065  52.578  1.00  0.00     0.313 HD
ENDBRANCH  13  14
BRANCH  13  17
HETATM   17  C   UNL     1       7.866  24.377  52.548  1.00  0.00     0.082 C 
BRANCH  17  18
HETATM   18  C   UNL     1       7.888  23.185  53.484  1.00  0.00    -0.053 A 
HETATM   19  C   UNL     1       7.794  21.878  52.978  1.00  0.00     0.010 A 
HETATM   20  C   UNL     1       7.828  20.775  53.836  1.00  0.00     0.046 A 
HETATM   21  C   UNL     1       7.948  20.975  55.205  1.00  0.00     0.154 A 
HETATM   22  F   UNL     1       7.981  19.916  56.025  1.00  0.00    -0.203 F 
HETATM   23  C   UNL     1       8.030  22.262  55.719  1.00  0.00     0.155 A 
HETATM   24  F   UNL     1       8.147  22.456  57.041  1.00  0.00    -0.203 F 
HETATM   25  C   UNL     1       7.999  23.367  54.871  1.00  0.00     0.052 A 
ENDBRANCH  17  18
ENDBRANCH  13  17
ENDBRANCH   1  13
BRANCH   6  26
HETATM   26  C   UNL     1       6.328  30.928  58.163  1.00  0.00     0.010 A 
HETATM   27  C   UNL     1       7.442  31.448  58.864  1.00  0.00     0.152 A 
HETATM   28  N   UNL     1       7.134  32.506  59.618  1.00  0.00    -0.187 NA
HETATM   29  N   UNL     1       5.820  32.671  59.404  1.00  0.00    -0.289 N 
HETATM   30  H   UNL     1       5.345  33.432  59.879  1.00  0.00     0.188 HD
HETATM   31  C   UNL     1       5.291  31.756  58.539  1.00  0.00     0.123 A 
ENDBRANCH   6  26
TORSDOF 5
ENDMDL
MODEL 8
REMARK VINA RESULT:      -9.3      4.556      6.633
REMARK  5 active torsions:
REMARK  status: ('A' for Active; 'I' for Inactive)
REMARK    1  A    between atoms: N_1  and  C_2 
REMARK    2  A    between atoms: C_2  and  C_3 
REMARK    3  A    between atoms: C_2  and  C_12 
REMARK    4  A    between atoms: C_3  and  C_4 
REMARK    5  A    between atoms: C_17  and  C_23 
ROOT
HETATM    1  C   UNL     1       7.803  30.753  59.278  1.00  0.00     0.141 A 
HETATM    2  N   UNL     1       8.332  29.649  58.852  1.00  0.00    -0.232 NA
HETATM    3  C   UNL     1       7.625  28.919  57.880  1.00  0.00     0.074 A 
HETATM    4  C   UNL     1       8.195  27.752  57.371  1.00  0.00     0.033 A 
HETATM    5  C   UNL     1       7.536  27.010  56.383  1.00  0.00     0.014 A 
HETATM    6  C   UNL     1       6.290  27.419  55.885  1.00  0.00    -0.022 A 
HETATM    7  C   UNL     1       5.713  28.587  56.399  1.00  0.00     0.031 A 
HETATM    8  C   UNL     1       6.382  29.321  57.385  1.00  0.00     0.061 A 
HETATM    9  C   UNL     1       5.802  30.560  57.929  1.00  0.00     0.259 A 
HETATM   10  O   UNL     1       4.718  30.990  57.560  1.00  0.00    -0.267 OA
HETATM   11  N   UNL     1       6.571  31.196  58.867  1.00  0.00    -0.309 N 
HETATM   12  H   UNL     1       6.234  32.067  59.262  1.00  0.00     0.170 HD
ENDROOT
BRANCH   1  13
HETATM   13  C   UNL     1       8.483  31.632  60.339  1.00  0.00     0.291 C 
BRANCH  13  14
HETATM   14  N   UNL     1       9.874  31.931  59.914  1.00  0.00     0.090 N 
HETATM   15  H   UNL     1      10.507  31.673  60.675  1.00  0.00     0.313 HD
HETATM   16  H   UNL     1       9.973  32.943  59.819  1.00  0.00     0.313 HD
ENDBRANCH  13  14
BRANCH  13  17
HETATM   17  C   UNL     1       8.377  31.061  61.769  1.00  0.00     0.082 C 
BRANCH  17  18
HETATM   18  C   UNL     1       7.471  31.824  62.714  1.00  0.00    -0.053 A 
HETATM   19  C   UNL     1       6.074  31.707  62.615  1.00  0.00     0.010 A 
HETATM   20  C   UNL     1       5.235  32.398  63.494  1.00  0.00     0.046 A 
HETATM   21  C   UNL     1       5.789  33.215  64.471  1.00  0.00     0.154 A 
HETATM   22  F   UNL     1       4.983  33.876  65.313  1.00  0.00    -0.203 F 
HETATM   23  C   UNL     1       7.168  33.348  64.573  1.00  0.00     0.155 A 
HETATM   24  F   UNL     1       7.703  34.137  65.516  1.00  0.00    -0.203 F 
HETATM   25  C   UNL     1       8.011  32.662  63.702  1.00  0.00     0.052 A 
ENDBRANCH  17  18
ENDBRANCH  13  17
ENDBRANCH   1  13
BRANCH   6  26
HETATM   26  C   UNL     1       5.629  26.647  54.847  1.00  0.00     0.010 A 
HETATM   27  C   UNL     1       5.679  25.264  54.547  1.00  0.00     0.152 A 
HETATM   28  N   UNL     1       4.912  24.931  53.506  1.00  0.00    -0.187 NA
HETATM   29  N   UNL     1       4.367  26.098  53.132  1.00  0.00    -0.289 N 
HETATM   30  H   UNL     1       3.729  26.102  52.342  1.00  0.00     0.188 HD
HETATM   31  C   UNL     1       4.760  27.154  53.904  1.00  0.00     0.123 A 
ENDBRANCH   6  26
TORSDOF 5
ENDMDL
MODEL 9
REMARK VINA RESULT:      -9.2      6.243      9.171
REMARK  5 active torsions:
REMARK  status: ('A' for Active; 'I' for Inactive)
REMARK    1  A    between atoms: N_1  and  C_2 
REMARK    2  A    between atoms: C_2  and  C_3 
REMARK    3  A    between atoms: C_2  and  C_12 
REMARK    4  A    between atoms: C_3  and  C_4 
REMARK    5  A    between atoms: C_17  and  C_23 
ROOT
HETATM    1  C   UNL     1       5.961  26.815  52.025  1.00  0.00     0.141 A 
HETATM    2  N   UNL     1       5.665  26.139  50.960  1.00  0.00    -0.232 NA
HETATM    3  C   UNL     1       4.702  26.680  50.090  1.00  0.00     0.074 A 
HETATM    4  C   UNL     1       4.401  25.995  48.913  1.00  0.00     0.033 A 
HETATM    5  C   UNL     1       3.467  26.513  48.006  1.00  0.00     0.014 A 
HETATM    6  C   UNL     1       2.813  27.728  48.261  1.00  0.00    -0.022 A 
HETATM    7  C   UNL     1       3.109  28.415  49.445  1.00  0.00     0.031 A 
HETATM    8  C   UNL     1       4.045  27.887  50.342  1.00  0.00     0.061 A 
HETATM    9  C   UNL     1       4.385  28.599  51.585  1.00  0.00     0.259 A 
HETATM   10  O   UNL     1       3.861  29.660  51.893  1.00  0.00    -0.267 OA
HETATM   11  N   UNL     1       5.335  27.989  52.360  1.00  0.00    -0.309 N 
HETATM   12  H   UNL     1       5.626  28.444  53.218  1.00  0.00     0.170 HD
ENDROOT
BRANCH   1  13
HETATM   13  C   UNL     1       6.996  26.322  53.048  1.00  0.00     0.291 C 
BRANCH  13  14
HETATM   14  N   UNL     1       7.782  27.478  53.549  1.00  0.00     0.090 N 
HETATM   15  H   UNL     1       7.292  27.878  54.353  1.00  0.00     0.313 HD
HETATM   16  H   UNL     1       7.767  28.212  52.839  1.00  0.00     0.313 HD
ENDBRANCH  13  14
BRANCH  13  17
HETATM   17  C   UNL     1       7.863  25.155  52.531  1.00  0.00     0.082 C 
BRANCH  17  18
HETATM   18  C   UNL     1       7.798  23.879  53.346  1.00  0.00    -0.053 A 
HETATM   19  C   UNL     1       7.572  23.927  54.732  1.00  0.00     0.010 A 
HETATM   20  C   UNL     1       7.497  22.752  55.485  1.00  0.00     0.046 A 
HETATM   21  C   UNL     1       7.655  21.524  54.856  1.00  0.00     0.154 A 
HETATM   22  F   UNL     1       7.581  20.399  55.581  1.00  0.00    -0.203 F 
HETATM   23  C   UNL     1       7.889  21.462  53.489  1.00  0.00     0.155 A 
HETATM   24  F   UNL     1       8.042  20.276  52.882  1.00  0.00    -0.203 F 
HETATM   25  C   UNL     1       7.965  22.628  52.731  1.00  0.00     0.052 A 
ENDBRANCH  17  18
ENDBRANCH  13  17
ENDBRANCH   1  13
BRANCH   6  26
HETATM   26  C   UNL     1       1.860  28.259  47.301  1.00  0.00     0.010 A 
HETATM   27  C   UNL     1       0.670  27.705  46.773  1.00  0.00     0.152 A 
HETATM   28  N   UNL     1       0.058  28.518  45.908  1.00  0.00    -0.187 NA
HETATM   29  N   UNL     1       0.853  29.598  45.877  1.00  0.00    -0.289 N 
HETATM   30  H   UNL     1       0.591  30.374  45.277  1.00  0.00     0.188 HD
HETATM   31  C   UNL     1       1.942  29.495  46.694  1.00  0.00     0.123 A 
ENDBRANCH   6  26
TORSDOF 5
ENDMDL
MODEL 10
REMARK VINA RESULT:      -9.1      2.649      3.576
REMARK  5 active torsions:
REMARK  status: ('A' for Active; 'I' for Inactive)
REMARK    1  A    between atoms: N_1  and  C_2 
REMARK    2  A    between atoms: C_2  and  C_3 
REMARK    3  A    between atoms: C_2  and  C_12 
REMARK    4  A    between atoms: C_3  and  C_4 
REMARK    5  A    between atoms: C_17  and  C_23 
ROOT
HETATM    1  C   UNL     1       6.975  27.785  56.325  1.00  0.00     0.141 A 
HETATM    2  N   UNL     1       6.866  27.242  55.153  1.00  0.00    -0.232 NA
HETATM    3  C   UNL     1       7.271  25.903  55.013  1.00  0.00     0.074 A 
HETATM    4  C   UNL     1       7.120  25.282  53.774  1.00  0.00     0.033 A 
HETATM    5  C   UNL     1       7.485  23.941  53.599  1.00  0.00     0.014 A 
HETATM    6  C   UNL     1       8.013  23.194  54.664  1.00  0.00    -0.022 A 
HETATM    7  C   UNL     1       8.170  23.817  55.907  1.00  0.00     0.031 A 
HETATM    8  C   UNL     1       7.800  25.157  56.069  1.00  0.00     0.061 A 
HETATM    9  C   UNL     1       7.942  25.828  57.372  1.00  0.00     0.259 A 
HETATM   10  O   UNL     1       8.398  25.258  58.354  1.00  0.00    -0.267 OA
HETATM   11  N   UNL     1       7.517  27.129  57.402  1.00  0.00    -0.309 N 
HETATM   12  H   UNL     1       7.570  27.637  58.278  1.00  0.00     0.170 HD
ENDROOT
BRANCH   1  13
HETATM   13  C   UNL     1       6.567  29.241  56.596  1.00  0.00     0.291 C 
BRANCH  13  14
HETATM   14  N   UNL     1       6.209  29.899  55.313  1.00  0.00     0.090 N 
HETATM   15  H   UNL     1       7.072  30.108  54.805  1.00  0.00     0.313 HD
HETATM   16  H   UNL     1       5.797  30.810  55.521  1.00  0.00     0.313 HD
ENDBRANCH  13  14
BRANCH  13  17
HETATM   17  C   UNL     1       7.604  30.024  57.430  1.00  0.00     0.082 C 
BRANCH  17  18
HETATM   18  C   UNL     1       7.031  30.958  58.477  1.00  0.00    -0.053 A 
HETATM   19  C   UNL     1       7.805  31.354  59.580  1.00  0.00     0.010 A 
HETATM   20  C   UNL     1       7.286  32.227  60.540  1.00  0.00     0.046 A 
HETATM   21  C   UNL     1       5.988  32.703  60.405  1.00  0.00     0.154 A 
HETATM   22  F   UNL     1       5.494  33.541  61.326  1.00  0.00    -0.203 F 
HETATM   23  C   UNL     1       5.209  32.311  59.324  1.00  0.00     0.155 A 
HETATM   24  F   UNL     1       3.956  32.770  59.193  1.00  0.00    -0.203 F 
HETATM   25  C   UNL     1       5.719  31.442  58.362  1.00  0.00     0.052 A 
ENDBRANCH  17  18
ENDBRANCH  13  17
ENDBRANCH   1  13
BRANCH   6  26
HETATM   26  C   UNL     1       8.370  21.799  54.469  1.00  0.00     0.010 A 
HETATM   27  C   UNL     1       8.340  20.988  53.310  1.00  0.00     0.152 A 
HETATM   28  N   UNL     1       8.760  19.741  53.537  1.00  0.00    -0.187 NA
HETATM   29  N   UNL     1       9.061  19.746  54.845  1.00  0.00    -0.289 N 
HETATM   30  H   UNL     1       9.412  18.890  55.262  1.00  0.00     0.188 HD
HETATM   31  C   UNL     1       8.849  20.953  55.447  1.00  0.00     0.123 A 
ENDBRANCH   6  26
TORSDOF 5
ENDMDL
