MODEL 1
REMARK VINA RESULT:      -8.4      0.000      0.000
REMARK  10 active torsions:
REMARK  status: ('A' for Active; 'I' for Inactive)
REMARK    1  A    between atoms: C_2  and  O_3 
REMARK    2  A    between atoms: O_3  and  C_4 
REMARK    3  A    between atoms: C_4  and  C_5 
REMARK    4  A    between atoms: C_10  and  N_11 
REMARK       I    between atoms: N_11  and  C_12 
REMARK    5  A    between atoms: C_12  and  C_13 
REMARK    6  A    between atoms: C_13  and  C_14 
REMARK    7  A    between atoms: C_14  and  N_15 
REMARK    8  A    between atoms: C_19  and  C_20 
REMARK    9  A    between atoms: C_20  and  O_21 
REMARK   10  A    between atoms: O_21  and  C_22 
ROOT
HETATM    1  N   UNL     1       5.344  26.320  54.840  1.00  0.00    -0.324 N 
HETATM    2  C   UNL     1       5.142  26.889  53.628  1.00  0.00     0.223 C 
HETATM    3  O   UNL     1       4.050  27.419  53.403  1.00  0.00    -0.273 OA
HETATM    4  H   UNL     1       4.498  26.424  55.410  1.00  0.00     0.169 HD
ENDROOT
BRANCH   1   5
HETATM    5  C   UNL     1       6.365  25.619  55.480  1.00  0.00     0.080 A 
HETATM    6  C   UNL     1       6.908  26.184  56.636  1.00  0.00     0.137 A 
HETATM    7  N   UNL     1       7.843  25.316  57.131  1.00  0.00    -0.349 N 
HETATM    8  H   UNL     1       8.380  25.482  57.974  1.00  0.00     0.166 HD
HETATM    9  C   UNL     1       7.971  24.221  56.321  1.00  0.00     0.045 A 
HETATM   10  C   UNL     1       7.076  24.380  55.252  1.00  0.00     0.021 A 
HETATM   11  C   UNL     1       8.830  23.123  56.473  1.00  0.00     0.032 A 
HETATM   12  C   UNL     1       7.106  23.355  54.279  1.00  0.00     0.035 A 
HETATM   13  C   UNL     1       7.965  22.254  54.409  1.00  0.00     0.012 A 
HETATM   14  C   UNL     1       8.814  22.132  55.495  1.00  0.00     0.021 A 
HETATM   15 BR   UNL     1       7.959  20.923  53.062  1.00  0.00    -0.051 Br
BRANCH   6  16
HETATM   16  C   UNL     1       6.598  27.449  57.265  1.00  0.00     0.312 C 
HETATM   17  O   UNL     1       5.581  28.093  57.047  1.00  0.00    -0.258 OA
BRANCH  16  18
HETATM   18  O   UNL     1       7.607  27.812  58.103  1.00  0.00    -0.317 OA
BRANCH  18  19
HETATM   19  C   UNL     1       8.201  29.094  57.843  1.00  0.00     0.175 C 
HETATM   20  C   UNL     1       9.488  28.926  57.059  1.00  0.00     0.034 C 
ENDBRANCH  18  19
ENDBRANCH  16  18
ENDBRANCH   6  16
ENDBRANCH   1   5
BRANCH   2  21
HETATM   21  C   UNL     1       6.193  26.902  52.561  1.00  0.00     0.131 C 
BRANCH  21  22
HETATM   22  C   UNL     1       5.788  25.944  51.446  1.00  0.00     0.244 C 
BRANCH  22  23
HETATM   23  N   UNL     1       5.537  26.651  50.108  1.00  0.00    -0.071 N 
HETATM   24  H   UNL     1       6.362  26.479  49.517  1.00  0.00     0.279 HD
HETATM   25  C   UNL     1       4.352  25.981  49.432  1.00  0.00     0.235 C 
HETATM   26  C   UNL     1       4.043  26.647  48.100  1.00  0.00     0.042 C 
HETATM   27  C   UNL     1       3.787  28.146  48.264  1.00  0.00     0.088 C 
HETATM   28  C   UNL     1       5.026  28.782  48.903  1.00  0.00     0.042 C 
HETATM   29  C   UNL     1       5.375  28.150  50.247  1.00  0.00     0.235 C 
BRANCH  27  30
HETATM   30  C   UNL     1       2.550  28.433  49.106  1.00  0.00     0.263 C 
HETATM   31  O   UNL     1       2.584  29.030  50.173  1.00  0.00    -0.265 OA
BRANCH  30  32
HETATM   32  O   UNL     1       1.441  27.888  48.548  1.00  0.00    -0.322 OA
BRANCH  32  33
HETATM   33  C   UNL     1       1.004  28.484  47.313  1.00  0.00     0.174 C 
HETATM   34  C   UNL     1       0.434  27.418  46.394  1.00  0.00     0.034 C 
ENDBRANCH  32  33
ENDBRANCH  30  32
ENDBRANCH  27  30
ENDBRANCH  22  23
ENDBRANCH  21  22
ENDBRANCH   2  21
TORSDOF 10
ENDMDL
MODEL 2
REMARK VINA RESULT:      -8.3      2.835      8.784
REMARK  10 active torsions:
REMARK  status: ('A' for Active; 'I' for Inactive)
REMARK    1  A    between atoms: C_2  and  O_3 
REMARK    2  A    between atoms: O_3  and  C_4 
REMARK    3  A    between atoms: C_4  and  C_5 
REMARK    4  A    between atoms: C_10  and  N_11 
REMARK       I    between atoms: N_11  and  C_12 
REMARK    5  A    between atoms: C_12  and  C_13 
REMARK    6  A    between atoms: C_13  and  C_14 
REMARK    7  A    between atoms: C_14  and  N_15 
REMARK    8  A    between atoms: C_19  and  C_20 
REMARK    9  A    between atoms: C_20  and  O_21 
REMARK   10  A    between atoms: O_21  and  C_22 
ROOT
HETATM    1  N   UNL     1       5.362  26.579  55.552  1.00  0.00    -0.324 N 
HETATM    2  C   UNL     1       5.739  27.739  56.141  1.00  0.00     0.223 C 
HETATM    3  O   UNL     1       4.964  28.270  56.941  1.00  0.00    -0.273 OA
HETATM    4  H   UNL     1       4.428  26.317  55.884  1.00  0.00     0.169 HD
ENDROOT
BRANCH   1   5
HETATM    5  C   UNL     1       5.888  25.696  54.611  1.00  0.00     0.080 A 
HETATM    6  C   UNL     1       5.692  26.000  53.262  1.00  0.00     0.137 A 
HETATM    7  N   UNL     1       6.330  25.047  52.516  1.00  0.00    -0.349 N 
HETATM    8  H   UNL     1       6.353  25.040  51.503  1.00  0.00     0.166 HD
HETATM    9  C   UNL     1       6.901  24.099  53.321  1.00  0.00     0.045 A 
HETATM   10  C   UNL     1       6.627  24.453  54.650  1.00  0.00     0.021 A 
HETATM   11  C   UNL     1       7.624  22.958  52.942  1.00  0.00     0.032 A 
HETATM   12  C   UNL     1       7.104  23.551  55.629  1.00  0.00     0.035 A 
HETATM   13  C   UNL     1       7.820  22.400  55.268  1.00  0.00     0.012 A 
HETATM   14  C   UNL     1       8.086  22.107  53.943  1.00  0.00     0.021 A 
HETATM   15 BR   UNL     1       8.422  21.231  56.632  1.00  0.00    -0.051 Br
BRANCH   6  16
HETATM   16  C   UNL     1       4.961  27.101  52.672  1.00  0.00     0.312 C 
HETATM   17  O   UNL     1       3.892  27.520  53.094  1.00  0.00    -0.258 OA
BRANCH  16  18
HETATM   18  O   UNL     1       5.628  27.572  51.583  1.00  0.00    -0.317 OA
BRANCH  18  19
HETATM   19  C   UNL     1       4.825  27.806  50.415  1.00  0.00     0.175 C 
HETATM   20  C   UNL     1       4.623  26.513  49.649  1.00  0.00     0.034 C 
ENDBRANCH  18  19
ENDBRANCH  16  18
ENDBRANCH   6  16
ENDBRANCH   1   5
BRANCH   2  21
HETATM   21  C   UNL     1       7.058  28.390  55.861  1.00  0.00     0.131 C 
BRANCH  21  22
HETATM   22  C   UNL     1       7.862  28.472  57.154  1.00  0.00     0.244 C 
BRANCH  22  23
HETATM   23  N   UNL     1       8.140  29.914  57.599  1.00  0.00    -0.071 N 
HETATM   24  H   UNL     1       8.093  30.503  56.756  1.00  0.00     0.279 HD
HETATM   25  C   UNL     1       7.012  30.353  58.518  1.00  0.00     0.235 C 
HETATM   26  C   UNL     1       7.235  31.776  59.004  1.00  0.00     0.042 C 
HETATM   27  C   UNL     1       8.585  31.928  59.707  1.00  0.00     0.088 C 
HETATM   28  C   UNL     1       9.690  31.521  58.727  1.00  0.00     0.042 C 
HETATM   29  C   UNL     1       9.513  30.095  58.211  1.00  0.00     0.235 C 
BRANCH  27  30
HETATM   30  C   UNL     1       8.672  31.093  60.979  1.00  0.00     0.263 C 
HETATM   31  O   UNL     1       9.440  30.151  61.117  1.00  0.00    -0.265 OA
BRANCH  30  32
HETATM   32  O   UNL     1       7.754  31.496  61.892  1.00  0.00    -0.322 OA
BRANCH  32  33
HETATM   33  C   UNL     1       8.266  32.257  63.001  1.00  0.00     0.174 C 
HETATM   34  C   UNL     1       7.121  32.916  63.750  1.00  0.00     0.034 C 
ENDBRANCH  32  33
ENDBRANCH  30  32
ENDBRANCH  27  30
ENDBRANCH  22  23
ENDBRANCH  21  22
ENDBRANCH   2  21
TORSDOF 10
ENDMDL
MODEL 3
REMARK VINA RESULT:      -8.3      4.294      9.236
REMARK  10 active torsions:
REMARK  status: ('A' for Active; 'I' for Inactive)
REMARK    1  A    between atoms: C_2  and  O_3 
REMARK    2  A    between atoms: O_3  and  C_4 
REMARK    3  A    between atoms: C_4  and  C_5 
REMARK    4  A    between atoms: C_10  and  N_11 
REMARK       I    between atoms: N_11  and  C_12 
REMARK    5  A    between atoms: C_12  and  C_13 
REMARK    6  A    between atoms: C_13  and  C_14 
REMARK    7  A    between atoms: C_14  and  N_15 
REMARK    8  A    between atoms: C_19  and  C_20 
REMARK    9  A    between atoms: C_20  and  O_21 
REMARK   10  A    between atoms: O_21  and  C_22 
ROOT
HETATM    1  N   UNL     1       7.242  25.168  56.541  1.00  0.00    -0.324 N 
HETATM    2  C   UNL     1       7.730  26.175  57.304  1.00  0.00     0.223 C 
HETATM    3  O   UNL     1       7.922  25.960  58.505  1.00  0.00    -0.273 OA
HETATM    4  H   UNL     1       7.095  24.338  57.124  1.00  0.00     0.169 HD
ENDROOT
BRANCH   1   5
HETATM    5  C   UNL     1       6.865  24.989  55.211  1.00  0.00     0.080 A 
HETATM    6  C   UNL     1       7.321  23.839  54.562  1.00  0.00     0.137 A 
HETATM    7  N   UNL     1       6.794  23.830  53.299  1.00  0.00    -0.349 N 
HETATM    8  H   UNL     1       6.960  23.096  52.621  1.00  0.00     0.166 HD
HETATM    9  C   UNL     1       6.045  24.953  53.074  1.00  0.00     0.045 A 
HETATM   10  C   UNL     1       6.081  25.725  54.244  1.00  0.00     0.021 A 
HETATM   11  C   UNL     1       5.359  25.320  51.907  1.00  0.00     0.032 A 
HETATM   12  C   UNL     1       5.393  26.959  54.177  1.00  0.00     0.035 A 
HETATM   13  C   UNL     1       4.710  27.348  53.015  1.00  0.00     0.012 A 
HETATM   14  C   UNL     1       4.684  26.538  51.894  1.00  0.00     0.021 A 
HETATM   15 BR   UNL     1       3.817  29.019  52.994  1.00  0.00    -0.051 Br
BRANCH   6  16
HETATM   16  C   UNL     1       8.193  22.797  55.058  1.00  0.00     0.312 C 
HETATM   17  O   UNL     1       9.338  22.986  55.444  1.00  0.00    -0.258 OA
BRANCH  16  18
HETATM   18  O   UNL     1       7.557  21.595  55.007  1.00  0.00    -0.317 OA
BRANCH  18  19
HETATM   19  C   UNL     1       8.330  20.505  54.479  1.00  0.00     0.175 C 
HETATM   20  C   UNL     1       8.282  20.514  52.963  1.00  0.00     0.034 C 
ENDBRANCH  18  19
ENDBRANCH  16  18
ENDBRANCH   6  16
ENDBRANCH   1   5
BRANCH   2  21
HETATM   21  C   UNL     1       8.050  27.526  56.744  1.00  0.00     0.131 C 
BRANCH  21  22
HETATM   22  C   UNL     1       7.018  28.532  57.243  1.00  0.00     0.244 C 
BRANCH  22  23
HETATM   23  N   UNL     1       7.634  29.884  57.628  1.00  0.00    -0.071 N 
HETATM   24  H   UNL     1       7.670  30.454  56.771  1.00  0.00     0.279 HD
HETATM   25  C   UNL     1       6.687  30.580  58.592  1.00  0.00     0.235 C 
HETATM   26  C   UNL     1       7.249  31.925  59.023  1.00  0.00     0.042 C 
HETATM   27  C   UNL     1       8.638  31.784  59.647  1.00  0.00     0.088 C 
HETATM   28  C   UNL     1       9.566  31.123  58.622  1.00  0.00     0.042 C 
HETATM   29  C   UNL     1       9.046  29.765  58.160  1.00  0.00     0.235 C 
BRANCH  27  30
HETATM   30  C   UNL     1       8.613  30.974  60.938  1.00  0.00     0.263 C 
HETATM   31  O   UNL     1       9.357  30.028  61.155  1.00  0.00    -0.265 OA
BRANCH  30  32
HETATM   32  O   UNL     1       7.626  31.401  61.764  1.00  0.00    -0.322 OA
BRANCH  32  33
HETATM   33  C   UNL     1       8.047  32.221  62.869  1.00  0.00     0.174 C 
HETATM   34  C   UNL     1       7.058  33.355  63.080  1.00  0.00     0.034 C 
ENDBRANCH  32  33
ENDBRANCH  30  32
ENDBRANCH  27  30
ENDBRANCH  22  23
ENDBRANCH  21  22
ENDBRANCH   2  21
TORSDOF 10
ENDMDL
MODEL 4
REMARK VINA RESULT:      -8.2      5.111      8.292
REMARK  10 active torsions:
REMARK  status: ('A' for Active; 'I' for Inactive)
REMARK    1  A    between atoms: C_2  and  O_3 
REMARK    2  A    between atoms: O_3  and  C_4 
REMARK    3  A    between atoms: C_4  and  C_5 
REMARK    4  A    between atoms: C_10  and  N_11 
REMARK       I    between atoms: N_11  and  C_12 
REMARK    5  A    between atoms: C_12  and  C_13 
REMARK    6  A    between atoms: C_13  and  C_14 
REMARK    7  A    between atoms: C_14  and  N_15 
REMARK    8  A    between atoms: C_19  and  C_20 
REMARK    9  A    between atoms: C_20  and  O_21 
REMARK   10  A    between atoms: O_21  and  C_22 
ROOT
HETATM    1  N   UNL     1       6.492  32.065  58.389  1.00  0.00    -0.324 N 
HETATM    2  C   UNL     1       5.487  31.569  57.630  1.00  0.00     0.223 C 
HETATM    3  O   UNL     1       5.221  32.136  56.565  1.00  0.00    -0.273 OA
HETATM    4  H   UNL     1       6.891  32.890  57.929  1.00  0.00     0.169 HD
ENDROOT
BRANCH   1   5
HETATM    5  C   UNL     1       7.082  31.772  59.617  1.00  0.00     0.080 A 
HETATM    6  C   UNL     1       7.954  30.682  59.669  1.00  0.00     0.137 A 
HETATM    7  N   UNL     1       8.461  30.606  60.938  1.00  0.00    -0.349 N 
HETATM    8  H   UNL     1       9.129  29.907  61.240  1.00  0.00     0.166 HD
HETATM    9  C   UNL     1       7.922  31.576  61.738  1.00  0.00     0.045 A 
HETATM   10  C   UNL     1       7.028  32.320  60.954  1.00  0.00     0.021 A 
HETATM   11  C   UNL     1       8.170  31.818  63.097  1.00  0.00     0.032 A 
HETATM   12  C   UNL     1       6.334  33.347  61.636  1.00  0.00     0.035 A 
HETATM   13  C   UNL     1       6.562  33.597  62.998  1.00  0.00     0.012 A 
HETATM   14  C   UNL     1       7.473  32.850  63.721  1.00  0.00     0.021 A 
HETATM   15 BR   UNL     1       5.591  34.983  63.848  1.00  0.00    -0.051 Br
BRANCH   6  16
HETATM   16  C   UNL     1       8.313  29.751  58.621  1.00  0.00     0.312 C 
HETATM   17  O   UNL     1       7.984  28.572  58.608  1.00  0.00    -0.258 OA
BRANCH  16  18
HETATM   18  O   UNL     1       9.077  30.375  57.685  1.00  0.00    -0.317 OA
BRANCH  18  19
HETATM   19  C   UNL     1      10.232  29.647  57.238  1.00  0.00     0.175 C 
HETATM   20  C   UNL     1      10.327  29.691  55.725  1.00  0.00     0.034 C 
ENDBRANCH  18  19
ENDBRANCH  16  18
ENDBRANCH   6  16
ENDBRANCH   1   5
BRANCH   2  21
HETATM   21  C   UNL     1       4.698  30.361  58.030  1.00  0.00     0.131 C 
BRANCH  21  22
HETATM   22  C   UNL     1       4.523  29.452  56.818  1.00  0.00     0.244 C 
BRANCH  22  23
HETATM   23  N   UNL     1       5.667  28.442  56.654  1.00  0.00    -0.071 N 
HETATM   24  H   UNL     1       6.310  28.584  57.446  1.00  0.00     0.279 HD
HETATM   25  C   UNL     1       5.089  27.043  56.790  1.00  0.00     0.235 C 
HETATM   26  C   UNL     1       6.176  25.993  56.624  1.00  0.00     0.042 C 
HETATM   27  C   UNL     1       6.908  26.141  55.290  1.00  0.00     0.088 C 
HETATM   28  C   UNL     1       7.512  27.548  55.222  1.00  0.00     0.042 C 
HETATM   29  C   UNL     1       6.459  28.640  55.379  1.00  0.00     0.235 C 
BRANCH  27  30
HETATM   30  C   UNL     1       5.990  25.901  54.097  1.00  0.00     0.263 C 
HETATM   31  O   UNL     1       4.981  25.212  54.150  1.00  0.00    -0.265 OA
BRANCH  30  32
HETATM   32  O   UNL     1       6.475  26.496  52.979  1.00  0.00    -0.322 OA
BRANCH  32  33
HETATM   33  C   UNL     1       6.679  25.630  51.848  1.00  0.00     0.174 C 
HETATM   34  C   UNL     1       7.825  24.673  52.126  1.00  0.00     0.034 C 
ENDBRANCH  32  33
ENDBRANCH  30  32
ENDBRANCH  27  30
ENDBRANCH  22  23
ENDBRANCH  21  22
ENDBRANCH   2  21
TORSDOF 10
ENDMDL
MODEL 5
REMARK VINA RESULT:      -7.7      2.336      7.797
REMARK  10 active torsions:
REMARK  status: ('A' for Active; 'I' for Inactive)
REMARK    1  A    between atoms: C_2  and  O_3 
REMARK    2  A    between atoms: O_3  and  C_4 
REMARK    3  A    between atoms: C_4  and  C_5 
REMARK    4  A    between atoms: C_10  and  N_11 
REMARK       I    between atoms: N_11  and  C_12 
REMARK    5  A    between atoms: C_12  and  C_13 
REMARK    6  A    between atoms: C_13  and  C_14 
REMARK    7  A    between atoms: C_14  and  N_15 
REMARK    8  A    between atoms: C_19  and  C_20 
REMARK    9  A    between atoms: C_20  and  O_21 
REMARK   10  A    between atoms: O_21  and  C_22 
ROOT
HETATM    1  N   UNL     1       5.534  28.740  53.234  1.00  0.00    -0.324 N 
HETATM    2  C   UNL     1       4.851  29.152  54.328  1.00  0.00     0.223 C 
HETATM    3  O   UNL     1       4.711  30.366  54.510  1.00  0.00    -0.273 OA
HETATM    4  H   UNL     1       5.850  29.557  52.702  1.00  0.00     0.169 HD
ENDROOT
BRANCH   1   5
HETATM    5  C   UNL     1       5.935  27.525  52.682  1.00  0.00     0.080 A 
HETATM    6  C   UNL     1       5.624  27.293  51.341  1.00  0.00     0.137 A 
HETATM    7  N   UNL     1       6.153  26.081  50.987  1.00  0.00    -0.349 N 
HETATM    8  H   UNL     1       6.079  25.679  50.060  1.00  0.00     0.166 HD
HETATM    9  C   UNL     1       6.762  25.484  52.057  1.00  0.00     0.045 A 
HETATM   10  C   UNL     1       6.628  26.346  53.155  1.00  0.00     0.021 A 
HETATM   11  C   UNL     1       7.404  24.237  52.106  1.00  0.00     0.032 A 
HETATM   12  C   UNL     1       7.164  25.865  54.372  1.00  0.00     0.035 A 
HETATM   13  C   UNL     1       7.799  24.617  54.443  1.00  0.00     0.012 A 
HETATM   14  C   UNL     1       7.927  23.813  53.326  1.00  0.00     0.021 A 
HETATM   15 BR   UNL     1       8.485  24.033  56.110  1.00  0.00    -0.051 Br
BRANCH   6  16
HETATM   16  C   UNL     1       4.881  28.125  50.419  1.00  0.00     0.312 C 
HETATM   17  O   UNL     1       3.953  28.852  50.746  1.00  0.00    -0.258 OA
BRANCH  16  18
HETATM   18  O   UNL     1       5.356  27.959  49.155  1.00  0.00    -0.317 OA
BRANCH  18  19
HETATM   19  C   UNL     1       4.360  27.795  48.133  1.00  0.00     0.175 C 
HETATM   20  C   UNL     1       4.280  26.343  47.705  1.00  0.00     0.034 C 
ENDBRANCH  18  19
ENDBRANCH  16  18
ENDBRANCH   6  16
ENDBRANCH   1   5
BRANCH   2  21
HETATM   21  C   UNL     1       4.258  28.195  55.315  1.00  0.00     0.131 C 
BRANCH  21  22
HETATM   22  C   UNL     1       4.166  28.871  56.678  1.00  0.00     0.244 C 
BRANCH  22  23
HETATM   23  N   UNL     1       5.485  28.827  57.461  1.00  0.00    -0.071 N 
HETATM   24  H   UNL     1       5.249  28.604  58.438  1.00  0.00     0.279 HD
HETATM   25  C   UNL     1       6.316  27.672  56.926  1.00  0.00     0.235 C 
HETATM   26  C   UNL     1       7.647  27.581  57.655  1.00  0.00     0.042 C 
HETATM   27  C   UNL     1       8.432  28.890  57.564  1.00  0.00     0.088 C 
HETATM   28  C   UNL     1       7.575  30.012  58.159  1.00  0.00     0.042 C 
HETATM   29  C   UNL     1       6.227  30.147  57.456  1.00  0.00     0.235 C 
BRANCH  27  30
HETATM   30  C   UNL     1       8.828  29.229  56.132  1.00  0.00     0.263 C 
HETATM   31  O   UNL     1       8.273  28.758  55.149  1.00  0.00    -0.265 OA
BRANCH  30  32
HETATM   32  O   UNL     1       9.901  30.058  56.105  1.00  0.00    -0.322 OA
BRANCH  32  33
HETATM   33  C   UNL     1      11.040  29.632  56.875  1.00  0.00     0.174 C 
HETATM   34  C   UNL     1      11.376  30.676  57.925  1.00  0.00     0.034 C 
ENDBRANCH  32  33
ENDBRANCH  30  32
ENDBRANCH  27  30
ENDBRANCH  22  23
ENDBRANCH  21  22
ENDBRANCH   2  21
TORSDOF 10
ENDMDL
MODEL 6
REMARK VINA RESULT:      -7.7      1.511      2.389
REMARK  10 active torsions:
REMARK  status: ('A' for Active; 'I' for Inactive)
REMARK    1  A    between atoms: C_2  and  O_3 
REMARK    2  A    between atoms: O_3  and  C_4 
REMARK    3  A    between atoms: C_4  and  C_5 
REMARK    4  A    between atoms: C_10  and  N_11 
REMARK       I    between atoms: N_11  and  C_12 
REMARK    5  A    between atoms: C_12  and  C_13 
REMARK    6  A    between atoms: C_13  and  C_14 
REMARK    7  A    between atoms: C_14  and  N_15 
REMARK    8  A    between atoms: C_19  and  C_20 
REMARK    9  A    between atoms: C_20  and  O_21 
REMARK   10  A    between atoms: O_21  and  C_22 
ROOT
HETATM    1  N   UNL     1       7.310  26.947  54.514  1.00  0.00    -0.324 N 
HETATM    2  C   UNL     1       6.502  27.229  53.465  1.00  0.00     0.223 C 
HETATM    3  O   UNL     1       6.592  28.343  52.938  1.00  0.00    -0.273 OA
HETATM    4  H   UNL     1       7.901  27.759  54.718  1.00  0.00     0.169 HD
ENDROOT
BRANCH   1   5
HETATM    5  C   UNL     1       7.514  25.877  55.384  1.00  0.00     0.080 A 
HETATM    6  C   UNL     1       7.577  26.161  56.750  1.00  0.00     0.137 A 
HETATM    7  N   UNL     1       7.722  24.977  57.422  1.00  0.00    -0.349 N 
HETATM    8  H   UNL     1       7.783  24.902  58.430  1.00  0.00     0.166 HD
HETATM    9  C   UNL     1       7.802  23.927  56.548  1.00  0.00     0.045 A 
HETATM   10  C   UNL     1       7.701  24.449  55.250  1.00  0.00     0.021 A 
HETATM   11  C   UNL     1       7.969  22.565  56.840  1.00  0.00     0.032 A 
HETATM   12  C   UNL     1       7.813  23.502  54.206  1.00  0.00     0.035 A 
HETATM   13  C   UNL     1       7.990  22.138  54.478  1.00  0.00     0.012 A 
HETATM   14  C   UNL     1       8.060  21.669  55.778  1.00  0.00     0.021 A 
HETATM   15 BR   UNL     1       8.141  20.927  53.029  1.00  0.00    -0.051 Br
BRANCH   6  16
HETATM   16  C   UNL     1       7.512  27.442  57.419  1.00  0.00     0.312 C 
HETATM   17  O   UNL     1       6.470  28.015  57.704  1.00  0.00    -0.258 OA
BRANCH  16  18
HETATM   18  O   UNL     1       8.769  27.908  57.657  1.00  0.00    -0.317 OA
BRANCH  18  19
HETATM   19  C   UNL     1       9.075  29.190  57.088  1.00  0.00     0.175 C 
HETATM   20  C   UNL     1      10.572  29.335  56.893  1.00  0.00     0.034 C 
ENDBRANCH  18  19
ENDBRANCH  16  18
ENDBRANCH   6  16
ENDBRANCH   1   5
BRANCH   2  21
HETATM   21  C   UNL     1       5.515  26.243  52.921  1.00  0.00     0.131 C 
BRANCH  21  22
HETATM   22  C   UNL     1       5.647  26.186  51.403  1.00  0.00     0.244 C 
BRANCH  22  23
HETATM   23  N   UNL     1       4.369  26.617  50.672  1.00  0.00    -0.071 N 
HETATM   24  H   UNL     1       3.591  26.084  51.086  1.00  0.00     0.279 HD
HETATM   25  C   UNL     1       4.120  28.085  50.977  1.00  0.00     0.235 C 
HETATM   26  C   UNL     1       2.868  28.578  50.269  1.00  0.00     0.042 C 
HETATM   27  C   UNL     1       2.946  28.353  48.759  1.00  0.00     0.088 C 
HETATM   28  C   UNL     1       3.148  26.856  48.502  1.00  0.00     0.042 C 
HETATM   29  C   UNL     1       4.397  26.312  49.190  1.00  0.00     0.235 C 
BRANCH  27  30
HETATM   30  C   UNL     1       4.068  29.157  48.111  1.00  0.00     0.263 C 
HETATM   31  O   UNL     1       4.813  28.705  47.253  1.00  0.00    -0.265 OA
BRANCH  30  32
HETATM   32  O   UNL     1       4.159  30.395  48.656  1.00  0.00    -0.322 OA
BRANCH  32  33
HETATM   33  C   UNL     1       5.490  30.841  48.977  1.00  0.00     0.174 C 
HETATM   34  C   UNL     1       5.428  31.970  49.990  1.00  0.00     0.034 C 
ENDBRANCH  32  33
ENDBRANCH  30  32
ENDBRANCH  27  30
ENDBRANCH  22  23
ENDBRANCH  21  22
ENDBRANCH   2  21
TORSDOF 10
ENDMDL
MODEL 7
REMARK VINA RESULT:      -7.6      5.693      9.131
REMARK  10 active torsions:
REMARK  status: ('A' for Active; 'I' for Inactive)
REMARK    1  A    between atoms: C_2  and  O_3 
REMARK    2  A    between atoms: O_3  and  C_4 
REMARK    3  A    between atoms: C_4  and  C_5 
REMARK    4  A    between atoms: C_10  and  N_11 
REMARK       I    between atoms: N_11  and  C_12 
REMARK    5  A    between atoms: C_12  and  C_13 
REMARK    6  A    between atoms: C_13  and  C_14 
REMARK    7  A    between atoms: C_14  and  N_15 
REMARK    8  A    between atoms: C_19  and  C_20 
REMARK    9  A    between atoms: C_20  and  O_21 
REMARK   10  A    between atoms: O_21  and  C_22 
ROOT
HETATM    1  N   UNL     1       4.763  32.188  60.020  1.00  0.00    -0.324 N 
HETATM    2  C   UNL     1       4.262  31.659  58.879  1.00  0.00     0.223 C 
HETATM    3  O   UNL     1       3.047  31.754  58.673  1.00  0.00    -0.273 OA
HETATM    4  H   UNL     1       4.002  32.604  60.567  1.00  0.00     0.169 HD
ENDROOT
BRANCH   1   5
HETATM    5  C   UNL     1       6.008  32.279  60.640  1.00  0.00     0.080 A 
HETATM    6  C   UNL     1       6.044  32.778  61.944  1.00  0.00     0.137 A 
HETATM    7  N   UNL     1       7.340  32.729  62.381  1.00  0.00    -0.349 N 
HETATM    8  H   UNL     1       7.639  33.024  63.302  1.00  0.00     0.166 HD
HETATM    9  C   UNL     1       8.168  32.259  61.398  1.00  0.00     0.045 A 
HETATM   10  C   UNL     1       7.376  31.986  60.273  1.00  0.00     0.021 A 
HETATM   11  C   UNL     1       9.558  32.078  61.447  1.00  0.00     0.032 A 
HETATM   12  C   UNL     1       8.079  31.532  59.133  1.00  0.00     0.035 A 
HETATM   13  C   UNL     1       9.470  31.354  59.160  1.00  0.00     0.012 A 
HETATM   14  C   UNL     1      10.204  31.615  60.302  1.00  0.00     0.021 A 
HETATM   15 BR   UNL     1      10.346  30.752  57.592  1.00  0.00    -0.051 Br
BRANCH   6  16
HETATM   16  C   UNL     1       4.958  33.278  62.759  1.00  0.00     0.312 C 
HETATM   17  O   UNL     1       4.172  34.144  62.400  1.00  0.00    -0.258 OA
BRANCH  16  18
HETATM   18  O   UNL     1       4.964  32.661  63.972  1.00  0.00    -0.317 OA
BRANCH  18  19
HETATM   19  C   UNL     1       4.918  33.532  65.113  1.00  0.00     0.175 C 
HETATM   20  C   UNL     1       6.324  33.861  65.578  1.00  0.00     0.034 C 
ENDBRANCH  18  19
ENDBRANCH  16  18
ENDBRANCH   6  16
ENDBRANCH   1   5
BRANCH   2  21
HETATM   21  C   UNL     1       5.123  30.975  57.864  1.00  0.00     0.131 C 
BRANCH  21  22
HETATM   22  C   UNL     1       4.328  29.852  57.206  1.00  0.00     0.244 C 
BRANCH  22  23
HETATM   23  N   UNL     1       5.162  29.024  56.220  1.00  0.00    -0.071 N 
HETATM   24  H   UNL     1       4.817  29.243  55.275  1.00  0.00     0.279 HD
HETATM   25  C   UNL     1       6.602  29.504  56.295  1.00  0.00     0.235 C 
HETATM   26  C   UNL     1       7.486  28.711  55.345  1.00  0.00     0.042 C 
HETATM   27  C   UNL     1       7.409  27.209  55.623  1.00  0.00     0.088 C 
HETATM   28  C   UNL     1       5.949  26.765  55.487  1.00  0.00     0.042 C 
HETATM   29  C   UNL     1       5.020  27.530  56.425  1.00  0.00     0.235 C 
BRANCH  27  30
HETATM   30  C   UNL     1       7.947  26.847  57.002  1.00  0.00     0.263 C 
HETATM   31  O   UNL     1       8.641  27.598  57.674  1.00  0.00    -0.265 OA
BRANCH  30  32
HETATM   32  O   UNL     1       7.606  25.580  57.342  1.00  0.00    -0.322 OA
BRANCH  32  33
HETATM   33  C   UNL     1       8.696  24.646  57.449  1.00  0.00     0.174 C 
HETATM   34  C   UNL     1       8.743  23.761  56.216  1.00  0.00     0.034 C 
ENDBRANCH  32  33
ENDBRANCH  30  32
ENDBRANCH  27  30
ENDBRANCH  22  23
ENDBRANCH  21  22
ENDBRANCH   2  21
TORSDOF 10
ENDMDL
MODEL 8
REMARK VINA RESULT:      -7.5      4.300      7.400
REMARK  10 active torsions:
REMARK  status: ('A' for Active; 'I' for Inactive)
REMARK    1  A    between atoms: C_2  and  O_3 
REMARK    2  A    between atoms: O_3  and  C_4 
REMARK    3  A    between atoms: C_4  and  C_5 
REMARK    4  A    between atoms: C_10  and  N_11 
REMARK       I    between atoms: N_11  and  C_12 
REMARK    5  A    between atoms: C_12  and  C_13 
REMARK    6  A    between atoms: C_13  and  C_14 
REMARK    7  A    between atoms: C_14  and  N_15 
REMARK    8  A    between atoms: C_19  and  C_20 
REMARK    9  A    between atoms: C_20  and  O_21 
REMARK   10  A    between atoms: O_21  and  C_22 
ROOT
HETATM    1  N   UNL     1       4.853  29.960  57.697  1.00  0.00    -0.324 N 
HETATM    2  C   UNL     1       4.683  29.480  56.442  1.00  0.00     0.223 C 
HETATM    3  O   UNL     1       3.722  28.733  56.225  1.00  0.00    -0.273 OA
HETATM    4  H   UNL     1       4.111  29.597  58.304  1.00  0.00     0.169 HD
ENDROOT
BRANCH   1   5
HETATM    5  C   UNL     1       5.772  30.769  58.362  1.00  0.00     0.080 A 
HETATM    6  C   UNL     1       5.266  31.761  59.204  1.00  0.00     0.137 A 
HETATM    7  N   UNL     1       6.325  32.395  59.796  1.00  0.00    -0.349 N 
HETATM    8  H   UNL     1       6.232  33.151  60.464  1.00  0.00     0.166 HD
HETATM    9  C   UNL     1       7.512  31.890  59.341  1.00  0.00     0.045 A 
HETATM   10  C   UNL     1       7.214  30.879  58.415  1.00  0.00     0.021 A 
HETATM   11  C   UNL     1       8.814  32.281  59.689  1.00  0.00     0.032 A 
HETATM   12  C   UNL     1       8.333  30.271  57.800  1.00  0.00     0.035 A 
HETATM   13  C   UNL     1       9.641  30.656  58.128  1.00  0.00     0.012 A 
HETATM   14  C   UNL     1       9.883  31.643  59.065  1.00  0.00     0.021 A 
HETATM   15 BR   UNL     1      11.091  29.804  57.257  1.00  0.00    -0.051 Br
BRANCH   6  16
HETATM   16  C   UNL     1       3.889  32.122  59.464  1.00  0.00     0.312 C 
HETATM   17  O   UNL     1       3.030  32.221  58.598  1.00  0.00    -0.258 OA
BRANCH  16  18
HETATM   18  O   UNL     1       3.710  32.350  60.794  1.00  0.00    -0.317 OA
BRANCH  18  19
HETATM   19  C   UNL     1       3.021  33.565  61.129  1.00  0.00     0.175 C 
HETATM   20  C   UNL     1       3.050  33.788  62.629  1.00  0.00     0.034 C 
ENDBRANCH  18  19
ENDBRANCH  16  18
ENDBRANCH   6  16
ENDBRANCH   1   5
BRANCH   2  21
HETATM   21  C   UNL     1       5.607  29.825  55.317  1.00  0.00     0.131 C 
BRANCH  21  22
HETATM   22  C   UNL     1       6.587  28.677  55.102  1.00  0.00     0.244 C 
BRANCH  22  23
HETATM   23  N   UNL     1       5.892  27.329  54.868  1.00  0.00    -0.071 N 
HETATM   24  H   UNL     1       4.987  27.368  55.359  1.00  0.00     0.279 HD
HETATM   25  C   UNL     1       5.592  27.201  53.383  1.00  0.00     0.235 C 
HETATM   26  C   UNL     1       4.910  25.876  53.083  1.00  0.00     0.042 C 
HETATM   27  C   UNL     1       5.745  24.688  53.563  1.00  0.00     0.088 C 
HETATM   28  C   UNL     1       5.979  24.837  55.070  1.00  0.00     0.042 C 
HETATM   29  C   UNL     1       6.666  26.153  55.424  1.00  0.00     0.235 C 
BRANCH  27  30
HETATM   30  C   UNL     1       7.077  24.583  52.829  1.00  0.00     0.263 C 
HETATM   31  O   UNL     1       7.320  25.171  51.785  1.00  0.00    -0.265 OA
BRANCH  30  32
HETATM   32  O   UNL     1       7.910  23.713  53.452  1.00  0.00    -0.322 OA
BRANCH  32  33
HETATM   33  C   UNL     1       7.800  22.338  53.041  1.00  0.00     0.174 C 
HETATM   34  C   UNL     1       8.970  21.538  53.585  1.00  0.00     0.034 C 
ENDBRANCH  32  33
ENDBRANCH  30  32
ENDBRANCH  27  30
ENDBRANCH  22  23
ENDBRANCH  21  22
ENDBRANCH   2  21
TORSDOF 10
ENDMDL
MODEL 9
REMARK VINA RESULT:      -7.3      2.390      7.724
REMARK  10 active torsions:
REMARK  status: ('A' for Active; 'I' for Inactive)
REMARK    1  A    between atoms: C_2  and  O_3 
REMARK    2  A    between atoms: O_3  and  C_4 
REMARK    3  A    between atoms: C_4  and  C_5 
REMARK    4  A    between atoms: C_10  and  N_11 
REMARK       I    between atoms: N_11  and  C_12 
REMARK    5  A    between atoms: C_12  and  C_13 
REMARK    6  A    between atoms: C_13  and  C_14 
REMARK    7  A    between atoms: C_14  and  N_15 
REMARK    8  A    between atoms: C_19  and  C_20 
REMARK    9  A    between atoms: C_20  and  O_21 
REMARK   10  A    between atoms: O_21  and  C_22 
ROOT
HETATM    1  N   UNL     1       3.988  27.261  52.543  1.00  0.00    -0.324 N 
HETATM    2  C   UNL     1       3.784  28.520  52.997  1.00  0.00     0.223 C 
HETATM    3  O   UNL     1       2.624  28.941  53.057  1.00  0.00    -0.273 OA
HETATM    4  H   UNL     1       3.088  26.835  52.301  1.00  0.00     0.169 HD
ENDROOT
BRANCH   1   5
HETATM    5  C   UNL     1       5.082  26.432  52.295  1.00  0.00     0.080 A 
HETATM    6  C   UNL     1       5.471  26.261  50.965  1.00  0.00     0.137 A 
HETATM    7  N   UNL     1       6.586  25.467  50.950  1.00  0.00    -0.349 N 
HETATM    8  H   UNL     1       7.078  25.197  50.106  1.00  0.00     0.166 HD
HETATM    9  C   UNL     1       6.919  25.069  52.216  1.00  0.00     0.045 A 
HETATM   10  C   UNL     1       5.984  25.634  53.095  1.00  0.00     0.021 A 
HETATM   11  C   UNL     1       7.979  24.242  52.616  1.00  0.00     0.032 A 
HETATM   12  C   UNL     1       6.146  25.287  54.457  1.00  0.00     0.035 A 
HETATM   13  C   UNL     1       7.194  24.453  54.874  1.00  0.00     0.012 A 
HETATM   14  C   UNL     1       8.106  23.941  53.970  1.00  0.00     0.021 A 
HETATM   15 BR   UNL     1       7.345  24.024  56.713  1.00  0.00    -0.051 Br
BRANCH   6  16
HETATM   16  C   UNL     1       4.865  26.789  49.762  1.00  0.00     0.312 C 
HETATM   17  O   UNL     1       3.825  26.368  49.276  1.00  0.00    -0.258 OA
BRANCH  16  18
HETATM   18  O   UNL     1       5.633  27.793  49.256  1.00  0.00    -0.317 OA
BRANCH  18  19
HETATM   19  C   UNL     1       5.228  29.125  49.610  1.00  0.00     0.175 C 
HETATM   20  C   UNL     1       4.545  29.796  48.434  1.00  0.00     0.034 C 
ENDBRANCH  18  19
ENDBRANCH  16  18
ENDBRANCH   6  16
ENDBRANCH   1   5
BRANCH   2  21
HETATM   21  C   UNL     1       4.906  29.411  53.432  1.00  0.00     0.131 C 
BRANCH  21  22
HETATM   22  C   UNL     1       4.902  29.517  54.953  1.00  0.00     0.244 C 
BRANCH  22  23
HETATM   23  N   UNL     1       5.898  28.562  55.624  1.00  0.00    -0.071 N 
HETATM   24  H   UNL     1       5.640  27.607  55.337  1.00  0.00     0.279 HD
HETATM   25  C   UNL     1       7.280  28.843  55.060  1.00  0.00     0.235 C 
HETATM   26  C   UNL     1       8.319  27.933  55.696  1.00  0.00     0.042 C 
HETATM   27  C   UNL     1       8.328  28.065  57.220  1.00  0.00     0.088 C 
HETATM   28  C   UNL     1       6.928  27.725  57.744  1.00  0.00     0.042 C 
HETATM   29  C   UNL     1       5.849  28.616  57.137  1.00  0.00     0.235 C 
BRANCH  27  30
HETATM   30  C   UNL     1       8.740  29.459  57.678  1.00  0.00     0.263 C 
HETATM   31  O   UNL     1       9.607  30.122  57.124  1.00  0.00    -0.265 OA
BRANCH  30  32
HETATM   32  O   UNL     1       8.070  29.823  58.799  1.00  0.00    -0.322 OA
BRANCH  32  33
HETATM   33  C   UNL     1       8.848  30.507  59.798  1.00  0.00     0.174 C 
HETATM   34  C   UNL     1       8.497  31.985  59.808  1.00  0.00     0.034 C 
ENDBRANCH  32  33
ENDBRANCH  30  32
ENDBRANCH  27  30
ENDBRANCH  22  23
ENDBRANCH  21  22
ENDBRANCH   2  21
TORSDOF 10
ENDMDL
MODEL 10
REMARK VINA RESULT:      -7.3      2.187      2.855
REMARK  10 active torsions:
REMARK  status: ('A' for Active; 'I' for Inactive)
REMARK    1  A    between atoms: C_2  and  O_3 
REMARK    2  A    between atoms: O_3  and  C_4 
REMARK    3  A    between atoms: C_4  and  C_5 
REMARK    4  A    between atoms: C_10  and  N_11 
REMARK       I    between atoms: N_11  and  C_12 
REMARK    5  A    between atoms: C_12  and  C_13 
REMARK    6  A    between atoms: C_13  and  C_14 
REMARK    7  A    between atoms: C_14  and  N_15 
REMARK    8  A    between atoms: C_19  and  C_20 
REMARK    9  A    between atoms: C_20  and  O_21 
REMARK   10  A    between atoms: O_21  and  C_22 
ROOT
HETATM    1  N   UNL     1       6.101  29.504  55.331  1.00  0.00    -0.324 N 
HETATM    2  C   UNL     1       4.896  29.673  54.738  1.00  0.00     0.223 C 
HETATM    3  O   UNL     1       4.627  30.780  54.261  1.00  0.00    -0.273 OA
HETATM    4  H   UNL     1       6.628  30.383  55.290  1.00  0.00     0.169 HD
ENDROOT
BRANCH   1   5
HETATM    5  C   UNL     1       6.776  28.481  55.995  1.00  0.00     0.080 A 
HETATM    6  C   UNL     1       7.241  28.746  57.284  1.00  0.00     0.137 A 
HETATM    7  N   UNL     1       7.815  27.603  57.771  1.00  0.00    -0.349 N 
HETATM    8  H   UNL     1       8.223  27.523  58.695  1.00  0.00     0.166 HD
HETATM    9  C   UNL     1       7.788  26.607  56.834  1.00  0.00     0.045 A 
HETATM   10  C   UNL     1       7.164  27.122  55.688  1.00  0.00     0.021 A 
HETATM   11  C   UNL     1       8.288  25.300  56.940  1.00  0.00     0.032 A 
HETATM   12  C   UNL     1       7.090  26.235  54.588  1.00  0.00     0.035 A 
HETATM   13  C   UNL     1       7.594  24.929  54.672  1.00  0.00     0.012 A 
HETATM   14  C   UNL     1       8.180  24.461  55.834  1.00  0.00     0.021 A 
HETATM   15 BR   UNL     1       7.470  23.801  53.156  1.00  0.00    -0.051 Br
BRANCH   6  16
HETATM   16  C   UNL     1       7.171  29.976  58.044  1.00  0.00     0.312 C 
HETATM   17  O   UNL     1       6.221  30.746  58.017  1.00  0.00    -0.258 OA
BRANCH  16  18
HETATM   18  O   UNL     1       8.316  30.146  58.760  1.00  0.00    -0.317 OA
BRANCH  18  19
HETATM   19  C   UNL     1       8.160  30.777  60.041  1.00  0.00     0.175 C 
HETATM   20  C   UNL     1       9.188  31.879  60.212  1.00  0.00     0.034 C 
ENDBRANCH  18  19
ENDBRANCH  16  18
ENDBRANCH   6  16
ENDBRANCH   1   5
BRANCH   2  21
HETATM   21  C   UNL     1       3.888  28.571  54.636  1.00  0.00     0.131 C 
BRANCH  21  22
HETATM   22  C   UNL     1       4.022  27.891  53.278  1.00  0.00     0.244 C 
BRANCH  22  23
HETATM   23  N   UNL     1       4.173  28.888  52.120  1.00  0.00    -0.071 N 
HETATM   24  H   UNL     1       4.332  29.815  52.540  1.00  0.00     0.279 HD
HETATM   25  C   UNL     1       5.427  28.525  51.341  1.00  0.00     0.235 C 
HETATM   26  C   UNL     1       5.626  29.473  50.169  1.00  0.00     0.042 C 
HETATM   27  C   UNL     1       4.409  29.491  49.243  1.00  0.00     0.088 C 
HETATM   28  C   UNL     1       3.183  29.908  50.062  1.00  0.00     0.042 C 
HETATM   29  C   UNL     1       2.937  28.983  51.251  1.00  0.00     0.235 C 
BRANCH  27  30
HETATM   30  C   UNL     1       4.167  28.140  48.579  1.00  0.00     0.263 C 
HETATM   31  O   UNL     1       4.666  27.096  48.973  1.00  0.00    -0.265 OA
BRANCH  30  32
HETATM   32  O   UNL     1       3.391  28.271  47.475  1.00  0.00    -0.322 OA
BRANCH  32  33
HETATM   33  C   UNL     1       2.468  27.194  47.228  1.00  0.00     0.174 C 
HETATM   34  C   UNL     1       1.217  27.379  48.069  1.00  0.00     0.034 C 
ENDBRANCH  32  33
ENDBRANCH  30  32
ENDBRANCH  27  30
ENDBRANCH  22  23
ENDBRANCH  21  22
ENDBRANCH   2  21
TORSDOF 10
ENDMDL
