MODEL 1
REMARK VINA RESULT:     -10.6      0.000      0.000
REMARK  4 active torsions:
REMARK  status: ('A' for Active; 'I' for Inactive)
REMARK    1  A    between atoms: N_8  and  C_10 
REMARK    2  A    between atoms: C_10  and  C_11 
REMARK    3  A    between atoms: C_14  and  C_15 
REMARK    4  A    between atoms: C_22  and  C_23 
ROOT
HETATM    1  C   UNL     1       5.126  26.171  50.991  1.00  0.00     0.269 C 
HETATM    2  N   UNL     1       5.522  25.950  52.438  1.00  0.00    -0.073 N 
HETATM    3  H   UNL     1       4.631  25.883  52.947  1.00  0.00     0.279 HD
HETATM    4  C   UNL     1       6.330  27.109  52.966  1.00  0.00     0.244 C 
HETATM    5  C   UNL     1       6.687  26.935  54.470  1.00  0.00    -0.013 C 
HETATM    6  C   UNL     1       7.687  28.061  54.857  1.00  0.00     0.039 C 
HETATM    7  C   UNL     1       8.001  28.130  56.352  1.00  0.00     0.236 C 
HETATM    8  N   UNL     1       6.732  28.252  57.151  1.00  0.00    -0.064 N 
HETATM    9  H   UNL     1       7.033  28.132  58.136  1.00  0.00     0.280 HD
HETATM   10  C   UNL     1       5.734  27.175  56.869  1.00  0.00     0.236 C 
HETATM   11  C   UNL     1       5.428  27.096  55.368  1.00  0.00     0.039 C 
HETATM   12  C   UNL     1       7.367  25.551  54.661  1.00  0.00     0.022 C 
HETATM   13  C   UNL     1       6.562  24.378  54.067  1.00  0.00     0.045 C 
HETATM   14  C   UNL     1       6.240  24.619  52.587  1.00  0.00     0.243 C 
ENDROOT
BRANCH  13  15
HETATM   15  C   UNL     1       7.279  23.058  54.268  1.00  0.00    -0.052 A 
HETATM   16  C   UNL     1       7.735  22.339  53.151  1.00  0.00     0.007 A 
HETATM   17  C   UNL     1       8.400  21.123  53.310  1.00  0.00     0.001 A 
HETATM   18  C   UNL     1       8.620  20.608  54.584  1.00  0.00     0.000 A 
HETATM   19  C   UNL     1       8.176  21.309  55.701  1.00  0.00     0.001 A 
HETATM   20  C   UNL     1       7.510  22.526  55.547  1.00  0.00     0.007 A 
ENDBRANCH  13  15
BRANCH   8  21
HETATM   21  C   UNL     1       6.144  29.673  57.198  1.00  0.00     0.317 C 
BRANCH  21  22
HETATM   22  C   UNL     1       6.870  30.563  58.145  1.00  0.00     0.181 A 
HETATM   23  N   UNL     1       6.690  31.883  58.188  1.00  0.00    -0.109 NA
HETATM   24  O   UNL     1       7.612  32.290  59.158  1.00  0.00    -0.196 OA
HETATM   25  C   UNL     1       8.278  31.165  59.572  1.00  0.00     0.177 A 
HETATM   26  N   UNL     1       7.872  30.075  58.945  1.00  0.00    -0.207 NA
BRANCH  25  27
HETATM   27  C   UNL     1       9.374  31.199  60.625  1.00  0.00     0.065 A 
HETATM   28  C   UNL     1       9.082  31.858  61.958  1.00  0.00     0.013 A 
HETATM   29  C   UNL     1       9.201  30.375  61.885  1.00  0.00     0.013 A 
ENDBRANCH  25  27
ENDBRANCH  21  22
ENDBRANCH   8  21
TORSDOF 4
ENDMDL
MODEL 2
REMARK VINA RESULT:     -10.3      1.202      1.478
REMARK  4 active torsions:
REMARK  status: ('A' for Active; 'I' for Inactive)
REMARK    1  A    between atoms: N_8  and  C_10 
REMARK    2  A    between atoms: C_10  and  C_11 
REMARK    3  A    between atoms: C_14  and  C_15 
REMARK    4  A    between atoms: C_22  and  C_23 
ROOT
HETATM    1  C   UNL     1       4.912  27.199  51.526  1.00  0.00     0.269 C 
HETATM    2  N   UNL     1       5.466  26.815  52.885  1.00  0.00    -0.073 N 
HETATM    3  H   UNL     1       4.645  26.793  53.505  1.00  0.00     0.279 HD
HETATM    4  C   UNL     1       6.457  27.838  53.381  1.00  0.00     0.244 C 
HETATM    5  C   UNL     1       6.983  27.498  54.805  1.00  0.00    -0.013 C 
HETATM    6  C   UNL     1       8.143  28.481  55.133  1.00  0.00     0.039 C 
HETATM    7  C   UNL     1       8.652  28.388  56.571  1.00  0.00     0.236 C 
HETATM    8  N   UNL     1       7.518  28.566  57.543  1.00  0.00    -0.064 N 
HETATM    9  H   UNL     1       7.928  28.331  58.467  1.00  0.00     0.280 HD
HETATM   10  C   UNL     1       6.379  27.621  57.323  1.00  0.00     0.236 C 
HETATM   11  C   UNL     1       5.875  27.705  55.876  1.00  0.00     0.039 C 
HETATM   12  C   UNL     1       7.526  26.043  54.799  1.00  0.00     0.022 C 
HETATM   13  C   UNL     1       6.526  25.011  54.237  1.00  0.00     0.045 C 
HETATM   14  C   UNL     1       6.045  25.412  52.836  1.00  0.00     0.243 C 
ENDROOT
BRANCH  13  15
HETATM   15  C   UNL     1       7.115  23.614  54.240  1.00  0.00    -0.052 A 
HETATM   16  C   UNL     1       7.481  23.013  53.025  1.00  0.00     0.007 A 
HETATM   17  C   UNL     1       8.026  21.729  53.002  1.00  0.00     0.001 A 
HETATM   18  C   UNL     1       8.213  21.028  54.189  1.00  0.00     0.000 A 
HETATM   19  C   UNL     1       7.857  21.610  55.402  1.00  0.00     0.001 A 
HETATM   20  C   UNL     1       7.311  22.894  55.429  1.00  0.00     0.007 A 
ENDBRANCH  13  15
BRANCH   8  21
HETATM   21  C   UNL     1       7.101  30.028  57.775  1.00  0.00     0.317 C 
BRANCH  21  22
HETATM   22  C   UNL     1       7.622  30.577  59.056  1.00  0.00     0.181 A 
HETATM   23  N   UNL     1       8.645  30.036  59.718  1.00  0.00    -0.109 NA
HETATM   24  O   UNL     1       8.727  30.830  60.866  1.00  0.00    -0.196 OA
HETATM   25  C   UNL     1       7.714  31.750  60.787  1.00  0.00     0.177 A 
HETATM   26  N   UNL     1       6.983  31.609  59.695  1.00  0.00    -0.207 NA
BRANCH  25  27
HETATM   27  C   UNL     1       7.467  32.798  61.861  1.00  0.00     0.065 A 
HETATM   28  C   UNL     1       6.570  32.443  63.031  1.00  0.00     0.013 A 
HETATM   29  C   UNL     1       8.038  32.571  63.247  1.00  0.00     0.013 A 
ENDBRANCH  25  27
ENDBRANCH  21  22
ENDBRANCH   8  21
TORSDOF 4
ENDMDL
MODEL 3
REMARK VINA RESULT:      -9.6      4.106      8.313
REMARK  4 active torsions:
REMARK  status: ('A' for Active; 'I' for Inactive)
REMARK    1  A    between atoms: N_8  and  C_10 
REMARK    2  A    between atoms: C_10  and  C_11 
REMARK    3  A    between atoms: C_14  and  C_15 
REMARK    4  A    between atoms: C_22  and  C_23 
ROOT
HETATM    1  C   UNL     1       7.119  26.845  57.447  1.00  0.00     0.269 C 
HETATM    2  N   UNL     1       7.231  26.089  56.137  1.00  0.00    -0.073 N 
HETATM    3  H   UNL     1       8.024  26.526  55.650  1.00  0.00     0.279 HD
HETATM    4  C   UNL     1       5.976  26.234  55.313  1.00  0.00     0.244 C 
HETATM    5  C   UNL     1       6.098  25.524  53.935  1.00  0.00    -0.013 C 
HETATM    6  C   UNL     1       4.697  25.549  53.259  1.00  0.00     0.039 C 
HETATM    7  C   UNL     1       4.690  25.040  51.818  1.00  0.00     0.236 C 
HETATM    8  N   UNL     1       5.691  25.798  50.988  1.00  0.00    -0.064 N 
HETATM    9  H   UNL     1       5.725  25.283  50.088  1.00  0.00     0.280 HD
HETATM   10  C   UNL     1       7.077  25.781  51.549  1.00  0.00     0.236 C 
HETATM   11  C   UNL     1       7.084  26.279  52.999  1.00  0.00     0.039 C 
HETATM   12  C   UNL     1       6.531  24.051  54.173  1.00  0.00     0.022 C 
HETATM   13  C   UNL     1       7.781  23.909  55.064  1.00  0.00     0.045 C 
HETATM   14  C   UNL     1       7.594  24.637  56.401  1.00  0.00     0.243 C 
ENDROOT
BRANCH  13  15
HETATM   15  C   UNL     1       8.147  22.453  55.274  1.00  0.00    -0.052 A 
HETATM   16  C   UNL     1       8.272  21.602  54.165  1.00  0.00     0.007 A 
HETATM   17  C   UNL     1       8.609  20.258  54.333  1.00  0.00     0.001 A 
HETATM   18  C   UNL     1       8.826  19.746  55.609  1.00  0.00     0.000 A 
HETATM   19  C   UNL     1       8.707  20.577  56.718  1.00  0.00     0.001 A 
HETATM   20  C   UNL     1       8.370  21.922  56.555  1.00  0.00     0.007 A 
ENDBRANCH  13  15
BRANCH   8  21
HETATM   21  C   UNL     1       5.209  27.180  50.514  1.00  0.00     0.317 C 
BRANCH  21  22
HETATM   22  C   UNL     1       4.485  27.119  49.214  1.00  0.00     0.181 A 
HETATM   23  N   UNL     1       4.867  26.338  48.204  1.00  0.00    -0.109 NA
HETATM   24  O   UNL     1       3.951  26.662  47.197  1.00  0.00    -0.196 OA
HETATM   25  C   UNL     1       3.132  27.637  47.705  1.00  0.00     0.177 A 
HETATM   26  N   UNL     1       3.449  27.975  48.943  1.00  0.00    -0.207 NA
BRANCH  25  27
HETATM   27  C   UNL     1       2.000  28.261  46.902  1.00  0.00     0.065 A 
HETATM   28  C   UNL     1       0.630  27.614  46.953  1.00  0.00     0.013 A 
HETATM   29  C   UNL     1       0.852  28.914  47.645  1.00  0.00     0.013 A 
ENDBRANCH  25  27
ENDBRANCH  21  22
ENDBRANCH   8  21
TORSDOF 4
ENDMDL
MODEL 4
REMARK VINA RESULT:      -9.2      2.758      8.661
REMARK  4 active torsions:
REMARK  status: ('A' for Active; 'I' for Inactive)
REMARK    1  A    between atoms: N_8  and  C_10 
REMARK    2  A    between atoms: C_10  and  C_11 
REMARK    3  A    between atoms: C_14  and  C_15 
REMARK    4  A    between atoms: C_22  and  C_23 
ROOT
HETATM    1  C   UNL     1       3.922  32.207  55.828  1.00  0.00     0.269 C 
HETATM    2  N   UNL     1       5.044  31.250  56.185  1.00  0.00    -0.073 N 
HETATM    3  H   UNL     1       5.746  31.381  55.445  1.00  0.00     0.279 HD
HETATM    4  C   UNL     1       4.562  29.821  56.192  1.00  0.00     0.244 C 
HETATM    5  C   UNL     1       5.715  28.819  56.487  1.00  0.00    -0.013 C 
HETATM    6  C   UNL     1       5.084  27.410  56.681  1.00  0.00     0.039 C 
HETATM    7  C   UNL     1       6.106  26.281  56.808  1.00  0.00     0.236 C 
HETATM    8  N   UNL     1       7.042  26.283  55.630  1.00  0.00    -0.064 N 
HETATM    9  H   UNL     1       7.780  25.599  55.883  1.00  0.00     0.280 HD
HETATM   10  C   UNL     1       7.726  27.594  55.404  1.00  0.00     0.236 C 
HETATM   11  C   UNL     1       6.702  28.730  55.289  1.00  0.00     0.039 C 
HETATM   12  C   UNL     1       6.425  29.252  57.799  1.00  0.00     0.022 C 
HETATM   13  C   UNL     1       6.863  30.731  57.806  1.00  0.00     0.045 C 
HETATM   14  C   UNL     1       5.681  31.660  57.502  1.00  0.00     0.243 C 
ENDROOT
BRANCH  13  15
HETATM   15  C   UNL     1       7.534  31.101  59.114  1.00  0.00    -0.052 A 
HETATM   16  C   UNL     1       7.058  32.196  59.852  1.00  0.00     0.007 A 
HETATM   17  C   UNL     1       7.658  32.556  61.060  1.00  0.00     0.001 A 
HETATM   18  C   UNL     1       8.739  31.828  61.547  1.00  0.00     0.000 A 
HETATM   19  C   UNL     1       9.222  30.739  60.828  1.00  0.00     0.001 A 
HETATM   20  C   UNL     1       8.625  30.376  59.620  1.00  0.00     0.007 A 
ENDBRANCH  13  15
BRANCH   8  21
HETATM   21  C   UNL     1       6.467  25.634  54.359  1.00  0.00     0.317 C 
BRANCH  21  22
HETATM   22  C   UNL     1       7.150  24.358  54.008  1.00  0.00     0.181 A 
HETATM   23  N   UNL     1       7.787  24.168  52.853  1.00  0.00    -0.109 NA
HETATM   24  O   UNL     1       8.198  22.833  52.943  1.00  0.00    -0.196 OA
HETATM   25  C   UNL     1       7.729  22.352  54.137  1.00  0.00     0.177 A 
HETATM   26  N   UNL     1       7.045  23.256  54.817  1.00  0.00    -0.207 NA
BRANCH  25  27
HETATM   27  C   UNL     1       7.968  20.923  54.599  1.00  0.00     0.065 A 
HETATM   28  C   UNL     1       9.105  20.651  55.564  1.00  0.00     0.013 A 
HETATM   29  C   UNL     1       7.698  20.569  56.048  1.00  0.00     0.013 A 
ENDBRANCH  25  27
ENDBRANCH  21  22
ENDBRANCH   8  21
TORSDOF 4
ENDMDL
MODEL 5
REMARK VINA RESULT:      -8.7      1.960      2.229
REMARK  4 active torsions:
REMARK  status: ('A' for Active; 'I' for Inactive)
REMARK    1  A    between atoms: N_8  and  C_10 
REMARK    2  A    between atoms: C_10  and  C_11 
REMARK    3  A    between atoms: C_14  and  C_15 
REMARK    4  A    between atoms: C_22  and  C_23 
ROOT
HETATM    1  C   UNL     1       5.166  25.973  50.665  1.00  0.00     0.269 C 
HETATM    2  N   UNL     1       5.444  25.991  52.157  1.00  0.00    -0.073 N 
HETATM    3  H   UNL     1       4.515  25.940  52.596  1.00  0.00     0.279 HD
HETATM    4  C   UNL     1       6.140  27.264  52.568  1.00  0.00     0.244 C 
HETATM    5  C   UNL     1       6.369  27.332  54.105  1.00  0.00    -0.013 C 
HETATM    6  C   UNL     1       7.271  28.565  54.398  1.00  0.00     0.039 C 
HETATM    7  C   UNL     1       7.447  28.870  55.886  1.00  0.00     0.236 C 
HETATM    8  N   UNL     1       6.108  29.024  56.554  1.00  0.00    -0.064 N 
HETATM    9  H   UNL     1       6.326  29.068  57.567  1.00  0.00     0.280 HD
HETATM   10  C   UNL     1       5.197  27.854  56.357  1.00  0.00     0.236 C 
HETATM   11  C   UNL     1       5.029  27.539  54.865  1.00  0.00     0.039 C 
HETATM   12  C   UNL     1       7.102  26.038  54.554  1.00  0.00     0.022 C 
HETATM   13  C   UNL     1       6.415  24.741  54.080  1.00  0.00     0.045 C 
HETATM   14  C   UNL     1       6.214  24.745  52.560  1.00  0.00     0.243 C 
ENDROOT
BRANCH  13  15
HETATM   15  C   UNL     1       7.181  23.514  54.533  1.00  0.00    -0.052 A 
HETATM   16  C   UNL     1       7.579  22.556  53.587  1.00  0.00     0.007 A 
HETATM   17  C   UNL     1       8.286  21.419  53.978  1.00  0.00     0.001 A 
HETATM   18  C   UNL     1       8.606  21.222  55.319  1.00  0.00     0.000 A 
HETATM   19  C   UNL     1       8.221  22.163  56.269  1.00  0.00     0.001 A 
HETATM   20  C   UNL     1       7.513  23.302  55.881  1.00  0.00     0.007 A 
ENDBRANCH  13  15
BRANCH   8  21
HETATM   21  C   UNL     1       5.444  30.395  56.340  1.00  0.00     0.317 C 
BRANCH  21  22
HETATM   22  C   UNL     1       4.762  30.898  57.564  1.00  0.00     0.181 A 
HETATM   23  N   UNL     1       3.479  30.658  57.835  1.00  0.00    -0.109 NA
HETATM   24  O   UNL     1       3.274  31.370  59.022  1.00  0.00    -0.196 OA
HETATM   25  C   UNL     1       4.457  31.995  59.320  1.00  0.00     0.177 A 
HETATM   26  N   UNL     1       5.399  31.756  58.424  1.00  0.00    -0.207 NA
BRANCH  25  27
HETATM   27  C   UNL     1       4.634  32.878  60.546  1.00  0.00     0.065 A 
HETATM   28  C   UNL     1       4.704  32.223  61.910  1.00  0.00     0.013 A 
HETATM   29  C   UNL     1       5.938  32.807  61.315  1.00  0.00     0.013 A 
ENDBRANCH  25  27
ENDBRANCH  21  22
ENDBRANCH   8  21
TORSDOF 4
ENDMDL
MODEL 6
REMARK VINA RESULT:      -8.5      2.528      8.631
REMARK  4 active torsions:
REMARK  status: ('A' for Active; 'I' for Inactive)
REMARK    1  A    between atoms: N_8  and  C_10 
REMARK    2  A    between atoms: C_10  and  C_11 
REMARK    3  A    between atoms: C_14  and  C_15 
REMARK    4  A    between atoms: C_22  and  C_23 
ROOT
HETATM    1  C   UNL     1      11.355  29.754  57.058  1.00  0.00     0.269 C 
HETATM    2  N   UNL     1       9.934  29.576  57.558  1.00  0.00    -0.073 N 
HETATM    3  H   UNL     1       9.892  28.603  57.890  1.00  0.00     0.279 HD
HETATM    4  C   UNL     1       8.933  29.786  56.449  1.00  0.00     0.244 C 
HETATM    5  C   UNL     1       7.473  29.539  56.926  1.00  0.00    -0.013 C 
HETATM    6  C   UNL     1       6.516  29.983  55.783  1.00  0.00     0.039 C 
HETATM    7  C   UNL     1       5.047  29.641  56.032  1.00  0.00     0.236 C 
HETATM    8  N   UNL     1       4.889  28.172  56.313  1.00  0.00    -0.064 N 
HETATM    9  H   UNL     1       3.903  28.070  56.620  1.00  0.00     0.280 HD
HETATM   10  C   UNL     1       5.745  27.675  57.435  1.00  0.00     0.236 C 
HETATM   11  C   UNL     1       7.218  28.028  57.193  1.00  0.00     0.039 C 
HETATM   12  C   UNL     1       7.211  30.407  58.187  1.00  0.00     0.022 C 
HETATM   13  C   UNL     1       8.270  30.230  59.293  1.00  0.00     0.045 C 
HETATM   14  C   UNL     1       9.683  30.481  58.753  1.00  0.00     0.243 C 
ENDROOT
BRANCH  13  15
HETATM   15  C   UNL     1       7.972  31.112  60.490  1.00  0.00    -0.052 A 
HETATM   16  C   UNL     1       6.941  32.061  60.411  1.00  0.00     0.007 A 
HETATM   17  C   UNL     1       6.646  32.883  61.500  1.00  0.00     0.001 A 
HETATM   18  C   UNL     1       7.375  32.769  62.680  1.00  0.00     0.000 A 
HETATM   19  C   UNL     1       8.399  31.832  62.774  1.00  0.00     0.001 A 
HETATM   20  C   UNL     1       8.698  31.008  61.687  1.00  0.00     0.007 A 
ENDBRANCH  13  15
BRANCH   8  21
HETATM   21  C   UNL     1       4.895  27.279  55.060  1.00  0.00     0.317 C 
BRANCH  21  22
HETATM   22  C   UNL     1       5.598  25.986  55.282  1.00  0.00     0.181 A 
HETATM   23  N   UNL     1       5.345  25.188  56.319  1.00  0.00    -0.109 NA
HETATM   24  O   UNL     1       6.271  24.153  56.148  1.00  0.00    -0.196 OA
HETATM   25  C   UNL     1       7.010  24.461  55.035  1.00  0.00     0.177 A 
HETATM   26  N   UNL     1       6.648  25.607  54.485  1.00  0.00    -0.207 NA
BRANCH  25  27
HETATM   27  C   UNL     1       8.134  23.574  54.522  1.00  0.00     0.065 A 
HETATM   28  C   UNL     1       7.796  22.174  54.050  1.00  0.00     0.013 A 
HETATM   29  C   UNL     1       8.165  23.214  53.050  1.00  0.00     0.013 A 
ENDBRANCH  25  27
ENDBRANCH  21  22
ENDBRANCH   8  21
TORSDOF 4
ENDMDL
MODEL 7
REMARK VINA RESULT:      -8.1      5.550     12.082
REMARK  4 active torsions:
REMARK  status: ('A' for Active; 'I' for Inactive)
REMARK    1  A    between atoms: N_8  and  C_10 
REMARK    2  A    between atoms: C_10  and  C_11 
REMARK    3  A    between atoms: C_14  and  C_15 
REMARK    4  A    between atoms: C_22  and  C_23 
ROOT
HETATM    1  C   UNL     1       5.079  38.139  62.955  1.00  0.00     0.269 C 
HETATM    2  N   UNL     1       5.478  36.697  63.203  1.00  0.00    -0.073 N 
HETATM    3  H   UNL     1       6.481  36.660  62.976  1.00  0.00     0.279 HD
HETATM    4  C   UNL     1       4.713  35.756  62.306  1.00  0.00     0.244 C 
HETATM    5  C   UNL     1       5.159  34.278  62.494  1.00  0.00    -0.013 C 
HETATM    6  C   UNL     1       4.176  33.377  61.693  1.00  0.00     0.039 C 
HETATM    7  C   UNL     1       4.584  31.905  61.638  1.00  0.00     0.236 C 
HETATM    8  N   UNL     1       5.984  31.766  61.104  1.00  0.00    -0.064 N 
HETATM    9  H   UNL     1       6.221  30.768  61.253  1.00  0.00     0.280 HD
HETATM   10  C   UNL     1       6.999  32.569  61.853  1.00  0.00     0.236 C 
HETATM   11  C   UNL     1       6.585  34.044  61.921  1.00  0.00     0.039 C 
HETATM   12  C   UNL     1       5.071  33.923  64.004  1.00  0.00     0.022 C 
HETATM   13  C   UNL     1       5.808  34.922  64.919  1.00  0.00     0.045 C 
HETATM   14  C   UNL     1       5.325  36.358  64.675  1.00  0.00     0.243 C 
ENDROOT
BRANCH  13  15
HETATM   15  C   UNL     1       5.675  34.536  66.379  1.00  0.00    -0.052 A 
HETATM   16  C   UNL     1       6.806  34.564  67.210  1.00  0.00     0.007 A 
HETATM   17  C   UNL     1       6.709  34.214  68.557  1.00  0.00     0.001 A 
HETATM   18  C   UNL     1       5.483  33.832  69.093  1.00  0.00     0.000 A 
HETATM   19  C   UNL     1       4.352  33.800  68.283  1.00  0.00     0.001 A 
HETATM   20  C   UNL     1       4.445  34.149  66.935  1.00  0.00     0.007 A 
ENDBRANCH  13  15
BRANCH   8  21
HETATM   21  C   UNL     1       6.094  31.865  59.572  1.00  0.00     0.317 C 
BRANCH  21  22
HETATM   22  C   UNL     1       7.455  31.529  59.073  1.00  0.00     0.181 A 
HETATM   23  N   UNL     1       8.478  32.382  59.118  1.00  0.00    -0.109 NA
HETATM   24  O   UNL     1       9.505  31.669  58.490  1.00  0.00    -0.196 OA
HETATM   25  C   UNL     1       8.973  30.467  58.101  1.00  0.00     0.177 A 
HETATM   26  N   UNL     1       7.694  30.351  58.414  1.00  0.00    -0.207 NA
BRANCH  25  27
HETATM   27  C   UNL     1       9.784  29.406  57.372  1.00  0.00     0.065 A 
HETATM   28  C   UNL     1      10.208  29.670  55.942  1.00  0.00     0.013 A 
HETATM   29  C   UNL     1      11.229  29.702  57.025  1.00  0.00     0.013 A 
ENDBRANCH  25  27
ENDBRANCH  21  22
ENDBRANCH   8  21
TORSDOF 4
ENDMDL
MODEL 8
REMARK VINA RESULT:      -8.0      3.830      8.743
REMARK  4 active torsions:
REMARK  status: ('A' for Active; 'I' for Inactive)
REMARK    1  A    between atoms: N_8  and  C_10 
REMARK    2  A    between atoms: C_10  and  C_11 
REMARK    3  A    between atoms: C_14  and  C_15 
REMARK    4  A    between atoms: C_22  and  C_23 
ROOT
HETATM    1  C   UNL     1       8.224  23.096  57.007  1.00  0.00     0.269 C 
HETATM    2  N   UNL     1       7.672  24.377  56.410  1.00  0.00    -0.073 N 
HETATM    3  H   UNL     1       6.670  24.363  56.642  1.00  0.00     0.279 HD
HETATM    4  C   UNL     1       7.855  24.406  54.913  1.00  0.00     0.244 C 
HETATM    5  C   UNL     1       7.231  25.680  54.274  1.00  0.00    -0.013 C 
HETATM    6  C   UNL     1       7.654  25.718  52.778  1.00  0.00     0.039 C 
HETATM    7  C   UNL     1       6.977  26.823  51.967  1.00  0.00     0.236 C 
HETATM    8  N   UNL     1       5.481  26.725  52.091  1.00  0.00    -0.064 N 
HETATM    9  H   UNL     1       5.126  27.593  51.648  1.00  0.00     0.280 HD
HETATM   10  C   UNL     1       4.990  26.730  53.504  1.00  0.00     0.236 C 
HETATM   11  C   UNL     1       5.678  25.630  54.323  1.00  0.00     0.039 C 
HETATM   12  C   UNL     1       7.799  26.928  55.004  1.00  0.00     0.022 C 
HETATM   13  C   UNL     1       7.661  26.865  56.539  1.00  0.00     0.045 C 
HETATM   14  C   UNL     1       8.289  25.583  57.099  1.00  0.00     0.243 C 
ENDROOT
BRANCH  13  15
HETATM   15  C   UNL     1       8.244  28.099  57.197  1.00  0.00    -0.052 A 
HETATM   16  C   UNL     1       7.500  28.784  58.170  1.00  0.00     0.007 A 
HETATM   17  C   UNL     1       8.016  29.922  58.791  1.00  0.00     0.001 A 
HETATM   18  C   UNL     1       9.281  30.391  58.450  1.00  0.00     0.000 A 
HETATM   19  C   UNL     1      10.033  29.722  57.489  1.00  0.00     0.001 A 
HETATM   20  C   UNL     1       9.520  28.584  56.865  1.00  0.00     0.007 A 
ENDBRANCH  13  15
BRANCH   8  21
HETATM   21  C   UNL     1       4.835  25.656  51.193  1.00  0.00     0.317 C 
BRANCH  21  22
HETATM   22  C   UNL     1       4.453  26.185  49.855  1.00  0.00     0.181 A 
HETATM   23  N   UNL     1       3.839  25.450  48.929  1.00  0.00    -0.109 NA
HETATM   24  O   UNL     1       3.749  26.328  47.844  1.00  0.00    -0.196 OA
HETATM   25  C   UNL     1       4.356  27.497  48.227  1.00  0.00     0.177 A 
HETATM   26  N   UNL     1       4.836  27.441  49.458  1.00  0.00    -0.207 NA
BRANCH  25  27
HETATM   27  C   UNL     1       4.467  28.705  47.310  1.00  0.00     0.065 A 
HETATM   28  C   UNL     1       3.236  29.558  47.079  1.00  0.00     0.013 A 
HETATM   29  C   UNL     1       4.350  30.091  47.912  1.00  0.00     0.013 A 
ENDBRANCH  25  27
ENDBRANCH  21  22
ENDBRANCH   8  21
TORSDOF 4
ENDMDL
MODEL 9
REMARK VINA RESULT:      -7.9      3.657      8.543
REMARK  4 active torsions:
REMARK  status: ('A' for Active; 'I' for Inactive)
REMARK    1  A    between atoms: N_8  and  C_10 
REMARK    2  A    between atoms: C_10  and  C_11 
REMARK    3  A    between atoms: C_14  and  C_15 
REMARK    4  A    between atoms: C_22  and  C_23 
ROOT
HETATM    1  C   UNL     1       7.411  24.515  56.810  1.00  0.00     0.269 C 
HETATM    2  N   UNL     1       7.046  25.955  56.502  1.00  0.00    -0.073 N 
HETATM    3  H   UNL     1       6.183  26.126  57.035  1.00  0.00     0.279 HD
HETATM    4  C   UNL     1       6.789  26.150  55.029  1.00  0.00     0.244 C 
HETATM    5  C   UNL     1       6.345  27.605  54.702  1.00  0.00    -0.013 C 
HETATM    6  C   UNL     1       6.313  27.758  53.154  1.00  0.00     0.039 C 
HETATM    7  C   UNL     1       5.727  29.084  52.671  1.00  0.00     0.236 C 
HETATM    8  N   UNL     1       4.355  29.296  53.251  1.00  0.00    -0.064 N 
HETATM    9  H   UNL     1       4.114  30.273  52.999  1.00  0.00     0.280 HD
HETATM   10  C   UNL     1       4.311  29.211  54.744  1.00  0.00     0.236 C 
HETATM   11  C   UNL     1       4.910  27.886  55.231  1.00  0.00     0.039 C 
HETATM   12  C   UNL     1       7.390  28.588  55.297  1.00  0.00     0.022 C 
HETATM   13  C   UNL     1       7.690  28.344  56.790  1.00  0.00     0.045 C 
HETATM   14  C   UNL     1       8.114  26.892  57.040  1.00  0.00     0.243 C 
ENDROOT
BRANCH  13  15
HETATM   15  C   UNL     1       8.726  29.320  57.311  1.00  0.00    -0.052 A 
HETATM   16  C   UNL     1       8.366  30.253  58.297  1.00  0.00     0.007 A 
HETATM   17  C   UNL     1       9.303  31.160  58.794  1.00  0.00     0.001 A 
HETATM   18  C   UNL     1      10.609  31.149  58.315  1.00  0.00     0.000 A 
HETATM   19  C   UNL     1      10.982  30.229  57.339  1.00  0.00     0.001 A 
HETATM   20  C   UNL     1      10.049  29.320  56.839  1.00  0.00     0.007 A 
ENDBRANCH  13  15
BRANCH   8  21
HETATM   21  C   UNL     1       3.233  28.526  52.533  1.00  0.00     0.317 C 
BRANCH  21  22
HETATM   22  C   UNL     1       3.228  28.760  51.062  1.00  0.00     0.181 A 
HETATM   23  N   UNL     1       2.600  29.788  50.491  1.00  0.00    -0.109 NA
HETATM   24  O   UNL     1       2.810  29.560  49.127  1.00  0.00    -0.196 OA
HETATM   25  C   UNL     1       3.518  28.390  49.023  1.00  0.00     0.177 A 
HETATM   26  N   UNL     1       3.771  27.843  50.200  1.00  0.00    -0.207 NA
BRANCH  25  27
HETATM   27  C   UNL     1       3.939  27.799  47.687  1.00  0.00     0.065 A 
HETATM   28  C   UNL     1       5.381  27.950  47.246  1.00  0.00     0.013 A 
HETATM   29  C   UNL     1       4.884  26.614  47.678  1.00  0.00     0.013 A 
ENDBRANCH  25  27
ENDBRANCH  21  22
ENDBRANCH   8  21
TORSDOF 4
ENDMDL
MODEL 10
REMARK VINA RESULT:      -7.9      3.277      9.046
REMARK  4 active torsions:
REMARK  status: ('A' for Active; 'I' for Inactive)
REMARK    1  A    between atoms: N_8  and  C_10 
REMARK    2  A    between atoms: C_10  and  C_11 
REMARK    3  A    between atoms: C_14  and  C_15 
REMARK    4  A    between atoms: C_22  and  C_23 
ROOT
HETATM    1  C   UNL     1      11.552  30.134  57.439  1.00  0.00     0.269 C 
HETATM    2  N   UNL     1      10.107  29.713  57.631  1.00  0.00    -0.073 N 
HETATM    3  H   UNL     1      10.158  28.857  58.199  1.00  0.00     0.279 HD
HETATM    4  C   UNL     1       9.445  29.416  56.309  1.00  0.00     0.244 C 
HETATM    5  C   UNL     1       7.983  28.914  56.490  1.00  0.00    -0.013 C 
HETATM    6  C   UNL     1       7.326  28.842  55.082  1.00  0.00     0.039 C 
HETATM    7  C   UNL     1       5.939  28.199  55.073  1.00  0.00     0.236 C 
HETATM    8  N   UNL     1       5.987  26.834  55.704  1.00  0.00    -0.064 N 
HETATM    9  H   UNL     1       4.993  26.554  55.794  1.00  0.00     0.280 HD
HETATM   10  C   UNL     1       6.565  26.827  57.084  1.00  0.00     0.236 C 
HETATM   11  C   UNL     1       7.952  27.483  57.097  1.00  0.00     0.039 C 
HETATM   12  C   UNL     1       7.212  29.938  57.368  1.00  0.00     0.022 C 
HETATM   13  C   UNL     1       7.926  30.280  58.692  1.00  0.00     0.045 C 
HETATM   14  C   UNL     1       9.361  30.760  58.440  1.00  0.00     0.243 C 
ENDROOT
BRANCH  13  15
HETATM   15  C   UNL     1       7.138  31.293  59.497  1.00  0.00    -0.052 A 
HETATM   16  C   UNL     1       5.959  31.838  58.964  1.00  0.00     0.007 A 
HETATM   17  C   UNL     1       5.215  32.772  59.687  1.00  0.00     0.001 A 
HETATM   18  C   UNL     1       5.637  33.174  60.951  1.00  0.00     0.000 A 
HETATM   19  C   UNL     1       6.802  32.641  61.494  1.00  0.00     0.001 A 
HETATM   20  C   UNL     1       7.549  31.708  60.775  1.00  0.00     0.007 A 
ENDBRANCH  13  15
BRANCH   8  21
HETATM   21  C   UNL     1       6.520  25.724  54.782  1.00  0.00     0.317 C 
BRANCH  21  22
HETATM   22  C   UNL     1       5.756  25.623  53.508  1.00  0.00     0.181 A 
HETATM   23  N   UNL     1       4.792  24.726  53.305  1.00  0.00    -0.109 NA
HETATM   24  O   UNL     1       4.423  24.961  51.977  1.00  0.00    -0.196 OA
HETATM   25  C   UNL     1       5.238  25.959  51.508  1.00  0.00     0.177 A 
HETATM   26  N   UNL     1       6.103  26.378  52.416  1.00  0.00    -0.207 NA
BRANCH  25  27
HETATM   27  C   UNL     1       5.148  26.496  50.088  1.00  0.00     0.065 A 
HETATM   28  C   UNL     1       4.056  27.493  49.755  1.00  0.00     0.013 A 
HETATM   29  C   UNL     1       5.469  27.956  49.838  1.00  0.00     0.013 A 
ENDBRANCH  25  27
ENDBRANCH  21  22
ENDBRANCH   8  21
TORSDOF 4
ENDMDL
