MODEL 1
REMARK VINA RESULT:     -11.3      0.000      0.000
REMARK  7 active torsions:
REMARK  status: ('A' for Active; 'I' for Inactive)
REMARK    1  A    between atoms: C_4  and  C_5 
REMARK    2  A    between atoms: C_5  and  N_6 
REMARK    3  A    between atoms: N_6  and  C_7 
REMARK    4  A    between atoms: C_11  and  N_12 
REMARK       I    between atoms: N_12  and  C_13 
REMARK    5  A    between atoms: C_13  and  C_14 
REMARK    6  A    between atoms: C_17  and  C_18 
REMARK    7  A    between atoms: C_18  and  C_19 
ROOT
HETATM    1  N   UNL     1       7.307  29.159  58.149  1.00  0.00    -0.323 N 
HETATM    2  C   UNL     1       8.381  29.908  58.600  1.00  0.00     0.256 C 
HETATM    3  O   UNL     1       9.512  29.897  58.128  1.00  0.00    -0.267 OA
HETATM    4  H   UNL     1       6.428  29.262  58.633  1.00  0.00     0.169 HD
ENDROOT
BRANCH   1   5
HETATM    5  C   UNL     1       7.317  28.167  57.143  1.00  0.00     0.036 A 
HETATM    6  C   UNL     1       6.991  28.395  55.808  1.00  0.00     0.055 A 
HETATM    7  C   UNL     1       7.118  27.365  54.867  1.00  0.00     0.057 A 
HETATM    8  C   UNL     1       7.583  26.085  55.231  1.00  0.00     0.030 A 
HETATM    9 CL   UNL     1       6.753  27.722  53.210  1.00  0.00    -0.082 Cl
HETATM   10  C   UNL     1       7.829  25.852  56.588  1.00  0.00     0.027 A 
HETATM   11  C   UNL     1       7.717  26.882  57.528  1.00  0.00     0.031 A 
BRANCH   8  12
HETATM   12  N   UNL     1       7.711  25.058  54.273  1.00  0.00    -0.287 NA
HETATM   13  H   UNL     1       8.671  24.709  54.253  1.00  0.00     0.128 HD
BRANCH  12  14
HETATM   14  C   UNL     1       6.726  23.983  54.320  1.00  0.00     0.131 C 
BRANCH  14  15
HETATM   15  C   UNL     1       7.418  22.641  54.312  1.00  0.00    -0.045 A 
HETATM   16  C   UNL     1       7.674  21.976  55.522  1.00  0.00     0.008 A 
HETATM   17  C   UNL     1       8.297  20.728  55.528  1.00  0.00     0.001 A 
HETATM   18  C   UNL     1       8.674  20.133  54.325  1.00  0.00     0.000 A 
HETATM   19  C   UNL     1       8.436  20.789  53.118  1.00  0.00     0.001 A 
HETATM   20  C   UNL     1       7.816  22.040  53.110  1.00  0.00     0.008 A 
ENDBRANCH  14  15
ENDBRANCH  12  14
ENDBRANCH   8  12
ENDBRANCH   1   5
BRANCH   2  21
HETATM   21  C   UNL     1       8.122  30.770  59.799  1.00  0.00     0.032 A 
HETATM   22  C   UNL     1       8.894  30.722  60.966  1.00  0.00     0.017 A 
HETATM   23  C   UNL     1       8.633  31.604  62.022  1.00  0.00     0.008 A 
HETATM   24  C   UNL     1       7.590  32.535  61.938  1.00  0.00    -0.057 A 
HETATM   25  C   UNL     1       6.785  32.542  60.793  1.00  0.00     0.008 A 
HETATM   26  C   UNL     1       7.051  31.673  59.733  1.00  0.00     0.017 A 
BRANCH  24  27
HETATM   27  C   UNL     1       7.338  33.519  63.060  1.00  0.00     0.053 C 
BRANCH  27  28
HETATM   28  C   UNL     1       6.794  32.920  64.365  1.00  0.00     0.091 C 
HETATM   29  C   UNL     1       5.299  32.725  64.313  1.00  0.00     0.229 C 
HETATM   30  O   UNL     1       4.703  31.998  63.536  1.00  0.00    -0.273 OA
HETATM   31  N   UNL     1       4.719  33.523  65.244  1.00  0.00    -0.297 N 
HETATM   32  C   UNL     1       5.613  34.225  65.981  1.00  0.00     0.225 C 
HETATM   33  H   UNL     1       3.721  33.619  65.345  1.00  0.00     0.171 HD
HETATM   34  O   UNL     1       5.339  35.049  66.837  1.00  0.00    -0.273 OA
HETATM   35  C   UNL     1       6.999  33.780  65.613  1.00  0.00     0.117 C 
ENDBRANCH  27  28
ENDBRANCH  24  27
ENDBRANCH   2  21
TORSDOF 7
ENDMDL
MODEL 2
REMARK VINA RESULT:     -10.8      3.647     11.982
REMARK  7 active torsions:
REMARK  status: ('A' for Active; 'I' for Inactive)
REMARK    1  A    between atoms: C_4  and  C_5 
REMARK    2  A    between atoms: C_5  and  N_6 
REMARK    3  A    between atoms: N_6  and  C_7 
REMARK    4  A    between atoms: C_11  and  N_12 
REMARK       I    between atoms: N_12  and  C_13 
REMARK    5  A    between atoms: C_13  and  C_14 
REMARK    6  A    between atoms: C_17  and  C_18 
REMARK    7  A    between atoms: C_18  and  C_19 
ROOT
HETATM    1  N   UNL     1       7.897  28.388  56.431  1.00  0.00    -0.323 N 
HETATM    2  C   UNL     1       6.872  28.051  55.564  1.00  0.00     0.256 C 
HETATM    3  O   UNL     1       5.847  28.698  55.379  1.00  0.00    -0.267 OA
HETATM    4  H   UNL     1       8.686  27.761  56.489  1.00  0.00     0.169 HD
ENDROOT
BRANCH   1   5
HETATM    5  C   UNL     1       7.928  29.465  57.345  1.00  0.00     0.036 A 
HETATM    6  C   UNL     1       6.818  30.225  57.705  1.00  0.00     0.055 A 
HETATM    7  C   UNL     1       6.933  31.216  58.689  1.00  0.00     0.057 A 
HETATM    8  C   UNL     1       8.155  31.466  59.346  1.00  0.00     0.030 A 
HETATM    9 CL   UNL     1       5.506  32.091  59.138  1.00  0.00    -0.082 Cl
HETATM   10  C   UNL     1       9.276  30.748  58.916  1.00  0.00     0.027 A 
HETATM   11  C   UNL     1       9.161  29.749  57.943  1.00  0.00     0.031 A 
BRANCH   8  12
HETATM   12  N   UNL     1       8.256  32.462  60.338  1.00  0.00    -0.287 NA
HETATM   13  H   UNL     1       7.519  33.160  60.217  1.00  0.00     0.128 HD
BRANCH  12  14
HETATM   14  C   UNL     1       8.376  32.011  61.720  1.00  0.00     0.131 C 
BRANCH  14  15
HETATM   15  C   UNL     1       7.620  32.939  62.641  1.00  0.00    -0.045 A 
HETATM   16  C   UNL     1       7.885  32.929  64.020  1.00  0.00     0.008 A 
HETATM   17  C   UNL     1       7.206  33.793  64.879  1.00  0.00     0.001 A 
HETATM   18  C   UNL     1       6.252  34.672  64.370  1.00  0.00     0.000 A 
HETATM   19  C   UNL     1       5.970  34.681  63.005  1.00  0.00     0.001 A 
HETATM   20  C   UNL     1       6.646  33.815  62.143  1.00  0.00     0.008 A 
ENDBRANCH  14  15
ENDBRANCH  12  14
ENDBRANCH   8  12
ENDBRANCH   1   5
BRANCH   2  21
HETATM   21  C   UNL     1       7.033  26.755  54.828  1.00  0.00     0.032 A 
HETATM   22  C   UNL     1       7.702  26.639  53.604  1.00  0.00     0.017 A 
HETATM   23  C   UNL     1       7.870  25.384  53.006  1.00  0.00     0.008 A 
HETATM   24  C   UNL     1       7.363  24.228  53.612  1.00  0.00    -0.057 A 
HETATM   25  C   UNL     1       6.646  24.353  54.807  1.00  0.00     0.008 A 
HETATM   26  C   UNL     1       6.488  25.603  55.412  1.00  0.00     0.017 A 
BRANCH  24  27
HETATM   27  C   UNL     1       7.585  22.866  52.990  1.00  0.00     0.053 C 
BRANCH  27  28
HETATM   28  C   UNL     1       8.768  22.061  53.549  1.00  0.00     0.091 C 
HETATM   29  C   UNL     1       8.510  20.577  53.503  1.00  0.00     0.229 C 
HETATM   30  O   UNL     1       8.324  19.918  52.493  1.00  0.00    -0.273 OA
HETATM   31  N   UNL     1       8.474  20.097  54.771  1.00  0.00    -0.297 N 
HETATM   32  C   UNL     1       8.720  21.042  55.709  1.00  0.00     0.225 C 
HETATM   33  H   UNL     1       8.241  19.142  54.995  1.00  0.00     0.171 HD
HETATM   34  O   UNL     1       8.687  20.872  56.916  1.00  0.00    -0.273 OA
HETATM   35  C   UNL     1       9.097  22.322  55.019  1.00  0.00     0.117 C 
ENDBRANCH  27  28
ENDBRANCH  24  27
ENDBRANCH   2  21
TORSDOF 7
ENDMDL
MODEL 3
REMARK VINA RESULT:     -10.5      1.543      2.085
REMARK  7 active torsions:
REMARK  status: ('A' for Active; 'I' for Inactive)
REMARK    1  A    between atoms: C_4  and  C_5 
REMARK    2  A    between atoms: C_5  and  N_6 
REMARK    3  A    between atoms: N_6  and  C_7 
REMARK    4  A    between atoms: C_11  and  N_12 
REMARK       I    between atoms: N_12  and  C_13 
REMARK    5  A    between atoms: C_13  and  C_14 
REMARK    6  A    between atoms: C_17  and  C_18 
REMARK    7  A    between atoms: C_18  and  C_19 
ROOT
HETATM    1  N   UNL     1       7.289  29.781  58.744  1.00  0.00    -0.323 N 
HETATM    2  C   UNL     1       8.239  30.709  59.134  1.00  0.00     0.256 C 
HETATM    3  O   UNL     1       9.319  30.905  58.588  1.00  0.00    -0.267 OA
HETATM    4  H   UNL     1       6.441  29.721  59.288  1.00  0.00     0.169 HD
ENDROOT
BRANCH   1   5
HETATM    5  C   UNL     1       7.407  28.811  57.724  1.00  0.00     0.036 A 
HETATM    6  C   UNL     1       8.051  27.584  57.873  1.00  0.00     0.055 A 
HETATM    7  C   UNL     1       8.036  26.651  56.828  1.00  0.00     0.057 A 
HETATM    8  C   UNL     1       7.371  26.912  55.613  1.00  0.00     0.030 A 
HETATM    9 CL   UNL     1       8.804  25.119  57.091  1.00  0.00    -0.082 Cl
HETATM   10  C   UNL     1       6.798  28.178  55.452  1.00  0.00     0.027 A 
HETATM   11  C   UNL     1       6.799  29.107  56.499  1.00  0.00     0.031 A 
BRANCH   8  12
HETATM   12  N   UNL     1       7.359  25.962  54.572  1.00  0.00    -0.287 NA
HETATM   13  H   UNL     1       8.308  25.634  54.381  1.00  0.00     0.128 HD
BRANCH  12  14
HETATM   14  C   UNL     1       6.401  24.868  54.685  1.00  0.00     0.131 C 
BRANCH  14  15
HETATM   15  C   UNL     1       7.073  23.551  54.377  1.00  0.00    -0.045 A 
HETATM   16  C   UNL     1       7.303  22.622  55.405  1.00  0.00     0.008 A 
HETATM   17  C   UNL     1       7.907  21.395  55.130  1.00  0.00     0.001 A 
HETATM   18  C   UNL     1       8.292  21.085  53.827  1.00  0.00     0.000 A 
HETATM   19  C   UNL     1       8.082  22.005  52.801  1.00  0.00     0.001 A 
HETATM   20  C   UNL     1       7.480  23.235  53.073  1.00  0.00     0.008 A 
ENDBRANCH  14  15
ENDBRANCH  12  14
ENDBRANCH   8  12
ENDBRANCH   1   5
BRANCH   2  21
HETATM   21  C   UNL     1       7.913  31.505  60.363  1.00  0.00     0.032 A 
HETATM   22  C   UNL     1       6.748  32.268  60.503  1.00  0.00     0.017 A 
HETATM   23  C   UNL     1       6.480  32.933  61.705  1.00  0.00     0.008 A 
HETATM   24  C   UNL     1       7.374  32.861  62.781  1.00  0.00    -0.057 A 
HETATM   25  C   UNL     1       8.565  32.144  62.618  1.00  0.00     0.008 A 
HETATM   26  C   UNL     1       8.829  31.468  61.424  1.00  0.00     0.017 A 
BRANCH  24  27
HETATM   27  C   UNL     1       7.062  33.541  64.096  1.00  0.00     0.053 C 
BRANCH  27  28
HETATM   28  C   UNL     1       5.636  34.094  64.240  1.00  0.00     0.091 C 
HETATM   29  C   UNL     1       5.599  35.594  64.098  1.00  0.00     0.229 C 
HETATM   30  O   UNL     1       5.920  36.223  63.102  1.00  0.00    -0.273 OA
HETATM   31  N   UNL     1       5.190  36.138  65.271  1.00  0.00    -0.297 N 
HETATM   32  C   UNL     1       4.890  35.214  66.214  1.00  0.00     0.225 C 
HETATM   33  H   UNL     1       5.159  37.132  65.439  1.00  0.00     0.171 HD
HETATM   34  O   UNL     1       4.556  35.452  67.363  1.00  0.00    -0.273 OA
HETATM   35  C   UNL     1       4.976  33.848  65.598  1.00  0.00     0.117 C 
ENDBRANCH  27  28
ENDBRANCH  24  27
ENDBRANCH   2  21
TORSDOF 7
ENDMDL
MODEL 4
REMARK VINA RESULT:     -10.4      1.529      2.038
REMARK  7 active torsions:
REMARK  status: ('A' for Active; 'I' for Inactive)
REMARK    1  A    between atoms: C_4  and  C_5 
REMARK    2  A    between atoms: C_5  and  N_6 
REMARK    3  A    between atoms: N_6  and  C_7 
REMARK    4  A    between atoms: C_11  and  N_12 
REMARK       I    between atoms: N_12  and  C_13 
REMARK    5  A    between atoms: C_13  and  C_14 
REMARK    6  A    between atoms: C_17  and  C_18 
REMARK    7  A    between atoms: C_18  and  C_19 
ROOT
HETATM    1  N   UNL     1       6.642  30.529  58.682  1.00  0.00    -0.323 N 
HETATM    2  C   UNL     1       7.786  30.900  59.368  1.00  0.00     0.256 C 
HETATM    3  O   UNL     1       8.937  30.627  59.045  1.00  0.00    -0.267 OA
HETATM    4  H   UNL     1       5.753  30.819  59.062  1.00  0.00     0.169 HD
ENDROOT
BRANCH   1   5
HETATM    5  C   UNL     1       6.556  29.687  57.551  1.00  0.00     0.036 A 
HETATM    6  C   UNL     1       7.537  29.587  56.567  1.00  0.00     0.055 A 
HETATM    7  C   UNL     1       7.399  28.655  55.530  1.00  0.00     0.057 A 
HETATM    8  C   UNL     1       6.287  27.792  55.454  1.00  0.00     0.030 A 
HETATM    9 CL   UNL     1       8.678  28.534  54.365  1.00  0.00    -0.082 Cl
HETATM   10  C   UNL     1       5.276  27.961  56.405  1.00  0.00     0.027 A 
HETATM   11  C   UNL     1       5.416  28.881  57.450  1.00  0.00     0.031 A 
BRANCH   8  12
HETATM   12  N   UNL     1       6.164  26.855  54.408  1.00  0.00    -0.287 NA
HETATM   13  H   UNL     1       7.040  26.788  53.887  1.00  0.00     0.128 HD
BRANCH  12  14
HETATM   14  C   UNL     1       5.617  25.547  54.753  1.00  0.00     0.131 C 
BRANCH  14  15
HETATM   15  C   UNL     1       6.624  24.463  54.449  1.00  0.00    -0.045 A 
HETATM   16  C   UNL     1       6.907  24.121  53.117  1.00  0.00     0.008 A 
HETATM   17  C   UNL     1       7.847  23.133  52.822  1.00  0.00     0.001 A 
HETATM   18  C   UNL     1       8.510  22.475  53.855  1.00  0.00     0.000 A 
HETATM   19  C   UNL     1       8.228  22.796  55.182  1.00  0.00     0.001 A 
HETATM   20  C   UNL     1       7.285  23.782  55.480  1.00  0.00     0.008 A 
ENDBRANCH  14  15
ENDBRANCH  12  14
ENDBRANCH   8  12
ENDBRANCH   1   5
BRANCH   2  21
HETATM   21  C   UNL     1       7.569  31.666  60.639  1.00  0.00     0.032 A 
HETATM   22  C   UNL     1       8.336  31.478  61.795  1.00  0.00     0.017 A 
HETATM   23  C   UNL     1       8.119  32.276  62.925  1.00  0.00     0.008 A 
HETATM   24  C   UNL     1       7.125  33.264  62.925  1.00  0.00    -0.057 A 
HETATM   25  C   UNL     1       6.324  33.411  61.787  1.00  0.00     0.008 A 
HETATM   26  C   UNL     1       6.547  32.625  60.655  1.00  0.00     0.017 A 
BRANCH  24  27
HETATM   27  C   UNL     1       6.922  34.158  64.129  1.00  0.00     0.053 C 
BRANCH  27  28
HETATM   28  C   UNL     1       6.316  33.483  65.368  1.00  0.00     0.091 C 
HETATM   29  C   UNL     1       4.823  33.682  65.443  1.00  0.00     0.229 C 
HETATM   30  O   UNL     1       4.010  33.284  64.624  1.00  0.00    -0.273 OA
HETATM   31  N   UNL     1       4.531  34.413  66.547  1.00  0.00    -0.297 N 
HETATM   32  C   UNL     1       5.621  34.720  67.291  1.00  0.00     0.225 C 
HETATM   33  H   UNL     1       3.602  34.735  66.767  1.00  0.00     0.171 HD
HETATM   34  O   UNL     1       5.626  35.412  68.294  1.00  0.00    -0.273 OA
HETATM   35  C   UNL     1       6.815  34.017  66.711  1.00  0.00     0.117 C 
ENDBRANCH  27  28
ENDBRANCH  24  27
ENDBRANCH   2  21
TORSDOF 7
ENDMDL
MODEL 5
REMARK VINA RESULT:     -10.1      1.862      2.397
REMARK  7 active torsions:
REMARK  status: ('A' for Active; 'I' for Inactive)
REMARK    1  A    between atoms: C_4  and  C_5 
REMARK    2  A    between atoms: C_5  and  N_6 
REMARK    3  A    between atoms: N_6  and  C_7 
REMARK    4  A    between atoms: C_11  and  N_12 
REMARK       I    between atoms: N_12  and  C_13 
REMARK    5  A    between atoms: C_13  and  C_14 
REMARK    6  A    between atoms: C_17  and  C_18 
REMARK    7  A    between atoms: C_18  and  C_19 
ROOT
HETATM    1  N   UNL     1       6.066  30.591  58.457  1.00  0.00    -0.323 N 
HETATM    2  C   UNL     1       5.847  31.957  58.395  1.00  0.00     0.256 C 
HETATM    3  O   UNL     1       5.623  32.603  57.377  1.00  0.00    -0.267 OA
HETATM    4  H   UNL     1       6.243  30.186  59.364  1.00  0.00     0.169 HD
ENDROOT
BRANCH   1   5
HETATM    5  C   UNL     1       6.182  29.692  57.374  1.00  0.00     0.036 A 
HETATM    6  C   UNL     1       7.266  29.649  56.499  1.00  0.00     0.055 A 
HETATM    7  C   UNL     1       7.330  28.659  55.509  1.00  0.00     0.057 A 
HETATM    8  C   UNL     1       6.324  27.682  55.374  1.00  0.00     0.030 A 
HETATM    9 CL   UNL     1       8.729  28.619  54.485  1.00  0.00    -0.082 Cl
HETATM   10  C   UNL     1       5.207  27.789  56.209  1.00  0.00     0.027 A 
HETATM   11  C   UNL     1       5.145  28.767  57.208  1.00  0.00     0.031 A 
BRANCH   8  12
HETATM   12  N   UNL     1       6.404  26.688  54.377  1.00  0.00    -0.287 NA
HETATM   13  H   UNL     1       7.376  26.548  54.094  1.00  0.00     0.128 HD
BRANCH  12  14
HETATM   14  C   UNL     1       5.710  25.432  54.637  1.00  0.00     0.131 C 
BRANCH  14  15
HETATM   15  C   UNL     1       6.629  24.263  54.375  1.00  0.00    -0.045 A 
HETATM   16  C   UNL     1       7.108  23.493  55.447  1.00  0.00     0.008 A 
HETATM   17  C   UNL     1       7.944  22.400  55.217  1.00  0.00     0.001 A 
HETATM   18  C   UNL     1       8.313  22.068  53.915  1.00  0.00     0.000 A 
HETATM   19  C   UNL     1       7.855  22.833  52.844  1.00  0.00     0.001 A 
HETATM   20  C   UNL     1       7.020  23.930  53.071  1.00  0.00     0.008 A 
ENDBRANCH  14  15
ENDBRANCH  12  14
ENDBRANCH   8  12
ENDBRANCH   1   5
BRANCH   2  21
HETATM   21  C   UNL     1       5.939  32.697  59.696  1.00  0.00     0.032 A 
HETATM   22  C   UNL     1       4.993  33.638  60.119  1.00  0.00     0.017 A 
HETATM   23  C   UNL     1       5.111  34.242  61.376  1.00  0.00     0.008 A 
HETATM   24  C   UNL     1       6.179  33.927  62.226  1.00  0.00    -0.057 A 
HETATM   25  C   UNL     1       7.152  33.028  61.778  1.00  0.00     0.008 A 
HETATM   26  C   UNL     1       7.031  32.415  60.528  1.00  0.00     0.017 A 
BRANCH  24  27
HETATM   27  C   UNL     1       6.280  34.544  63.605  1.00  0.00     0.053 C 
BRANCH  27  28
HETATM   28  C   UNL     1       6.040  33.589  64.783  1.00  0.00     0.091 C 
HETATM   29  C   UNL     1       4.662  33.759  65.372  1.00  0.00     0.229 C 
HETATM   30  O   UNL     1       3.609  33.567  64.786  1.00  0.00    -0.273 OA
HETATM   31  N   UNL     1       4.780  34.203  66.648  1.00  0.00    -0.297 N 
HETATM   32  C   UNL     1       6.066  34.326  67.056  1.00  0.00     0.225 C 
HETATM   33  H   UNL     1       3.991  34.461  67.220  1.00  0.00     0.171 HD
HETATM   34  O   UNL     1       6.432  34.758  68.136  1.00  0.00    -0.273 OA
HETATM   35  C   UNL     1       6.968  33.788  65.982  1.00  0.00     0.117 C 
ENDBRANCH  27  28
ENDBRANCH  24  27
ENDBRANCH   2  21
TORSDOF 7
ENDMDL
MODEL 6
REMARK VINA RESULT:      -9.7      2.230      2.734
REMARK  7 active torsions:
REMARK  status: ('A' for Active; 'I' for Inactive)
REMARK    1  A    between atoms: C_4  and  C_5 
REMARK    2  A    between atoms: C_5  and  N_6 
REMARK    3  A    between atoms: N_6  and  C_7 
REMARK    4  A    between atoms: C_11  and  N_12 
REMARK       I    between atoms: N_12  and  C_13 
REMARK    5  A    between atoms: C_13  and  C_14 
REMARK    6  A    between atoms: C_17  and  C_18 
REMARK    7  A    between atoms: C_18  and  C_19 
ROOT
HETATM    1  N   UNL     1       4.943  28.750  57.250  1.00  0.00    -0.323 N 
HETATM    2  C   UNL     1       4.389  30.003  57.057  1.00  0.00     0.256 C 
HETATM    3  O   UNL     1       3.854  30.400  56.027  1.00  0.00    -0.267 OA
HETATM    4  H   UNL     1       5.357  28.554  58.150  1.00  0.00     0.169 HD
ENDROOT
BRANCH   1   5
HETATM    5  C   UNL     1       5.103  27.726  56.291  1.00  0.00     0.036 A 
HETATM    6  C   UNL     1       5.159  27.937  54.915  1.00  0.00     0.055 A 
HETATM    7  C   UNL     1       5.411  26.865  54.048  1.00  0.00     0.057 A 
HETATM    8  C   UNL     1       5.624  25.558  54.532  1.00  0.00     0.030 A 
HETATM    9 CL   UNL     1       5.526  27.197  52.350  1.00  0.00    -0.082 Cl
HETATM   10  C   UNL     1       5.486  25.351  55.908  1.00  0.00     0.027 A 
HETATM   11  C   UNL     1       5.248  26.421  56.778  1.00  0.00     0.031 A 
BRANCH   8  12
HETATM   12  N   UNL     1       5.882  24.490  53.649  1.00  0.00    -0.287 NA
HETATM   13  H   UNL     1       5.330  24.594  52.796  1.00  0.00     0.128 HD
BRANCH  12  14
HETATM   14  C   UNL     1       7.281  24.180  53.376  1.00  0.00     0.131 C 
BRANCH  14  15
HETATM   15  C   UNL     1       7.613  22.789  53.864  1.00  0.00    -0.045 A 
HETATM   16  C   UNL     1       7.900  21.771  52.940  1.00  0.00     0.008 A 
HETATM   17  C   UNL     1       8.224  20.487  53.377  1.00  0.00     0.001 A 
HETATM   18  C   UNL     1       8.261  20.205  54.741  1.00  0.00     0.000 A 
HETATM   19  C   UNL     1       7.965  21.204  55.667  1.00  0.00     0.001 A 
HETATM   20  C   UNL     1       7.636  22.490  55.232  1.00  0.00     0.008 A 
ENDBRANCH  14  15
ENDBRANCH  12  14
ENDBRANCH   8  12
ENDBRANCH   1   5
BRANCH   2  21
HETATM   21  C   UNL     1       4.502  30.957  58.209  1.00  0.00     0.032 A 
HETATM   22  C   UNL     1       5.676  31.651  58.524  1.00  0.00     0.017 A 
HETATM   23  C   UNL     1       5.689  32.574  59.577  1.00  0.00     0.008 A 
HETATM   24  C   UNL     1       4.538  32.810  60.339  1.00  0.00    -0.057 A 
HETATM   25  C   UNL     1       3.382  32.073  60.057  1.00  0.00     0.008 A 
HETATM   26  C   UNL     1       3.363  31.160  59.000  1.00  0.00     0.017 A 
BRANCH  24  27
HETATM   27  C   UNL     1       4.539  33.842  61.446  1.00  0.00     0.053 C 
BRANCH  27  28
HETATM   28  C   UNL     1       5.564  33.618  62.568  1.00  0.00     0.091 C 
HETATM   29  C   UNL     1       5.086  32.597  63.569  1.00  0.00     0.229 C 
HETATM   30  O   UNL     1       4.843  31.425  63.331  1.00  0.00    -0.273 OA
HETATM   31  N   UNL     1       4.927  33.202  64.773  1.00  0.00    -0.297 N 
HETATM   32  C   UNL     1       5.275  34.511  64.765  1.00  0.00     0.225 C 
HETATM   33  H   UNL     1       4.544  32.736  65.580  1.00  0.00     0.171 HD
HETATM   34  O   UNL     1       5.169  35.281  65.704  1.00  0.00    -0.273 OA
HETATM   35  C   UNL     1       5.869  34.846  63.427  1.00  0.00     0.117 C 
ENDBRANCH  27  28
ENDBRANCH  24  27
ENDBRANCH   2  21
TORSDOF 7
ENDMDL
MODEL 7
REMARK VINA RESULT:      -9.6      1.840      2.458
REMARK  7 active torsions:
REMARK  status: ('A' for Active; 'I' for Inactive)
REMARK    1  A    between atoms: C_4  and  C_5 
REMARK    2  A    between atoms: C_5  and  N_6 
REMARK    3  A    between atoms: N_6  and  C_7 
REMARK    4  A    between atoms: C_11  and  N_12 
REMARK       I    between atoms: N_12  and  C_13 
REMARK    5  A    between atoms: C_13  and  C_14 
REMARK    6  A    between atoms: C_17  and  C_18 
REMARK    7  A    between atoms: C_18  and  C_19 
ROOT
HETATM    1  N   UNL     1       6.342  29.091  57.232  1.00  0.00    -0.323 N 
HETATM    2  C   UNL     1       7.480  29.662  57.778  1.00  0.00     0.256 C 
HETATM    3  O   UNL     1       8.636  29.339  57.528  1.00  0.00    -0.267 OA
HETATM    4  H   UNL     1       5.448  29.452  57.530  1.00  0.00     0.169 HD
ENDROOT
BRANCH   1   5
HETATM    5  C   UNL     1       6.273  27.971  56.374  1.00  0.00     0.036 A 
HETATM    6  C   UNL     1       6.139  28.046  54.989  1.00  0.00     0.055 A 
HETATM    7  C   UNL     1       6.170  26.878  54.216  1.00  0.00     0.057 A 
HETATM    8  C   UNL     1       6.347  25.608  54.802  1.00  0.00     0.030 A 
HETATM    9 CL   UNL     1       6.055  27.036  52.493  1.00  0.00    -0.082 Cl
HETATM   10  C   UNL     1       6.401  25.545  56.198  1.00  0.00     0.027 A 
HETATM   11  C   UNL     1       6.384  26.710  56.973  1.00  0.00     0.031 A 
BRANCH   8  12
HETATM   12  N   UNL     1       6.382  24.441  54.011  1.00  0.00    -0.287 NA
HETATM   13  H   UNL     1       5.714  24.515  53.241  1.00  0.00     0.128 HD
BRANCH  12  14
HETATM   14  C   UNL     1       7.694  23.979  53.572  1.00  0.00     0.131 C 
BRANCH  14  15
HETATM   15  C   UNL     1       7.948  22.577  54.073  1.00  0.00    -0.045 A 
HETATM   16  C   UNL     1       7.649  22.241  55.404  1.00  0.00     0.008 A 
HETATM   17  C   UNL     1       7.864  20.946  55.874  1.00  0.00     0.001 A 
HETATM   18  C   UNL     1       8.381  19.973  55.022  1.00  0.00     0.000 A 
HETATM   19  C   UNL     1       8.693  20.297  53.702  1.00  0.00     0.001 A 
HETATM   20  C   UNL     1       8.484  21.594  53.230  1.00  0.00     0.008 A 
ENDBRANCH  14  15
ENDBRANCH  12  14
ENDBRANCH   8  12
ENDBRANCH   1   5
BRANCH   2  21
HETATM   21  C   UNL     1       7.250  30.740  58.795  1.00  0.00     0.032 A 
HETATM   22  C   UNL     1       6.352  31.798  58.610  1.00  0.00     0.017 A 
HETATM   23  C   UNL     1       6.141  32.732  59.631  1.00  0.00     0.008 A 
HETATM   24  C   UNL     1       6.832  32.635  60.846  1.00  0.00    -0.057 A 
HETATM   25  C   UNL     1       7.769  31.609  61.006  1.00  0.00     0.008 A 
HETATM   26  C   UNL     1       7.972  30.668  59.994  1.00  0.00     0.017 A 
BRANCH  24  27
HETATM   27  C   UNL     1       6.570  33.618  61.967  1.00  0.00     0.053 C 
BRANCH  27  28
HETATM   28  C   UNL     1       5.142  33.621  62.532  1.00  0.00     0.091 C 
HETATM   29  C   UNL     1       4.592  32.225  62.678  1.00  0.00     0.229 C 
HETATM   30  O   UNL     1       5.052  31.351  63.395  1.00  0.00    -0.273 OA
HETATM   31  N   UNL     1       3.527  32.081  61.851  1.00  0.00    -0.297 N 
HETATM   32  C   UNL     1       3.222  33.211  61.169  1.00  0.00     0.225 C 
HETATM   33  H   UNL     1       3.042  31.208  61.721  1.00  0.00     0.171 HD
HETATM   34  O   UNL     1       2.348  33.320  60.327  1.00  0.00    -0.273 OA
HETATM   35  C   UNL     1       4.099  34.326  61.664  1.00  0.00     0.117 C 
ENDBRANCH  27  28
ENDBRANCH  24  27
ENDBRANCH   2  21
TORSDOF 7
ENDMDL
MODEL 8
REMARK VINA RESULT:      -9.5      2.285      3.456
REMARK  7 active torsions:
REMARK  status: ('A' for Active; 'I' for Inactive)
REMARK    1  A    between atoms: C_4  and  C_5 
REMARK    2  A    between atoms: C_5  and  N_6 
REMARK    3  A    between atoms: N_6  and  C_7 
REMARK    4  A    between atoms: C_11  and  N_12 
REMARK       I    between atoms: N_12  and  C_13 
REMARK    5  A    between atoms: C_13  and  C_14 
REMARK    6  A    between atoms: C_17  and  C_18 
REMARK    7  A    between atoms: C_18  and  C_19 
ROOT
HETATM    1  N   UNL     1       7.500  31.139  59.955  1.00  0.00    -0.323 N 
HETATM    2  C   UNL     1       6.839  32.339  60.158  1.00  0.00     0.256 C 
HETATM    3  O   UNL     1       6.264  32.996  59.297  1.00  0.00    -0.267 OA
HETATM    4  H   UNL     1       7.936  30.703  60.754  1.00  0.00     0.169 HD
ENDROOT
BRANCH   1   5
HETATM    5  C   UNL     1       7.740  30.491  58.723  1.00  0.00     0.036 A 
HETATM    6  C   UNL     1       8.999  30.337  58.145  1.00  0.00     0.055 A 
HETATM    7  C   UNL     1       9.144  29.598  56.964  1.00  0.00     0.057 A 
HETATM    8  C   UNL     1       8.041  28.985  56.335  1.00  0.00     0.030 A 
HETATM    9 CL   UNL     1      10.741  29.392  56.321  1.00  0.00    -0.082 Cl
HETATM   10  C   UNL     1       6.777  29.216  56.885  1.00  0.00     0.027 A 
HETATM   11  C   UNL     1       6.629  29.942  58.073  1.00  0.00     0.031 A 
BRANCH   8  12
HETATM   12  N   UNL     1       8.203  28.240  55.149  1.00  0.00    -0.287 NA
HETATM   13  H   UNL     1       9.019  27.629  55.222  1.00  0.00     0.128 HD
BRANCH  12  14
HETATM   14  C   UNL     1       7.027  27.543  54.640  1.00  0.00     0.131 C 
BRANCH  14  15
HETATM   15  C   UNL     1       7.248  26.050  54.675  1.00  0.00    -0.045 A 
HETATM   16  C   UNL     1       7.652  25.428  55.868  1.00  0.00     0.008 A 
HETATM   17  C   UNL     1       7.843  24.047  55.919  1.00  0.00     0.001 A 
HETATM   18  C   UNL     1       7.638  23.274  54.778  1.00  0.00     0.000 A 
HETATM   19  C   UNL     1       7.250  23.882  53.584  1.00  0.00     0.001 A 
HETATM   20  C   UNL     1       7.061  25.264  53.530  1.00  0.00     0.008 A 
ENDBRANCH  14  15
ENDBRANCH  12  14
ENDBRANCH   8  12
ENDBRANCH   1   5
BRANCH   2  21
HETATM   21  C   UNL     1       6.879  32.882  61.555  1.00  0.00     0.032 A 
HETATM   22  C   UNL     1       6.080  33.944  61.995  1.00  0.00     0.017 A 
HETATM   23  C   UNL     1       6.126  34.356  63.332  1.00  0.00     0.008 A 
HETATM   24  C   UNL     1       6.977  33.725  64.248  1.00  0.00    -0.057 A 
HETATM   25  C   UNL     1       7.815  32.701  63.793  1.00  0.00     0.008 A 
HETATM   26  C   UNL     1       7.763  32.280  62.462  1.00  0.00     0.017 A 
BRANCH  24  27
HETATM   27  C   UNL     1       6.992  34.139  65.704  1.00  0.00     0.053 C 
BRANCH  27  28
HETATM   28  C   UNL     1       5.644  34.055  66.436  1.00  0.00     0.091 C 
HETATM   29  C   UNL     1       4.990  35.407  66.565  1.00  0.00     0.229 C 
HETATM   30  O   UNL     1       4.631  36.115  65.638  1.00  0.00    -0.273 OA
HETATM   31  N   UNL     1       4.903  35.731  67.879  1.00  0.00    -0.297 N 
HETATM   32  C   UNL     1       5.370  34.762  68.702  1.00  0.00     0.225 C 
HETATM   33  H   UNL     1       4.568  36.623  68.208  1.00  0.00     0.171 HD
HETATM   34  O   UNL     1       5.452  34.837  69.916  1.00  0.00    -0.273 OA
HETATM   35  C   UNL     1       5.717  33.554  67.879  1.00  0.00     0.117 C 
ENDBRANCH  27  28
ENDBRANCH  24  27
ENDBRANCH   2  21
TORSDOF 7
ENDMDL
MODEL 9
REMARK VINA RESULT:      -9.4      3.506     12.072
REMARK  7 active torsions:
REMARK  status: ('A' for Active; 'I' for Inactive)
REMARK    1  A    between atoms: C_4  and  C_5 
REMARK    2  A    between atoms: C_5  and  N_6 
REMARK    3  A    between atoms: N_6  and  C_7 
REMARK    4  A    between atoms: C_11  and  N_12 
REMARK       I    between atoms: N_12  and  C_13 
REMARK    5  A    between atoms: C_13  and  C_14 
REMARK    6  A    between atoms: C_17  and  C_18 
REMARK    7  A    between atoms: C_18  and  C_19 
ROOT
HETATM    1  N   UNL     1       6.594  29.679  56.937  1.00  0.00    -0.323 N 
HETATM    2  C   UNL     1       5.673  28.796  56.399  1.00  0.00     0.256 C 
HETATM    3  O   UNL     1       4.457  28.850  56.546  1.00  0.00    -0.267 OA
HETATM    4  H   UNL     1       7.570  29.515  56.739  1.00  0.00     0.169 HD
ENDROOT
BRANCH   1   5
HETATM    5  C   UNL     1       6.342  30.739  57.835  1.00  0.00     0.036 A 
HETATM    6  C   UNL     1       5.290  31.645  57.710  1.00  0.00     0.055 A 
HETATM    7  C   UNL     1       5.070  32.608  58.704  1.00  0.00     0.057 A 
HETATM    8  C   UNL     1       5.884  32.685  59.852  1.00  0.00     0.030 A 
HETATM    9 CL   UNL     1       3.713  33.671  58.524  1.00  0.00    -0.082 Cl
HETATM   10  C   UNL     1       6.981  31.820  59.922  1.00  0.00     0.027 A 
HETATM   11  C   UNL     1       7.197  30.848  58.938  1.00  0.00     0.031 A 
BRANCH   8  12
HETATM   12  N   UNL     1       5.648  33.656  60.846  1.00  0.00    -0.287 NA
HETATM   13  H   UNL     1       5.361  34.539  60.420  1.00  0.00     0.128 HD
BRANCH  12  14
HETATM   14  C   UNL     1       4.788  33.267  61.959  1.00  0.00     0.131 C 
BRANCH  14  15
HETATM   15  C   UNL     1       5.527  33.417  63.267  1.00  0.00    -0.045 A 
HETATM   16  C   UNL     1       6.921  33.256  63.309  1.00  0.00     0.008 A 
HETATM   17  C   UNL     1       7.617  33.409  64.508  1.00  0.00     0.001 A 
HETATM   18  C   UNL     1       6.928  33.720  65.678  1.00  0.00     0.000 A 
HETATM   19  C   UNL     1       5.542  33.870  65.652  1.00  0.00     0.001 A 
HETATM   20  C   UNL     1       4.842  33.714  64.454  1.00  0.00     0.008 A 
ENDBRANCH  14  15
ENDBRANCH  12  14
ENDBRANCH   8  12
ENDBRANCH   1   5
BRANCH   2  21
HETATM   21  C   UNL     1       6.241  27.657  55.606  1.00  0.00     0.032 A 
HETATM   22  C   UNL     1       7.095  27.829  54.510  1.00  0.00     0.017 A 
HETATM   23  C   UNL     1       7.638  26.716  53.857  1.00  0.00     0.008 A 
HETATM   24  C   UNL     1       7.329  25.416  54.277  1.00  0.00    -0.057 A 
HETATM   25  C   UNL     1       6.431  25.247  55.337  1.00  0.00     0.008 A 
HETATM   26  C   UNL     1       5.897  26.356  55.998  1.00  0.00     0.017 A 
BRANCH  24  27
HETATM   27  C   UNL     1       7.953  24.214  53.601  1.00  0.00     0.053 C 
BRANCH  27  28
HETATM   28  C   UNL     1       7.561  22.845  54.176  1.00  0.00     0.091 C 
HETATM   29  C   UNL     1       8.561  22.355  55.192  1.00  0.00     0.229 C 
HETATM   30  O   UNL     1       8.833  22.906  56.247  1.00  0.00    -0.273 OA
HETATM   31  N   UNL     1       9.144  21.223  54.725  1.00  0.00    -0.297 N 
HETATM   32  C   UNL     1       8.653  20.821  53.528  1.00  0.00     0.225 C 
HETATM   33  H   UNL     1       9.900  20.754  55.199  1.00  0.00     0.171 HD
HETATM   34  O   UNL     1       9.052  19.870  52.879  1.00  0.00    -0.273 OA
HETATM   35  C   UNL     1       7.496  21.705  53.159  1.00  0.00     0.117 C 
ENDBRANCH  27  28
ENDBRANCH  24  27
ENDBRANCH   2  21
TORSDOF 7
ENDMDL
MODEL 10
REMARK VINA RESULT:      -9.4      2.178      2.743
REMARK  7 active torsions:
REMARK  status: ('A' for Active; 'I' for Inactive)
REMARK    1  A    between atoms: C_4  and  C_5 
REMARK    2  A    between atoms: C_5  and  N_6 
REMARK    3  A    between atoms: N_6  and  C_7 
REMARK    4  A    between atoms: C_11  and  N_12 
REMARK       I    between atoms: N_12  and  C_13 
REMARK    5  A    between atoms: C_13  and  C_14 
REMARK    6  A    between atoms: C_17  and  C_18 
REMARK    7  A    between atoms: C_18  and  C_19 
ROOT
HETATM    1  N   UNL     1       6.216  29.233  57.775  1.00  0.00    -0.323 N 
HETATM    2  C   UNL     1       5.842  30.483  57.312  1.00  0.00     0.256 C 
HETATM    3  O   UNL     1       5.807  30.833  56.138  1.00  0.00    -0.267 OA
HETATM    4  H   UNL     1       6.204  29.080  58.772  1.00  0.00     0.169 HD
ENDROOT
BRANCH   1   5
HETATM    5  C   UNL     1       6.728  28.157  57.017  1.00  0.00     0.036 A 
HETATM    6  C   UNL     1       7.521  27.135  57.535  1.00  0.00     0.055 A 
HETATM    7  C   UNL     1       7.906  26.062  56.720  1.00  0.00     0.057 A 
HETATM    8  C   UNL     1       7.501  25.974  55.373  1.00  0.00     0.030 A 
HETATM    9 CL   UNL     1       8.844  24.790  57.433  1.00  0.00    -0.082 Cl
HETATM   10  C   UNL     1       6.772  27.047  54.849  1.00  0.00     0.027 A 
HETATM   11  C   UNL     1       6.374  28.114  55.663  1.00  0.00     0.031 A 
BRANCH   8  12
HETATM   12  N   UNL     1       7.890  24.886  54.566  1.00  0.00    -0.287 NA
HETATM   13  H   UNL     1       8.780  24.504  54.891  1.00  0.00     0.128 HD
BRANCH  12  14
HETATM   14  C   UNL     1       6.891  23.850  54.324  1.00  0.00     0.131 C 
BRANCH  14  15
HETATM   15  C   UNL     1       7.543  22.488  54.313  1.00  0.00    -0.045 A 
HETATM   16  C   UNL     1       7.803  21.824  55.524  1.00  0.00     0.008 A 
HETATM   17  C   UNL     1       8.389  20.559  55.527  1.00  0.00     0.001 A 
HETATM   18  C   UNL     1       8.725  19.945  54.322  1.00  0.00     0.000 A 
HETATM   19  C   UNL     1       8.485  20.600  53.115  1.00  0.00     0.001 A 
HETATM   20  C   UNL     1       7.901  21.868  53.109  1.00  0.00     0.008 A 
ENDBRANCH  14  15
ENDBRANCH  12  14
ENDBRANCH   8  12
ENDBRANCH   1   5
BRANCH   2  21
HETATM   21  C   UNL     1       5.494  31.495  58.363  1.00  0.00     0.032 A 
HETATM   22  C   UNL     1       4.266  32.163  58.415  1.00  0.00     0.017 A 
HETATM   23  C   UNL     1       3.986  33.048  59.464  1.00  0.00     0.008 A 
HETATM   24  C   UNL     1       4.932  33.290  60.469  1.00  0.00    -0.057 A 
HETATM   25  C   UNL     1       6.180  32.663  60.384  1.00  0.00     0.008 A 
HETATM   26  C   UNL     1       6.456  31.771  59.344  1.00  0.00     0.017 A 
BRANCH  24  27
HETATM   27  C   UNL     1       4.613  34.209  61.628  1.00  0.00     0.053 C 
BRANCH  27  28
HETATM   28  C   UNL     1       5.817  34.899  62.286  1.00  0.00     0.091 C 
HETATM   29  C   UNL     1       5.985  34.484  63.725  1.00  0.00     0.229 C 
HETATM   30  O   UNL     1       6.209  33.351  64.118  1.00  0.00    -0.273 OA
HETATM   31  N   UNL     1       5.804  35.568  64.520  1.00  0.00    -0.297 N 
HETATM   32  C   UNL     1       5.575  36.709  63.827  1.00  0.00     0.225 C 
HETATM   33  H   UNL     1       5.795  35.521  65.527  1.00  0.00     0.171 HD
HETATM   34  O   UNL     1       5.327  37.799  64.312  1.00  0.00    -0.273 OA
HETATM   35  C   UNL     1       5.734  36.424  62.361  1.00  0.00     0.117 C 
ENDBRANCH  27  28
ENDBRANCH  24  27
ENDBRANCH   2  21
TORSDOF 7
ENDMDL
