MODEL 1
REMARK VINA RESULT:      -8.3      0.000      0.000
REMARK  5 active torsions:
REMARK  status: ('A' for Active; 'I' for Inactive)
REMARK    1  A    between atoms: C_4  and  N_5 
REMARK       I    between atoms: N_5  and  C_6 
REMARK    2  A    between atoms: C_6  and  C_7 
REMARK    3  A    between atoms: C_7  and  N_8 
REMARK    4  A    between atoms: N_8  and  C_11 
REMARK    5  A    between atoms: C_11  and  C_12 
ROOT
HETATM    1  N   UNL     1       6.954  25.338  52.672  1.00  0.00    -0.324 N 
HETATM    2  C   UNL     1       5.701  25.503  52.144  1.00  0.00     0.248 C 
HETATM    3  O   UNL     1       4.765  24.706  52.166  1.00  0.00    -0.271 OA
HETATM    4  H   UNL     1       7.683  26.040  52.526  1.00  0.00     0.169 HD
ENDROOT
BRANCH   1   5
HETATM    5  C   UNL     1       7.471  24.219  53.377  1.00  0.00     0.065 A 
HETATM    6  C   UNL     1       7.681  22.962  52.799  1.00  0.00     0.038 A 
HETATM    7  C   UNL     1       8.198  21.913  53.565  1.00  0.00    -0.059 A 
HETATM    8  C   UNL     1       8.425  20.555  52.964  1.00  0.00     0.048 C 
HETATM    9  C   UNL     1       8.506  22.138  54.910  1.00  0.00     0.020 A 
HETATM   10  C   UNL     1       8.298  23.398  55.494  1.00  0.00    -0.005 A 
HETATM   11  C   UNL     1       7.770  24.455  54.727  1.00  0.00     0.093 A 
HETATM   12  C   UNL     1       8.604  23.648  56.837  1.00  0.00     0.015 A 
HETATM   13  N   UNL     1       7.551  25.689  55.246  1.00  0.00    -0.258 NA
HETATM   14  C   UNL     1       7.863  25.887  56.548  1.00  0.00     0.117 A 
HETATM   15  C   UNL     1       8.386  24.910  57.374  1.00  0.00     0.020 A 
ENDBRANCH   1   5
BRANCH   2  16
HETATM   16  C   UNL     1       5.501  26.840  51.428  1.00  0.00     0.335 C 
BRANCH  16  17
HETATM   17  N   UNL     1       5.449  26.647  49.929  1.00  0.00    -0.059 N 
HETATM   18  H   UNL     1       6.247  27.103  49.465  1.00  0.00     0.278 HD
HETATM   19  H   UNL     1       5.552  25.628  49.761  1.00  0.00     0.278 HD
BRANCH  17  20
HETATM   20  C   UNL     1       4.140  27.070  49.265  1.00  0.00     0.349 C 
BRANCH  20  21
HETATM   21  C   UNL     1       3.515  25.917  48.472  1.00  0.00     0.411 C 
HETATM   22  F   UNL     1       3.550  24.792  49.222  1.00  0.00    -0.169 F 
HETATM   23  F   UNL     1       2.219  26.190  48.210  1.00  0.00    -0.169 F 
HETATM   24  F   UNL     1       4.161  25.691  47.319  1.00  0.00    -0.169 F 
ENDBRANCH  20  21
ENDBRANCH  17  20
ENDBRANCH  16  17
ENDBRANCH   2  16
TORSDOF 5
ENDMDL
MODEL 2
REMARK VINA RESULT:      -7.7      1.058      2.914
REMARK  5 active torsions:
REMARK  status: ('A' for Active; 'I' for Inactive)
REMARK    1  A    between atoms: C_4  and  N_5 
REMARK       I    between atoms: N_5  and  C_6 
REMARK    2  A    between atoms: C_6  and  C_7 
REMARK    3  A    between atoms: C_7  and  N_8 
REMARK    4  A    between atoms: N_8  and  C_11 
REMARK    5  A    between atoms: C_11  and  C_12 
ROOT
HETATM    1  N   UNL     1       7.055  24.974  52.880  1.00  0.00    -0.324 N 
HETATM    2  C   UNL     1       5.809  25.343  52.451  1.00  0.00     0.248 C 
HETATM    3  O   UNL     1       4.752  25.287  53.077  1.00  0.00    -0.271 OA
HETATM    4  H   UNL     1       7.857  24.991  52.245  1.00  0.00     0.169 HD
ENDROOT
BRANCH   1   5
HETATM    5  C   UNL     1       7.432  24.449  54.145  1.00  0.00     0.065 A 
HETATM    6  C   UNL     1       7.522  25.216  55.312  1.00  0.00     0.038 A 
HETATM    7  C   UNL     1       7.899  24.618  56.519  1.00  0.00    -0.059 A 
HETATM    8  C   UNL     1       8.006  25.425  57.781  1.00  0.00     0.048 C 
HETATM    9  C   UNL     1       8.177  23.248  56.544  1.00  0.00     0.020 A 
HETATM   10  C   UNL     1       8.087  22.475  55.376  1.00  0.00    -0.005 A 
HETATM   11  C   UNL     1       7.715  23.075  54.157  1.00  0.00     0.093 A 
HETATM   12  C   UNL     1       8.355  21.101  55.378  1.00  0.00     0.015 A 
HETATM   13  N   UNL     1       7.615  22.370  53.002  1.00  0.00    -0.258 NA
HETATM   14  C   UNL     1       7.882  21.045  53.050  1.00  0.00     0.117 A 
HETATM   15  C   UNL     1       8.251  20.372  54.200  1.00  0.00     0.020 A 
ENDBRANCH   1   5
BRANCH   2  16
HETATM   16  C   UNL     1       5.774  25.851  51.009  1.00  0.00     0.335 C 
BRANCH  16  17
HETATM   17  N   UNL     1       4.393  26.344  50.643  1.00  0.00    -0.059 N 
HETATM   18  H   UNL     1       3.674  25.637  50.860  1.00  0.00     0.278 HD
HETATM   19  H   UNL     1       4.200  27.158  51.257  1.00  0.00     0.278 HD
BRANCH  17  20
HETATM   20  C   UNL     1       4.237  26.832  49.205  1.00  0.00     0.349 C 
BRANCH  20  21
HETATM   21  C   UNL     1       3.367  25.876  48.379  1.00  0.00     0.411 C 
HETATM   22  F   UNL     1       3.317  24.675  48.999  1.00  0.00    -0.169 F 
HETATM   23  F   UNL     1       2.105  26.350  48.307  1.00  0.00    -0.169 F 
HETATM   24  F   UNL     1       3.847  25.706  47.138  1.00  0.00    -0.169 F 
ENDBRANCH  20  21
ENDBRANCH  17  20
ENDBRANCH  16  17
ENDBRANCH   2  16
TORSDOF 5
ENDMDL
MODEL 3
REMARK VINA RESULT:      -7.6      3.188      3.686
REMARK  5 active torsions:
REMARK  status: ('A' for Active; 'I' for Inactive)
REMARK    1  A    between atoms: C_4  and  N_5 
REMARK       I    between atoms: N_5  and  C_6 
REMARK    2  A    between atoms: C_6  and  C_7 
REMARK    3  A    between atoms: C_7  and  N_8 
REMARK    4  A    between atoms: N_8  and  C_11 
REMARK    5  A    between atoms: C_11  and  C_12 
ROOT
HETATM    1  N   UNL     1       5.932  24.969  53.339  1.00  0.00    -0.324 N 
HETATM    2  C   UNL     1       5.990  25.637  52.146  1.00  0.00     0.248 C 
HETATM    3  O   UNL     1       6.867  25.568  51.287  1.00  0.00    -0.271 OA
HETATM    4  H   UNL     1       5.189  25.162  54.016  1.00  0.00     0.169 HD
ENDROOT
BRANCH   1   5
HETATM    5  C   UNL     1       6.860  24.034  53.870  1.00  0.00     0.065 A 
HETATM    6  C   UNL     1       7.220  22.843  53.231  1.00  0.00     0.038 A 
HETATM    7  C   UNL     1       8.145  21.977  53.823  1.00  0.00    -0.059 A 
HETATM    8  C   UNL     1       8.540  20.692  53.154  1.00  0.00     0.048 C 
HETATM    9  C   UNL     1       8.707  22.320  55.057  1.00  0.00     0.020 A 
HETATM   10  C   UNL     1       8.349  23.515  55.702  1.00  0.00    -0.005 A 
HETATM   11  C   UNL     1       7.412  24.385  55.111  1.00  0.00     0.093 A 
HETATM   12  C   UNL     1       8.903  23.882  56.935  1.00  0.00     0.015 A 
HETATM   13  N   UNL     1       7.034  25.550  55.696  1.00  0.00    -0.258 NA
HETATM   14  C   UNL     1       7.596  25.865  56.886  1.00  0.00     0.117 A 
HETATM   15  C   UNL     1       8.523  25.074  57.537  1.00  0.00     0.020 A 
ENDBRANCH   1   5
BRANCH   2  16
HETATM   16  C   UNL     1       4.816  26.589  51.911  1.00  0.00     0.335 C 
BRANCH  16  17
HETATM   17  N   UNL     1       4.002  26.763  53.172  1.00  0.00    -0.059 N 
HETATM   18  H   UNL     1       3.079  26.313  53.087  1.00  0.00     0.278 HD
HETATM   19  H   UNL     1       4.510  26.255  53.921  1.00  0.00     0.278 HD
BRANCH  17  20
HETATM   20  C   UNL     1       3.844  28.205  53.650  1.00  0.00     0.349 C 
BRANCH  20  21
HETATM   21  C   UNL     1       4.747  28.500  54.854  1.00  0.00     0.411 C 
HETATM   22  F   UNL     1       4.508  27.586  55.822  1.00  0.00    -0.169 F 
HETATM   23  F   UNL     1       6.043  28.382  54.495  1.00  0.00    -0.169 F 
HETATM   24  F   UNL     1       4.535  29.727  55.353  1.00  0.00    -0.169 F 
ENDBRANCH  20  21
ENDBRANCH  17  20
ENDBRANCH  16  17
ENDBRANCH   2  16
TORSDOF 5
ENDMDL
MODEL 4
REMARK VINA RESULT:      -7.5      5.983      7.791
REMARK  5 active torsions:
REMARK  status: ('A' for Active; 'I' for Inactive)
REMARK    1  A    between atoms: C_4  and  N_5 
REMARK       I    between atoms: N_5  and  C_6 
REMARK    2  A    between atoms: C_6  and  C_7 
REMARK    3  A    between atoms: C_7  and  N_8 
REMARK    4  A    between atoms: N_8  and  C_11 
REMARK    5  A    between atoms: C_11  and  C_12 
ROOT
HETATM    1  N   UNL     1       6.999  26.612  56.631  1.00  0.00    -0.324 N 
HETATM    2  C   UNL     1       7.780  27.598  57.172  1.00  0.00     0.248 C 
HETATM    3  O   UNL     1       8.997  27.584  57.343  1.00  0.00    -0.271 OA
HETATM    4  H   UNL     1       5.980  26.701  56.608  1.00  0.00     0.169 HD
ENDROOT
BRANCH   1   5
HETATM    5  C   UNL     1       7.402  25.346  56.131  1.00  0.00     0.065 A 
HETATM    6  C   UNL     1       7.700  24.246  56.943  1.00  0.00     0.038 A 
HETATM    7  C   UNL     1       8.087  23.031  56.368  1.00  0.00    -0.059 A 
HETATM    8  C   UNL     1       8.416  21.841  57.223  1.00  0.00     0.048 C 
HETATM    9  C   UNL     1       8.166  22.930  54.976  1.00  0.00     0.020 A 
HETATM   10  C   UNL     1       7.867  24.031  54.158  1.00  0.00    -0.005 A 
HETATM   11  C   UNL     1       7.484  25.258  54.734  1.00  0.00     0.093 A 
HETATM   12  C   UNL     1       7.934  23.951  52.761  1.00  0.00     0.015 A 
HETATM   13  N   UNL     1       7.186  26.350  53.985  1.00  0.00    -0.258 NA
HETATM   14  C   UNL     1       7.262  26.227  52.639  1.00  0.00     0.117 A 
HETATM   15  C   UNL     1       7.627  25.064  51.988  1.00  0.00     0.020 A 
ENDBRANCH   1   5
BRANCH   2  16
HETATM   16  C   UNL     1       6.997  28.831  57.627  1.00  0.00     0.335 C 
BRANCH  16  17
HETATM   17  N   UNL     1       7.676  29.499  58.800  1.00  0.00    -0.059 N 
HETATM   18  H   UNL     1       7.234  29.231  59.691  1.00  0.00     0.278 HD
HETATM   19  H   UNL     1       8.645  29.129  58.828  1.00  0.00     0.278 HD
BRANCH  17  20
HETATM   20  C   UNL     1       7.791  31.019  58.704  1.00  0.00     0.349 C 
BRANCH  20  21
HETATM   21  C   UNL     1       9.141  31.515  59.235  1.00  0.00     0.411 C 
HETATM   22  F   UNL     1       8.940  32.609  60.006  1.00  0.00    -0.169 F 
HETATM   23  F   UNL     1       9.704  30.567  60.014  1.00  0.00    -0.169 F 
HETATM   24  F   UNL     1       9.986  31.832  58.243  1.00  0.00    -0.169 F 
ENDBRANCH  20  21
ENDBRANCH  17  20
ENDBRANCH  16  17
ENDBRANCH   2  16
TORSDOF 5
ENDMDL
MODEL 5
REMARK VINA RESULT:      -7.4      5.093      6.876
REMARK  5 active torsions:
REMARK  status: ('A' for Active; 'I' for Inactive)
REMARK    1  A    between atoms: C_4  and  N_5 
REMARK       I    between atoms: N_5  and  C_6 
REMARK    2  A    between atoms: C_6  and  C_7 
REMARK    3  A    between atoms: C_7  and  N_8 
REMARK    4  A    between atoms: N_8  and  C_11 
REMARK    5  A    between atoms: C_11  and  C_12 
ROOT
HETATM    1  N   UNL     1       6.578  27.026  56.111  1.00  0.00    -0.324 N 
HETATM    2  C   UNL     1       7.201  28.241  56.012  1.00  0.00     0.248 C 
HETATM    3  O   UNL     1       7.833  28.686  55.055  1.00  0.00    -0.271 OA
HETATM    4  H   UNL     1       6.144  26.727  56.988  1.00  0.00     0.169 HD
ENDROOT
BRANCH   1   5
HETATM    5  C   UNL     1       6.503  25.993  55.139  1.00  0.00     0.065 A 
HETATM    6  C   UNL     1       5.780  26.096  53.947  1.00  0.00     0.038 A 
HETATM    7  C   UNL     1       5.760  25.030  53.041  1.00  0.00    -0.059 A 
HETATM    8  C   UNL     1       4.985  25.119  51.758  1.00  0.00     0.048 C 
HETATM    9  C   UNL     1       6.477  23.867  53.341  1.00  0.00     0.020 A 
HETATM   10  C   UNL     1       7.204  23.760  54.537  1.00  0.00    -0.005 A 
HETATM   11  C   UNL     1       7.219  24.829  55.454  1.00  0.00     0.093 A 
HETATM   12  C   UNL     1       7.933  22.608  54.856  1.00  0.00     0.015 A 
HETATM   13  N   UNL     1       7.908  24.773  56.623  1.00  0.00    -0.258 NA
HETATM   14  C   UNL     1       8.599  23.641  56.890  1.00  0.00     0.117 A 
HETATM   15  C   UNL     1       8.642  22.545  56.049  1.00  0.00     0.020 A 
ENDBRANCH   1   5
BRANCH   2  16
HETATM   16  C   UNL     1       7.093  29.099  57.273  1.00  0.00     0.335 C 
BRANCH  16  17
HETATM   17  N   UNL     1       8.389  29.080  58.051  1.00  0.00    -0.059 N 
HETATM   18  H   UNL     1       8.217  28.982  59.062  1.00  0.00     0.278 HD
HETATM   19  H   UNL     1       8.898  28.226  57.753  1.00  0.00     0.278 HD
BRANCH  17  20
HETATM   20  C   UNL     1       9.322  30.260  57.787  1.00  0.00     0.349 C 
BRANCH  20  21
HETATM   21  C   UNL     1      10.548  29.835  56.971  1.00  0.00     0.411 C 
HETATM   22  F   UNL     1      10.608  28.484  56.932  1.00  0.00    -0.169 F 
HETATM   23  F   UNL     1      10.428  30.273  55.700  1.00  0.00    -0.169 F 
HETATM   24  F   UNL     1      11.689  30.305  57.495  1.00  0.00    -0.169 F 
ENDBRANCH  20  21
ENDBRANCH  17  20
ENDBRANCH  16  17
ENDBRANCH   2  16
TORSDOF 5
ENDMDL
MODEL 6
REMARK VINA RESULT:      -7.4      6.934      8.977
REMARK  5 active torsions:
REMARK  status: ('A' for Active; 'I' for Inactive)
REMARK    1  A    between atoms: C_4  and  N_5 
REMARK       I    between atoms: N_5  and  C_6 
REMARK    2  A    between atoms: C_6  and  C_7 
REMARK    3  A    between atoms: C_7  and  N_8 
REMARK    4  A    between atoms: N_8  and  C_11 
REMARK    5  A    between atoms: C_11  and  C_12 
ROOT
HETATM    1  N   UNL     1       6.953  27.802  57.461  1.00  0.00    -0.324 N 
HETATM    2  C   UNL     1       7.984  28.683  57.653  1.00  0.00     0.248 C 
HETATM    3  O   UNL     1       9.151  28.564  57.287  1.00  0.00    -0.271 OA
HETATM    4  H   UNL     1       6.034  27.969  57.879  1.00  0.00     0.169 HD
ENDROOT
BRANCH   1   5
HETATM    5  C   UNL     1       6.977  26.551  56.791  1.00  0.00     0.065 A 
HETATM    6  C   UNL     1       7.674  25.431  57.256  1.00  0.00     0.038 A 
HETATM    7  C   UNL     1       7.644  24.233  56.534  1.00  0.00    -0.059 A 
HETATM    8  C   UNL     1       8.390  23.021  57.015  1.00  0.00     0.048 C 
HETATM    9  C   UNL     1       6.905  24.170  55.348  1.00  0.00     0.020 A 
HETATM   10  C   UNL     1       6.204  25.292  54.878  1.00  0.00    -0.005 A 
HETATM   11  C   UNL     1       6.239  26.502  55.599  1.00  0.00     0.093 A 
HETATM   12  C   UNL     1       5.454  25.250  53.697  1.00  0.00     0.015 A 
HETATM   13  N   UNL     1       5.578  27.612  55.185  1.00  0.00    -0.258 NA
HETATM   14  C   UNL     1       4.864  27.527  54.039  1.00  0.00     0.117 A 
HETATM   15  C   UNL     1       4.772  26.383  53.269  1.00  0.00     0.020 A 
ENDBRANCH   1   5
BRANCH   2  16
HETATM   16  C   UNL     1       7.593  29.932  58.445  1.00  0.00     0.335 C 
BRANCH  16  17
HETATM   17  N   UNL     1       8.281  29.955  59.791  1.00  0.00    -0.059 N 
HETATM   18  H   UNL     1       8.027  29.130  60.354  1.00  0.00     0.278 HD
HETATM   19  H   UNL     1       9.298  29.881  59.601  1.00  0.00     0.278 HD
BRANCH  17  20
HETATM   20  C   UNL     1       8.077  31.232  60.603  1.00  0.00     0.349 C 
BRANCH  20  21
HETATM   21  C   UNL     1       9.125  31.364  61.714  1.00  0.00     0.411 C 
HETATM   22  F   UNL     1      10.144  32.137  61.273  1.00  0.00    -0.169 F 
HETATM   23  F   UNL     1       8.583  31.979  62.786  1.00  0.00    -0.169 F 
HETATM   24  F   UNL     1       9.614  30.173  62.088  1.00  0.00    -0.169 F 
ENDBRANCH  20  21
ENDBRANCH  17  20
ENDBRANCH  16  17
ENDBRANCH   2  16
TORSDOF 5
ENDMDL
MODEL 7
REMARK VINA RESULT:      -7.3      7.081      9.199
REMARK  5 active torsions:
REMARK  status: ('A' for Active; 'I' for Inactive)
REMARK    1  A    between atoms: C_4  and  N_5 
REMARK       I    between atoms: N_5  and  C_6 
REMARK    2  A    between atoms: C_6  and  C_7 
REMARK    3  A    between atoms: C_7  and  N_8 
REMARK    4  A    between atoms: N_8  and  C_11 
REMARK    5  A    between atoms: C_11  and  C_12 
ROOT
HETATM    1  N   UNL     1       7.686  28.570  57.698  1.00  0.00    -0.324 N 
HETATM    2  C   UNL     1       8.706  29.461  57.495  1.00  0.00     0.248 C 
HETATM    3  O   UNL     1       9.273  29.726  56.437  1.00  0.00    -0.271 OA
HETATM    4  H   UNL     1       7.340  28.371  58.640  1.00  0.00     0.169 HD
ENDROOT
BRANCH   1   5
HETATM    5  C   UNL     1       7.034  27.746  56.743  1.00  0.00     0.065 A 
HETATM    6  C   UNL     1       6.059  28.207  55.852  1.00  0.00     0.038 A 
HETATM    7  C   UNL     1       5.467  27.327  54.939  1.00  0.00    -0.059 A 
HETATM    8  C   UNL     1       4.415  27.803  53.978  1.00  0.00     0.048 C 
HETATM    9  C   UNL     1       5.867  25.987  54.926  1.00  0.00     0.020 A 
HETATM   10  C   UNL     1       6.845  25.521  55.818  1.00  0.00    -0.005 A 
HETATM   11  C   UNL     1       7.437  26.402  56.744  1.00  0.00     0.093 A 
HETATM   12  C   UNL     1       7.265  24.185  55.820  1.00  0.00     0.015 A 
HETATM   13  N   UNL     1       8.387  25.999  57.625  1.00  0.00    -0.258 NA
HETATM   14  C   UNL     1       8.763  24.699  57.591  1.00  0.00     0.117 A 
HETATM   15  C   UNL     1       8.238  23.766  56.718  1.00  0.00     0.020 A 
ENDBRANCH   1   5
BRANCH   2  16
HETATM   16  C   UNL     1       9.177  30.164  58.769  1.00  0.00     0.335 C 
BRANCH  16  17
HETATM   17  N   UNL     1       8.107  30.124  59.836  1.00  0.00    -0.059 N 
HETATM   18  H   UNL     1       7.183  29.914  59.430  1.00  0.00     0.278 HD
HETATM   19  H   UNL     1       8.343  29.329  60.459  1.00  0.00     0.278 HD
BRANCH  17  20
HETATM   20  C   UNL     1       8.025  31.366  60.721  1.00  0.00     0.349 C 
BRANCH  20  21
HETATM   21  C   UNL     1       9.059  31.318  61.852  1.00  0.00     0.411 C 
HETATM   22  F   UNL     1       8.488  31.768  62.993  1.00  0.00    -0.169 F 
HETATM   23  F   UNL     1       9.446  30.043  62.067  1.00  0.00    -0.169 F 
HETATM   24  F   UNL     1      10.137  32.068  61.580  1.00  0.00    -0.169 F 
ENDBRANCH  20  21
ENDBRANCH  17  20
ENDBRANCH  16  17
ENDBRANCH   2  16
TORSDOF 5
ENDMDL
MODEL 8
REMARK VINA RESULT:      -7.2      2.165      3.743
REMARK  5 active torsions:
REMARK  status: ('A' for Active; 'I' for Inactive)
REMARK    1  A    between atoms: C_4  and  N_5 
REMARK       I    between atoms: N_5  and  C_6 
REMARK    2  A    between atoms: C_6  and  C_7 
REMARK    3  A    between atoms: C_7  and  N_8 
REMARK    4  A    between atoms: N_8  and  C_11 
REMARK    5  A    between atoms: C_11  and  C_12 
ROOT
HETATM    1  N   UNL     1       6.796  24.737  52.895  1.00  0.00    -0.324 N 
HETATM    2  C   UNL     1       5.478  25.020  52.652  1.00  0.00     0.248 C 
HETATM    3  O   UNL     1       4.532  24.922  53.431  1.00  0.00    -0.271 OA
HETATM    4  H   UNL     1       7.491  24.781  52.146  1.00  0.00     0.169 HD
ENDROOT
BRANCH   1   5
HETATM    5  C   UNL     1       7.388  24.272  54.099  1.00  0.00     0.065 A 
HETATM    6  C   UNL     1       7.545  25.058  55.245  1.00  0.00     0.038 A 
HETATM    7  C   UNL     1       8.138  24.520  56.392  1.00  0.00    -0.059 A 
HETATM    8  C   UNL     1       8.320  25.349  57.631  1.00  0.00     0.048 C 
HETATM    9  C   UNL     1       8.566  23.188  56.378  1.00  0.00     0.020 A 
HETATM   10  C   UNL     1       8.410  22.396  55.229  1.00  0.00    -0.005 A 
HETATM   11  C   UNL     1       7.820  22.937  54.071  1.00  0.00     0.093 A 
HETATM   12  C   UNL     1       8.826  21.059  55.194  1.00  0.00     0.015 A 
HETATM   13  N   UNL     1       7.648  22.211  52.937  1.00  0.00    -0.258 NA
HETATM   14  C   UNL     1       8.063  20.923  52.948  1.00  0.00     0.117 A 
HETATM   15  C   UNL     1       8.650  20.310  54.038  1.00  0.00     0.020 A 
ENDBRANCH   1   5
BRANCH   2  16
HETATM   16  C   UNL     1       5.198  25.484  51.221  1.00  0.00     0.335 C 
BRANCH  16  17
HETATM   17  N   UNL     1       5.848  26.821  50.950  1.00  0.00    -0.059 N 
HETATM   18  H   UNL     1       6.852  26.714  50.747  1.00  0.00     0.278 HD
HETATM   19  H   UNL     1       5.409  27.190  50.085  1.00  0.00     0.278 HD
BRANCH  17  20
HETATM   20  C   UNL     1       5.638  27.877  52.033  1.00  0.00     0.349 C 
BRANCH  20  21
HETATM   21  C   UNL     1       4.227  28.474  51.968  1.00  0.00     0.411 C 
HETATM   22  F   UNL     1       4.298  29.805  52.204  1.00  0.00    -0.169 F 
HETATM   23  F   UNL     1       3.714  28.308  50.731  1.00  0.00    -0.169 F 
HETATM   24  F   UNL     1       3.404  27.917  52.868  1.00  0.00    -0.169 F 
ENDBRANCH  20  21
ENDBRANCH  17  20
ENDBRANCH  16  17
ENDBRANCH   2  16
TORSDOF 5
ENDMDL
MODEL 9
REMARK VINA RESULT:      -7.1      9.397     11.538
REMARK  5 active torsions:
REMARK  status: ('A' for Active; 'I' for Inactive)
REMARK    1  A    between atoms: C_4  and  N_5 
REMARK       I    between atoms: N_5  and  C_6 
REMARK    2  A    between atoms: C_6  and  C_7 
REMARK    3  A    between atoms: C_7  and  N_8 
REMARK    4  A    between atoms: N_8  and  C_11 
REMARK    5  A    between atoms: C_11  and  C_12 
ROOT
HETATM    1  N   UNL     1       4.904  31.784  61.354  1.00  0.00    -0.324 N 
HETATM    2  C   UNL     1       4.455  32.286  60.162  1.00  0.00     0.248 C 
HETATM    3  O   UNL     1       5.015  33.101  59.432  1.00  0.00    -0.271 OA
HETATM    4  H   UNL     1       4.317  31.165  61.920  1.00  0.00     0.169 HD
ENDROOT
BRANCH   1   5
HETATM    5  C   UNL     1       6.119  32.073  62.029  1.00  0.00     0.065 A 
HETATM    6  C   UNL     1       7.386  31.786  61.511  1.00  0.00     0.038 A 
HETATM    7  C   UNL     1       8.535  32.106  62.242  1.00  0.00    -0.059 A 
HETATM    8  C   UNL     1       9.904  31.802  61.704  1.00  0.00     0.048 C 
HETATM    9  C   UNL     1       8.400  32.720  63.491  1.00  0.00     0.020 A 
HETATM   10  C   UNL     1       7.129  33.010  64.015  1.00  0.00    -0.005 A 
HETATM   11  C   UNL     1       5.971  32.682  63.284  1.00  0.00     0.093 A 
HETATM   12  C   UNL     1       6.970  33.630  65.260  1.00  0.00     0.015 A 
HETATM   13  N   UNL     1       4.722  32.942  63.749  1.00  0.00    -0.258 NA
HETATM   14  C   UNL     1       4.615  33.543  64.957  1.00  0.00     0.117 A 
HETATM   15  C   UNL     1       5.695  33.902  65.740  1.00  0.00     0.020 A 
ENDBRANCH   1   5
BRANCH   2  16
HETATM   16  C   UNL     1       3.079  31.762  59.747  1.00  0.00     0.335 C 
BRANCH  16  17
HETATM   17  N   UNL     1       3.205  30.467  58.978  1.00  0.00    -0.059 N 
HETATM   18  H   UNL     1       3.958  29.877  59.361  1.00  0.00     0.278 HD
HETATM   19  H   UNL     1       2.318  29.949  59.130  1.00  0.00     0.278 HD
BRANCH  17  20
HETATM   20  C   UNL     1       3.370  30.621  57.468  1.00  0.00     0.349 C 
BRANCH  20  21
HETATM   21  C   UNL     1       4.681  29.994  56.980  1.00  0.00     0.411 C 
HETATM   22  F   UNL     1       5.581  30.005  57.990  1.00  0.00    -0.169 F 
HETATM   23  F   UNL     1       4.473  28.706  56.634  1.00  0.00    -0.169 F 
HETATM   24  F   UNL     1       5.196  30.656  55.933  1.00  0.00    -0.169 F 
ENDBRANCH  20  21
ENDBRANCH  17  20
ENDBRANCH  16  17
ENDBRANCH   2  16
TORSDOF 5
ENDMDL
MODEL 10
REMARK VINA RESULT:      -7.1      7.727     10.458
REMARK  5 active torsions:
REMARK  status: ('A' for Active; 'I' for Inactive)
REMARK    1  A    between atoms: C_4  and  N_5 
REMARK       I    between atoms: N_5  and  C_6 
REMARK    2  A    between atoms: C_6  and  C_7 
REMARK    3  A    between atoms: C_7  and  N_8 
REMARK    4  A    between atoms: N_8  and  C_11 
REMARK    5  A    between atoms: C_11  and  C_12 
ROOT
HETATM    1  N   UNL     1       8.794  30.770  59.386  1.00  0.00    -0.324 N 
HETATM    2  C   UNL     1       9.811  31.167  58.559  1.00  0.00     0.248 C 
HETATM    3  O   UNL     1      10.267  32.300  58.420  1.00  0.00    -0.271 OA
HETATM    4  H   UNL     1       8.442  29.810  59.365  1.00  0.00     0.169 HD
ENDROOT
BRANCH   1   5
HETATM    5  C   UNL     1       8.029  31.562  60.283  1.00  0.00     0.065 A 
HETATM    6  C   UNL     1       8.382  31.791  61.617  1.00  0.00     0.038 A 
HETATM    7  C   UNL     1       7.571  32.587  62.433  1.00  0.00    -0.059 A 
HETATM    8  C   UNL     1       7.931  32.839  63.869  1.00  0.00     0.048 C 
HETATM    9  C   UNL     1       6.411  33.154  61.896  1.00  0.00     0.020 A 
HETATM   10  C   UNL     1       6.054  32.928  60.558  1.00  0.00    -0.005 A 
HETATM   11  C   UNL     1       6.864  32.120  59.736  1.00  0.00     0.093 A 
HETATM   12  C   UNL     1       4.900  33.490  59.997  1.00  0.00     0.015 A 
HETATM   13  N   UNL     1       6.560  31.873  58.436  1.00  0.00    -0.258 NA
HETATM   14  C   UNL     1       5.437  32.437  57.936  1.00  0.00     0.117 A 
HETATM   15  C   UNL     1       4.585  33.243  58.667  1.00  0.00     0.020 A 
ENDBRANCH   1   5
BRANCH   2  16
HETATM   16  C   UNL     1      10.397  30.037  57.711  1.00  0.00     0.335 C 
BRANCH  16  17
HETATM   17  N   UNL     1       9.451  29.651  56.598  1.00  0.00    -0.059 N 
HETATM   18  H   UNL     1       8.801  30.420  56.376  1.00  0.00     0.278 HD
HETATM   19  H   UNL     1      10.036  29.506  55.753  1.00  0.00     0.278 HD
BRANCH  17  20
HETATM   20  C   UNL     1       8.676  28.355  56.823  1.00  0.00     0.349 C 
BRANCH  20  21
HETATM   21  C   UNL     1       7.163  28.576  56.707  1.00  0.00     0.411 C 
HETATM   22  F   UNL     1       6.642  28.725  57.946  1.00  0.00    -0.169 F 
HETATM   23  F   UNL     1       6.917  29.714  56.023  1.00  0.00    -0.169 F 
HETATM   24  F   UNL     1       6.550  27.552  56.097  1.00  0.00    -0.169 F 
ENDBRANCH  20  21
ENDBRANCH  17  20
ENDBRANCH  16  17
ENDBRANCH   2  16
TORSDOF 5
ENDMDL
