MODEL 1
REMARK VINA RESULT:     -10.1      0.000      0.000
REMARK  4 active torsions:
REMARK  status: ('A' for Active; 'I' for Inactive)
REMARK    1  A    between atoms: N_2  and  C_4 
REMARK    2  A    between atoms: C_7  and  C_21 
REMARK    3  A    between atoms: C_12  and  C_15 
REMARK    4  A    between atoms: C_27  and  C_28 
ROOT
HETATM    1  C   UNL     1       6.207  26.278  54.600  1.00  0.00     0.116 A 
HETATM    2  N   UNL     1       6.000  27.359  55.369  1.00  0.00    -0.330 N 
HETATM    3  H   UNL     1       5.456  28.116  54.969  1.00  0.00     0.168 HD
HETATM    4  C   UNL     1       6.444  27.411  56.631  1.00  0.00     0.112 A 
HETATM    5  N   UNL     1       7.075  26.383  57.230  1.00  0.00    -0.234 NA
HETATM    6  C   UNL     1       7.288  25.277  56.507  1.00  0.00     0.072 A 
HETATM    7  C   UNL     1       7.937  24.209  57.107  1.00  0.00     0.033 A 
HETATM    8  C   UNL     1       8.231  23.036  56.402  1.00  0.00     0.014 A 
HETATM    9  C   UNL     1       7.891  22.914  55.056  1.00  0.00    -0.022 A 
HETATM   10  C   UNL     1       7.225  23.987  54.448  1.00  0.00     0.030 A 
HETATM   11  C   UNL     1       6.894  25.168  55.164  1.00  0.00     0.037 A 
ENDROOT
BRANCH   4  12
HETATM   12  C   UNL     1       6.224  28.649  57.465  1.00  0.00     0.091 C 
HETATM   13  C   UNL     1       4.745  29.031  57.565  1.00  0.00     0.245 C 
HETATM   14  N   UNL     1       4.759  30.486  57.921  1.00  0.00    -0.074 N 
HETATM   15  H   UNL     1       3.930  30.972  57.540  1.00  0.00     0.277 HD
HETATM   16  H   UNL     1       4.703  30.634  58.943  1.00  0.00     0.277 HD
HETATM   17  C   UNL     1       6.024  31.092  57.377  1.00  0.00     0.242 C 
HETATM   18  C   UNL     1       6.842  29.907  56.828  1.00  0.00     0.057 C 
BRANCH  18  19
HETATM   19  C   UNL     1       8.326  30.010  57.092  1.00  0.00    -0.052 A 
HETATM   20  C   UNL     1       8.837  30.642  58.237  1.00  0.00     0.007 A 
HETATM   21  C   UNL     1      10.215  30.736  58.441  1.00  0.00     0.001 A 
HETATM   22  C   UNL     1      11.097  30.196  57.509  1.00  0.00     0.000 A 
HETATM   23  C   UNL     1      10.605  29.558  56.375  1.00  0.00     0.001 A 
HETATM   24  C   UNL     1       9.228  29.463  56.166  1.00  0.00     0.007 A 
ENDBRANCH  18  19
ENDBRANCH   4  12
BRANCH   1  25
HETATM   25  N   UNL     1       5.753  26.289  53.288  1.00  0.00    -0.375 N 
HETATM   26  C   UNL     1       5.786  27.531  52.517  1.00  0.00     0.150 C 
HETATM   27  C   UNL     1       4.599  25.421  53.015  1.00  0.00     0.150 C 
ENDBRANCH   1  25
BRANCH   9  28
HETATM   28  C   UNL     1       8.203  21.713  54.298  1.00  0.00     0.010 A 
HETATM   29  C   UNL     1       8.843  20.511  54.686  1.00  0.00     0.152 A 
HETATM   30  N   UNL     1       8.936  19.626  53.694  1.00  0.00    -0.187 NA
HETATM   31  N   UNL     1       8.359  20.249  52.655  1.00  0.00    -0.289 N 
HETATM   32  H   UNL     1       8.311  19.761  51.765  1.00  0.00     0.188 HD
HETATM   33  C   UNL     1       7.900  21.499  52.967  1.00  0.00     0.123 A 
ENDBRANCH   9  28
TORSDOF 4
ENDMDL
MODEL 2
REMARK VINA RESULT:      -9.7      2.492      7.650
REMARK  4 active torsions:
REMARK  status: ('A' for Active; 'I' for Inactive)
REMARK    1  A    between atoms: N_2  and  C_4 
REMARK    2  A    between atoms: C_7  and  C_21 
REMARK    3  A    between atoms: C_12  and  C_15 
REMARK    4  A    between atoms: C_27  and  C_28 
ROOT
HETATM    1  C   UNL     1       5.632  29.375  55.362  1.00  0.00     0.116 A 
HETATM    2  N   UNL     1       5.466  28.522  54.337  1.00  0.00    -0.330 N 
HETATM    3  H   UNL     1       4.609  28.602  53.802  1.00  0.00     0.168 HD
HETATM    4  C   UNL     1       6.416  27.641  54.004  1.00  0.00     0.112 A 
HETATM    5  N   UNL     1       7.610  27.578  54.624  1.00  0.00    -0.234 NA
HETATM    6  C   UNL     1       7.828  28.422  55.640  1.00  0.00     0.072 A 
HETATM    7  C   UNL     1       9.051  28.371  56.292  1.00  0.00     0.033 A 
HETATM    8  C   UNL     1       9.336  29.192  57.388  1.00  0.00     0.014 A 
HETATM    9  C   UNL     1       8.381  30.085  57.873  1.00  0.00    -0.022 A 
HETATM   10  C   UNL     1       7.147  30.147  57.211  1.00  0.00     0.030 A 
HETATM   11  C   UNL     1       6.860  29.340  56.078  1.00  0.00     0.037 A 
ENDROOT
BRANCH   4  12
HETATM   12  C   UNL     1       6.193  26.673  52.868  1.00  0.00     0.091 C 
HETATM   13  C   UNL     1       5.166  27.188  51.856  1.00  0.00     0.245 C 
HETATM   14  N   UNL     1       4.681  25.955  51.157  1.00  0.00    -0.074 N 
HETATM   15  H   UNL     1       3.699  26.062  50.850  1.00  0.00     0.277 HD
HETATM   16  H   UNL     1       5.209  25.770  50.288  1.00  0.00     0.277 HD
HETATM   17  C   UNL     1       4.815  24.794  52.104  1.00  0.00     0.242 C 
HETATM   18  C   UNL     1       5.554  25.352  53.335  1.00  0.00     0.057 C 
BRANCH  18  19
HETATM   19  C   UNL     1       6.572  24.404  53.923  1.00  0.00    -0.052 A 
HETATM   20  C   UNL     1       6.711  24.225  55.309  1.00  0.00     0.007 A 
HETATM   21  C   UNL     1       7.676  23.356  55.820  1.00  0.00     0.001 A 
HETATM   22  C   UNL     1       8.508  22.650  54.955  1.00  0.00     0.000 A 
HETATM   23  C   UNL     1       8.375  22.809  53.579  1.00  0.00     0.001 A 
HETATM   24  C   UNL     1       7.413  23.679  53.064  1.00  0.00     0.007 A 
ENDBRANCH  18  19
ENDBRANCH   4  12
BRANCH   1  25
HETATM   25  N   UNL     1       4.602  30.246  55.686  1.00  0.00    -0.375 N 
HETATM   26  C   UNL     1       3.504  29.789  56.537  1.00  0.00     0.150 C 
HETATM   27  C   UNL     1       4.213  31.182  54.622  1.00  0.00     0.150 C 
ENDBRANCH   1  25
BRANCH   9  28
HETATM   28  C   UNL     1       8.646  30.935  59.023  1.00  0.00     0.010 A 
HETATM   29  C   UNL     1       9.676  31.877  59.261  1.00  0.00     0.152 A 
HETATM   30  N   UNL     1       9.570  32.474  60.448  1.00  0.00    -0.187 NA
HETATM   31  N   UNL     1       8.475  31.920  60.988  1.00  0.00    -0.289 N 
HETATM   32  H   UNL     1       8.187  32.223  61.915  1.00  0.00     0.188 HD
HETATM   33  C   UNL     1       7.883  30.996  60.172  1.00  0.00     0.123 A 
ENDBRANCH   9  28
TORSDOF 4
ENDMDL
MODEL 3
REMARK VINA RESULT:      -9.6      2.721      5.594
REMARK  4 active torsions:
REMARK  status: ('A' for Active; 'I' for Inactive)
REMARK    1  A    between atoms: N_2  and  C_4 
REMARK    2  A    between atoms: C_7  and  C_21 
REMARK    3  A    between atoms: C_12  and  C_15 
REMARK    4  A    between atoms: C_27  and  C_28 
ROOT
HETATM    1  C   UNL     1       6.229  26.148  55.178  1.00  0.00     0.116 A 
HETATM    2  N   UNL     1       5.744  27.290  54.662  1.00  0.00    -0.330 N 
HETATM    3  H   UNL     1       5.397  27.983  55.315  1.00  0.00     0.168 HD
HETATM    4  C   UNL     1       5.772  27.524  53.345  1.00  0.00     0.112 A 
HETATM    5  N   UNL     1       6.323  26.674  52.458  1.00  0.00    -0.234 NA
HETATM    6  C   UNL     1       6.835  25.530  52.929  1.00  0.00     0.072 A 
HETATM    7  C   UNL     1       7.406  24.641  52.031  1.00  0.00     0.033 A 
HETATM    8  C   UNL     1       7.923  23.408  52.444  1.00  0.00     0.014 A 
HETATM    9  C   UNL     1       7.864  23.027  53.784  1.00  0.00    -0.022 A 
HETATM   10  C   UNL     1       7.298  23.927  54.697  1.00  0.00     0.030 A 
HETATM   11  C   UNL     1       6.798  25.194  54.292  1.00  0.00     0.037 A 
ENDROOT
BRANCH   4  12
HETATM   12  C   UNL     1       5.194  28.802  52.787  1.00  0.00     0.091 C 
HETATM   13  C   UNL     1       4.590  29.694  53.875  1.00  0.00     0.245 C 
HETATM   14  N   UNL     1       3.631  30.580  53.140  1.00  0.00    -0.074 N 
HETATM   15  H   UNL     1       2.834  30.846  53.742  1.00  0.00     0.277 HD
HETATM   16  H   UNL     1       4.066  31.478  52.869  1.00  0.00     0.277 HD
HETATM   17  C   UNL     1       3.151  29.844  51.920  1.00  0.00     0.242 C 
HETATM   18  C   UNL     1       3.987  28.551  51.865  1.00  0.00     0.057 C 
BRANCH  18  19
HETATM   19  C   UNL     1       4.408  28.150  50.471  1.00  0.00    -0.052 A 
HETATM   20  C   UNL     1       4.060  26.908  49.916  1.00  0.00     0.007 A 
HETATM   21  C   UNL     1       4.483  26.561  48.632  1.00  0.00     0.001 A 
HETATM   22  C   UNL     1       5.252  27.450  47.885  1.00  0.00     0.000 A 
HETATM   23  C   UNL     1       5.595  28.688  48.418  1.00  0.00     0.001 A 
HETATM   24  C   UNL     1       5.176  29.039  49.703  1.00  0.00     0.007 A 
ENDBRANCH  18  19
ENDBRANCH   4  12
BRANCH   1  25
HETATM   25  N   UNL     1       6.146  25.941  56.548  1.00  0.00    -0.375 N 
HETATM   26  C   UNL     1       4.904  25.438  57.134  1.00  0.00     0.150 C 
HETATM   27  C   UNL     1       6.872  26.916  57.376  1.00  0.00     0.150 C 
ENDBRANCH   1  25
BRANCH   9  28
HETATM   28  C   UNL     1       8.378  21.743  54.234  1.00  0.00     0.010 A 
HETATM   29  C   UNL     1       8.418  20.483  53.589  1.00  0.00     0.152 A 
HETATM   30  N   UNL     1       8.987  19.535  54.333  1.00  0.00    -0.187 NA
HETATM   31  N   UNL     1       9.317  20.173  55.466  1.00  0.00    -0.289 N 
HETATM   32  H   UNL     1       9.774  19.644  56.204  1.00  0.00     0.188 HD
HETATM   33  C   UNL     1       8.977  21.498  55.454  1.00  0.00     0.123 A 
ENDBRANCH   9  28
TORSDOF 4
ENDMDL
MODEL 4
REMARK VINA RESULT:      -9.3      2.815      7.229
REMARK  4 active torsions:
REMARK  status: ('A' for Active; 'I' for Inactive)
REMARK    1  A    between atoms: N_2  and  C_4 
REMARK    2  A    between atoms: C_7  and  C_21 
REMARK    3  A    between atoms: C_12  and  C_15 
REMARK    4  A    between atoms: C_27  and  C_28 
ROOT
HETATM    1  C   UNL     1       5.507  27.780  54.447  1.00  0.00     0.116 A 
HETATM    2  N   UNL     1       6.003  26.989  55.413  1.00  0.00    -0.330 N 
HETATM    3  H   UNL     1       6.074  27.384  56.344  1.00  0.00     0.168 HD
HETATM    4  C   UNL     1       6.335  25.716  55.167  1.00  0.00     0.112 A 
HETATM    5  N   UNL     1       6.153  25.127  53.971  1.00  0.00    -0.234 NA
HETATM    6  C   UNL     1       5.645  25.872  52.982  1.00  0.00     0.072 A 
HETATM    7  C   UNL     1       5.451  25.282  51.742  1.00  0.00     0.033 A 
HETATM    8  C   UNL     1       4.963  26.009  50.649  1.00  0.00     0.014 A 
HETATM    9  C   UNL     1       4.669  27.366  50.774  1.00  0.00    -0.022 A 
HETATM   10  C   UNL     1       4.853  27.963  52.028  1.00  0.00     0.030 A 
HETATM   11  C   UNL     1       5.318  27.227  53.151  1.00  0.00     0.037 A 
ENDROOT
BRANCH   4  12
HETATM   12  C   UNL     1       6.918  24.857  56.263  1.00  0.00     0.091 C 
HETATM   13  C   UNL     1       7.261  25.665  57.518  1.00  0.00     0.245 C 
HETATM   14  N   UNL     1       8.275  24.826  58.234  1.00  0.00    -0.074 N 
HETATM   15  H   UNL     1       8.935  25.415  58.770  1.00  0.00     0.277 HD
HETATM   16  H   UNL     1       7.838  24.212  58.942  1.00  0.00     0.277 HD
HETATM   17  C   UNL     1       9.010  24.002  57.213  1.00  0.00     0.242 C 
HETATM   18  C   UNL     1       8.283  24.257  55.880  1.00  0.00     0.057 C 
BRANCH  18  19
HETATM   19  C   UNL     1       8.141  23.029  55.011  1.00  0.00    -0.052 A 
HETATM   20  C   UNL     1       8.352  23.069  53.623  1.00  0.00     0.007 A 
HETATM   21  C   UNL     1       8.193  21.919  52.848  1.00  0.00     0.001 A 
HETATM   22  C   UNL     1       7.829  20.717  53.447  1.00  0.00     0.000 A 
HETATM   23  C   UNL     1       7.627  20.660  54.823  1.00  0.00     0.001 A 
HETATM   24  C   UNL     1       7.782  21.807  55.602  1.00  0.00     0.007 A 
ENDBRANCH  18  19
ENDBRANCH   4  12
BRANCH   1  25
HETATM   25  N   UNL     1       5.210  29.103  54.746  1.00  0.00    -0.375 N 
HETATM   26  C   UNL     1       6.084  29.861  55.640  1.00  0.00     0.150 C 
HETATM   27  C   UNL     1       3.778  29.411  54.872  1.00  0.00     0.150 C 
ENDBRANCH   1  25
BRANCH   9  28
HETATM   28  C   UNL     1       4.179  28.145  49.649  1.00  0.00     0.010 A 
HETATM   29  C   UNL     1       3.087  29.041  49.546  1.00  0.00     0.152 A 
HETATM   30  N   UNL     1       2.967  29.578  48.333  1.00  0.00    -0.187 NA
HETATM   31  N   UNL     1       3.977  29.032  47.640  1.00  0.00    -0.289 N 
HETATM   32  H   UNL     1       4.092  29.295  46.665  1.00  0.00     0.188 HD
HETATM   33  C   UNL     1       4.735  28.171  48.385  1.00  0.00     0.123 A 
ENDBRANCH   9  28
TORSDOF 4
ENDMDL
MODEL 5
REMARK VINA RESULT:      -9.3      6.129      9.673
REMARK  4 active torsions:
REMARK  status: ('A' for Active; 'I' for Inactive)
REMARK    1  A    between atoms: N_2  and  C_4 
REMARK    2  A    between atoms: C_7  and  C_21 
REMARK    3  A    between atoms: C_12  and  C_15 
REMARK    4  A    between atoms: C_27  and  C_28 
ROOT
HETATM    1  C   UNL     1       5.647  32.883  60.766  1.00  0.00     0.116 A 
HETATM    2  N   UNL     1       5.241  33.518  61.877  1.00  0.00    -0.330 N 
HETATM    3  H   UNL     1       4.269  33.804  61.919  1.00  0.00     0.168 HD
HETATM    4  C   UNL     1       6.070  33.715  62.909  1.00  0.00     0.112 A 
HETATM    5  N   UNL     1       7.335  33.254  62.933  1.00  0.00    -0.234 NA
HETATM    6  C   UNL     1       7.779  32.599  61.853  1.00  0.00     0.072 A 
HETATM    7  C   UNL     1       9.079  32.119  61.858  1.00  0.00     0.033 A 
HETATM    8  C   UNL     1       9.626  31.461  60.750  1.00  0.00     0.014 A 
HETATM    9  C   UNL     1       8.874  31.282  59.590  1.00  0.00    -0.022 A 
HETATM   10  C   UNL     1       7.556  31.757  59.583  1.00  0.00     0.030 A 
HETATM   11  C   UNL     1       6.982  32.398  60.714  1.00  0.00     0.037 A 
ENDROOT
BRANCH   4  12
HETATM   12  C   UNL     1       5.598  34.457  64.135  1.00  0.00     0.091 C 
HETATM   13  C   UNL     1       4.798  33.564  65.087  1.00  0.00     0.245 C 
HETATM   14  N   UNL     1       3.986  34.522  65.903  1.00  0.00    -0.074 N 
HETATM   15  H   UNL     1       3.089  34.097  66.194  1.00  0.00     0.277 HD
HETATM   16  H   UNL     1       4.457  34.772  66.788  1.00  0.00     0.277 HD
HETATM   17  C   UNL     1       3.742  35.755  65.076  1.00  0.00     0.242 C 
HETATM   18  C   UNL     1       4.582  35.565  63.799  1.00  0.00     0.057 C 
BRANCH  18  19
HETATM   19  C   UNL     1       5.256  36.826  63.312  1.00  0.00    -0.052 A 
HETATM   20  C   UNL     1       5.476  37.075  61.947  1.00  0.00     0.007 A 
HETATM   21  C   UNL     1       6.119  38.242  61.532  1.00  0.00     0.001 A 
HETATM   22  C   UNL     1       6.544  39.177  62.472  1.00  0.00     0.000 A 
HETATM   23  C   UNL     1       6.324  38.949  63.827  1.00  0.00     0.001 A 
HETATM   24  C   UNL     1       5.683  37.782  64.246  1.00  0.00     0.007 A 
ENDBRANCH  18  19
ENDBRANCH   4  12
BRANCH   1  25
HETATM   25  N   UNL     1       4.756  32.735  59.712  1.00  0.00    -0.375 N 
HETATM   26  C   UNL     1       4.591  33.815  58.740  1.00  0.00     0.150 C 
HETATM   27  C   UNL     1       3.526  31.994  60.029  1.00  0.00     0.150 C 
ENDBRANCH   1  25
BRANCH   9  28
HETATM   28  C   UNL     1       9.427  30.619  58.419  1.00  0.00     0.010 A 
HETATM   29  C   UNL     1      10.604  30.878  57.676  1.00  0.00     0.152 A 
HETATM   30  N   UNL     1      10.776  30.031  56.662  1.00  0.00    -0.187 NA
HETATM   31  N   UNL     1       9.710  29.220  56.738  1.00  0.00    -0.289 N 
HETATM   32  H   UNL     1       9.618  28.476  56.052  1.00  0.00     0.188 HD
HETATM   33  C   UNL     1       8.875  29.528  57.777  1.00  0.00     0.123 A 
ENDBRANCH   9  28
TORSDOF 4
ENDMDL
MODEL 6
REMARK VINA RESULT:      -9.2      2.675      8.202
REMARK  4 active torsions:
REMARK  status: ('A' for Active; 'I' for Inactive)
REMARK    1  A    between atoms: N_2  and  C_4 
REMARK    2  A    between atoms: C_7  and  C_21 
REMARK    3  A    between atoms: C_12  and  C_15 
REMARK    4  A    between atoms: C_27  and  C_28 
ROOT
HETATM    1  C   UNL     1       7.394  28.785  55.557  1.00  0.00     0.116 A 
HETATM    2  N   UNL     1       7.299  27.943  54.514  1.00  0.00    -0.330 N 
HETATM    3  H   UNL     1       8.157  27.515  54.185  1.00  0.00     0.168 HD
HETATM    4  C   UNL     1       6.114  27.640  53.971  1.00  0.00     0.112 A 
HETATM    5  N   UNL     1       4.945  28.105  54.450  1.00  0.00    -0.234 NA
HETATM    6  C   UNL     1       4.990  28.935  55.500  1.00  0.00     0.072 A 
HETATM    7  C   UNL     1       3.796  29.425  56.007  1.00  0.00     0.033 A 
HETATM    8  C   UNL     1       3.765  30.328  57.076  1.00  0.00     0.014 A 
HETATM    9  C   UNL     1       4.949  30.778  57.658  1.00  0.00    -0.022 A 
HETATM   10  C   UNL     1       6.158  30.277  57.156  1.00  0.00     0.030 A 
HETATM   11  C   UNL     1       6.198  29.336  56.092  1.00  0.00     0.037 A 
ENDROOT
BRANCH   4  12
HETATM   12  C   UNL     1       6.037  26.715  52.781  1.00  0.00     0.091 C 
HETATM   13  C   UNL     1       5.044  27.203  51.724  1.00  0.00     0.245 C 
HETATM   14  N   UNL     1       4.698  25.973  50.942  1.00  0.00    -0.074 N 
HETATM   15  H   UNL     1       3.733  26.025  50.572  1.00  0.00     0.277 HD
HETATM   16  H   UNL     1       5.294  25.868  50.103  1.00  0.00     0.277 HD
HETATM   17  C   UNL     1       4.855  24.781  51.845  1.00  0.00     0.242 C 
HETATM   18  C   UNL     1       5.469  25.331  53.146  1.00  0.00     0.057 C 
BRANCH  18  19
HETATM   19  C   UNL     1       6.514  24.431  53.762  1.00  0.00    -0.052 A 
HETATM   20  C   UNL     1       6.659  24.300  55.153  1.00  0.00     0.007 A 
HETATM   21  C   UNL     1       7.649  23.473  55.689  1.00  0.00     0.001 A 
HETATM   22  C   UNL     1       8.499  22.764  54.845  1.00  0.00     0.000 A 
HETATM   23  C   UNL     1       8.360  22.876  53.465  1.00  0.00     0.001 A 
HETATM   24  C   UNL     1       7.374  23.703  52.925  1.00  0.00     0.007 A 
ENDBRANCH  18  19
ENDBRANCH   4  12
BRANCH   1  25
HETATM   25  N   UNL     1       8.650  29.092  56.062  1.00  0.00    -0.375 N 
HETATM   26  C   UNL     1       9.745  29.409  55.146  1.00  0.00     0.150 C 
HETATM   27  C   UNL     1       9.044  28.341  57.262  1.00  0.00     0.150 C 
ENDBRANCH   1  25
BRANCH   9  28
HETATM   28  C   UNL     1       4.944  31.731  58.756  1.00  0.00     0.010 A 
HETATM   29  C   UNL     1       6.010  32.308  59.489  1.00  0.00     0.152 A 
HETATM   30  N   UNL     1       5.596  33.160  60.426  1.00  0.00    -0.187 NA
HETATM   31  N   UNL     1       4.260  33.138  60.311  1.00  0.00    -0.289 N 
HETATM   32  H   UNL     1       3.711  33.721  60.936  1.00  0.00     0.188 HD
HETATM   33  C   UNL     1       3.820  32.301  59.322  1.00  0.00     0.123 A 
ENDBRANCH   9  28
TORSDOF 4
ENDMDL
MODEL 7
REMARK VINA RESULT:      -8.9      1.684      3.278
REMARK  4 active torsions:
REMARK  status: ('A' for Active; 'I' for Inactive)
REMARK    1  A    between atoms: N_2  and  C_4 
REMARK    2  A    between atoms: C_7  and  C_21 
REMARK    3  A    between atoms: C_12  and  C_15 
REMARK    4  A    between atoms: C_27  and  C_28 
ROOT
HETATM    1  C   UNL     1       6.723  26.354  54.557  1.00  0.00     0.116 A 
HETATM    2  N   UNL     1       6.595  27.589  55.069  1.00  0.00    -0.330 N 
HETATM    3  H   UNL     1       6.055  28.259  54.533  1.00  0.00     0.168 HD
HETATM    4  C   UNL     1       7.113  27.905  56.262  1.00  0.00     0.112 A 
HETATM    5  N   UNL     1       7.743  27.013  57.049  1.00  0.00    -0.234 NA
HETATM    6  C   UNL     1       7.878  25.764  56.588  1.00  0.00     0.072 A 
HETATM    7  C   UNL     1       8.525  24.831  57.384  1.00  0.00     0.033 A 
HETATM    8  C   UNL     1       8.740  23.517  56.953  1.00  0.00     0.014 A 
HETATM    9  C   UNL     1       8.320  23.108  55.688  1.00  0.00    -0.022 A 
HETATM   10  C   UNL     1       7.656  24.044  54.884  1.00  0.00     0.030 A 
HETATM   11  C   UNL     1       7.405  25.371  55.326  1.00  0.00     0.037 A 
ENDROOT
BRANCH   4  12
HETATM   12  C   UNL     1       6.981  29.309  56.801  1.00  0.00     0.091 C 
HETATM   13  C   UNL     1       7.612  29.464  58.187  1.00  0.00     0.245 C 
HETATM   14  N   UNL     1       6.942  30.671  58.768  1.00  0.00    -0.074 N 
HETATM   15  H   UNL     1       6.875  30.601  59.798  1.00  0.00     0.277 HD
HETATM   16  H   UNL     1       7.486  31.534  58.599  1.00  0.00     0.277 HD
HETATM   17  C   UNL     1       5.574  30.790  58.156  1.00  0.00     0.242 C 
HETATM   18  C   UNL     1       5.517  29.705  57.064  1.00  0.00     0.057 C 
BRANCH  18  19
HETATM   19  C   UNL     1       4.808  30.138  55.803  1.00  0.00    -0.052 A 
HETATM   20  C   UNL     1       4.122  29.227  54.983  1.00  0.00     0.007 A 
HETATM   21  C   UNL     1       3.494  29.658  53.813  1.00  0.00     0.001 A 
HETATM   22  C   UNL     1       3.538  31.001  53.450  1.00  0.00     0.000 A 
HETATM   23  C   UNL     1       4.205  31.917  54.258  1.00  0.00     0.001 A 
HETATM   24  C   UNL     1       4.836  31.490  55.428  1.00  0.00     0.007 A 
ENDBRANCH  18  19
ENDBRANCH   4  12
BRANCH   1  25
HETATM   25  N   UNL     1       6.196  26.088  53.301  1.00  0.00    -0.375 N 
HETATM   26  C   UNL     1       6.244  27.114  52.260  1.00  0.00     0.150 C 
HETATM   27  C   UNL     1       4.988  25.251  53.291  1.00  0.00     0.150 C 
ENDBRANCH   1  25
BRANCH   9  28
HETATM   28  C   UNL     1       8.549  21.754  55.210  1.00  0.00     0.010 A 
HETATM   29  C   UNL     1       8.415  21.192  53.917  1.00  0.00     0.152 A 
HETATM   30  N   UNL     1       8.735  19.899  53.876  1.00  0.00    -0.187 NA
HETATM   31  N   UNL     1       9.075  19.613  55.142  1.00  0.00    -0.289 N 
HETATM   32  H   UNL     1       9.362  18.664  55.363  1.00  0.00     0.188 HD
HETATM   33  C   UNL     1       8.985  20.692  55.978  1.00  0.00     0.123 A 
ENDBRANCH   9  28
TORSDOF 4
ENDMDL
MODEL 8
REMARK VINA RESULT:      -8.9      1.560      2.311
REMARK  4 active torsions:
REMARK  status: ('A' for Active; 'I' for Inactive)
REMARK    1  A    between atoms: N_2  and  C_4 
REMARK    2  A    between atoms: C_7  and  C_21 
REMARK    3  A    between atoms: C_12  and  C_15 
REMARK    4  A    between atoms: C_27  and  C_28 
ROOT
HETATM    1  C   UNL     1       5.174  27.846  54.685  1.00  0.00     0.116 A 
HETATM    2  N   UNL     1       4.840  28.911  55.432  1.00  0.00    -0.330 N 
HETATM    3  H   UNL     1       4.339  29.662  54.971  1.00  0.00     0.168 HD
HETATM    4  C   UNL     1       5.107  28.952  56.743  1.00  0.00     0.112 A 
HETATM    5  N   UNL     1       5.672  27.929  57.411  1.00  0.00    -0.234 NA
HETATM    6  C   UNL     1       6.007  26.839  56.710  1.00  0.00     0.072 A 
HETATM    7  C   UNL     1       6.593  25.776  57.380  1.00  0.00     0.033 A 
HETATM    8  C   UNL     1       7.007  24.620  56.708  1.00  0.00     0.014 A 
HETATM    9  C   UNL     1       6.856  24.510  55.326  1.00  0.00    -0.022 A 
HETATM   10  C   UNL     1       6.255  25.579  54.646  1.00  0.00     0.030 A 
HETATM   11  C   UNL     1       5.803  26.742  55.324  1.00  0.00     0.037 A 
ENDROOT
BRANCH   4  12
HETATM   12  C   UNL     1       4.747  30.173  57.554  1.00  0.00     0.091 C 
HETATM   13  C   UNL     1       3.460  30.842  57.064  1.00  0.00     0.245 C 
HETATM   14  N   UNL     1       3.553  32.248  57.574  1.00  0.00    -0.074 N 
HETATM   15  H   UNL     1       3.070  32.907  56.941  1.00  0.00     0.277 HD
HETATM   16  H   UNL     1       3.077  32.361  58.484  1.00  0.00     0.277 HD
HETATM   17  C   UNL     1       5.008  32.607  57.700  1.00  0.00     0.242 C 
HETATM   18  C   UNL     1       5.779  31.306  57.406  1.00  0.00     0.057 C 
BRANCH  18  19
HETATM   19  C   UNL     1       6.988  31.094  58.286  1.00  0.00    -0.052 A 
HETATM   20  C   UNL     1       8.111  30.372  57.850  1.00  0.00     0.007 A 
HETATM   21  C   UNL     1       9.203  30.178  58.697  1.00  0.00     0.001 A 
HETATM   22  C   UNL     1       9.192  30.707  59.985  1.00  0.00     0.000 A 
HETATM   23  C   UNL     1       8.090  31.434  60.427  1.00  0.00     0.001 A 
HETATM   24  C   UNL     1       6.995  31.628  59.585  1.00  0.00     0.007 A 
ENDBRANCH  18  19
ENDBRANCH   4  12
BRANCH   1  25
HETATM   25  N   UNL     1       4.904  27.867  53.324  1.00  0.00    -0.375 N 
HETATM   26  C   UNL     1       5.898  28.400  52.393  1.00  0.00     0.150 C 
HETATM   27  C   UNL     1       3.507  28.148  52.965  1.00  0.00     0.150 C 
ENDBRANCH   1  25
BRANCH   9  28
HETATM   28  C   UNL     1       7.296  23.328  54.603  1.00  0.00     0.010 A 
HETATM   29  C   UNL     1       7.664  22.041  55.066  1.00  0.00     0.152 A 
HETATM   30  N   UNL     1       8.002  21.211  54.081  1.00  0.00    -0.187 NA
HETATM   31  N   UNL     1       7.861  21.954  52.973  1.00  0.00    -0.289 N 
HETATM   32  H   UNL     1       8.068  21.527  52.075  1.00  0.00     0.188 HD
HETATM   33  C   UNL     1       7.435  23.228  53.233  1.00  0.00     0.123 A 
ENDBRANCH   9  28
TORSDOF 4
ENDMDL
MODEL 9
REMARK VINA RESULT:      -8.3      4.910      8.771
REMARK  4 active torsions:
REMARK  status: ('A' for Active; 'I' for Inactive)
REMARK    1  A    between atoms: N_2  and  C_4 
REMARK    2  A    between atoms: C_7  and  C_21 
REMARK    3  A    between atoms: C_12  and  C_15 
REMARK    4  A    between atoms: C_27  and  C_28 
ROOT
HETATM    1  C   UNL     1       3.821  28.007  49.734  1.00  0.00     0.116 A 
HETATM    2  N   UNL     1       3.817  27.529  50.989  1.00  0.00    -0.330 N 
HETATM    3  H   UNL     1       3.431  26.602  51.131  1.00  0.00     0.168 HD
HETATM    4  C   UNL     1       4.351  28.224  52.000  1.00  0.00     0.112 A 
HETATM    5  N   UNL     1       4.969  29.409  51.832  1.00  0.00    -0.234 NA
HETATM    6  C   UNL     1       5.013  29.917  50.594  1.00  0.00     0.072 A 
HETATM    7  C   UNL     1       5.643  31.137  50.402  1.00  0.00     0.033 A 
HETATM    8  C   UNL     1       5.692  31.750  49.145  1.00  0.00     0.014 A 
HETATM    9  C   UNL     1       5.089  31.152  48.040  1.00  0.00    -0.022 A 
HETATM   10  C   UNL     1       4.460  29.913  48.228  1.00  0.00     0.030 A 
HETATM   11  C   UNL     1       4.432  29.269  49.493  1.00  0.00     0.037 A 
ENDROOT
BRANCH   4  12
HETATM   12  C   UNL     1       4.308  27.678  53.407  1.00  0.00     0.091 C 
HETATM   13  C   UNL     1       3.672  28.659  54.395  1.00  0.00     0.245 C 
HETATM   14  N   UNL     1       4.188  28.226  55.733  1.00  0.00    -0.074 N 
HETATM   15  H   UNL     1       4.270  29.029  56.379  1.00  0.00     0.277 HD
HETATM   16  H   UNL     1       3.537  27.576  56.206  1.00  0.00     0.277 HD
HETATM   17  C   UNL     1       5.525  27.569  55.532  1.00  0.00     0.242 C 
HETATM   18  C   UNL     1       5.711  27.477  54.005  1.00  0.00     0.057 C 
BRANCH  18  19
HETATM   19  C   UNL     1       6.350  26.190  53.540  1.00  0.00    -0.052 A 
HETATM   20  C   UNL     1       7.114  26.119  52.363  1.00  0.00     0.007 A 
HETATM   21  C   UNL     1       7.674  24.908  51.952  1.00  0.00     0.001 A 
HETATM   22  C   UNL     1       7.485  23.757  52.711  1.00  0.00     0.000 A 
HETATM   23  C   UNL     1       6.739  23.814  53.885  1.00  0.00     0.001 A 
HETATM   24  C   UNL     1       6.176  25.022  54.299  1.00  0.00     0.007 A 
ENDBRANCH  18  19
ENDBRANCH   4  12
BRANCH   1  25
HETATM   25  N   UNL     1       3.225  27.260  48.728  1.00  0.00    -0.375 N 
HETATM   26  C   UNL     1       1.796  27.416  48.456  1.00  0.00     0.150 C 
HETATM   27  C   UNL     1       3.740  25.893  48.571  1.00  0.00     0.150 C 
ENDBRANCH   1  25
BRANCH   9  28
HETATM   28  C   UNL     1       5.110  31.778  46.728  1.00  0.00     0.010 A 
HETATM   29  C   UNL     1       5.568  33.053  46.316  1.00  0.00     0.152 A 
HETATM   30  N   UNL     1       5.429  33.259  45.007  1.00  0.00    -0.187 NA
HETATM   31  N   UNL     1       4.876  32.121  44.562  1.00  0.00    -0.289 N 
HETATM   32  H   UNL     1       4.670  32.039  43.570  1.00  0.00     0.188 HD
HETATM   33  C   UNL     1       4.670  31.201  45.553  1.00  0.00     0.123 A 
ENDBRANCH   9  28
TORSDOF 4
ENDMDL
MODEL 10
REMARK VINA RESULT:      -8.3      4.410      8.000
REMARK  4 active torsions:
REMARK  status: ('A' for Active; 'I' for Inactive)
REMARK    1  A    between atoms: N_2  and  C_4 
REMARK    2  A    between atoms: C_7  and  C_21 
REMARK    3  A    between atoms: C_12  and  C_15 
REMARK    4  A    between atoms: C_27  and  C_28 
ROOT
HETATM    1  C   UNL     1       4.594  28.585  51.106  1.00  0.00     0.116 A 
HETATM    2  N   UNL     1       5.525  28.022  51.894  1.00  0.00    -0.330 N 
HETATM    3  H   UNL     1       5.858  28.568  52.681  1.00  0.00     0.168 HD
HETATM    4  C   UNL     1       5.954  26.772  51.681  1.00  0.00     0.112 A 
HETATM    5  N   UNL     1       5.457  25.980  50.712  1.00  0.00    -0.234 NA
HETATM    6  C   UNL     1       4.514  26.492  49.913  1.00  0.00     0.072 A 
HETATM    7  C   UNL     1       3.991  25.692  48.908  1.00  0.00     0.033 A 
HETATM    8  C   UNL     1       3.033  26.172  48.008  1.00  0.00     0.014 A 
HETATM    9  C   UNL     1       2.583  27.489  48.087  1.00  0.00    -0.022 A 
HETATM   10  C   UNL     1       3.100  28.298  49.107  1.00  0.00     0.030 A 
HETATM   11  C   UNL     1       4.050  27.811  50.044  1.00  0.00     0.037 A 
ENDROOT
BRANCH   4  12
HETATM   12  C   UNL     1       7.022  26.173  52.563  1.00  0.00     0.091 C 
HETATM   13  C   UNL     1       7.556  24.847  52.015  1.00  0.00     0.245 C 
HETATM   14  N   UNL     1       8.150  24.163  53.209  1.00  0.00    -0.074 N 
HETATM   15  H   UNL     1       8.081  23.135  53.123  1.00  0.00     0.277 HD
HETATM   16  H   UNL     1       9.162  24.352  53.299  1.00  0.00     0.277 HD
HETATM   17  C   UNL     1       7.421  24.641  54.435  1.00  0.00     0.242 C 
HETATM   18  C   UNL     1       6.484  25.761  53.945  1.00  0.00     0.057 C 
BRANCH  18  19
HETATM   19  C   UNL     1       6.381  26.935  54.890  1.00  0.00    -0.052 A 
HETATM   20  C   UNL     1       7.409  27.884  55.015  1.00  0.00     0.007 A 
HETATM   21  C   UNL     1       7.290  28.946  55.912  1.00  0.00     0.001 A 
HETATM   22  C   UNL     1       6.143  29.078  56.690  1.00  0.00     0.000 A 
HETATM   23  C   UNL     1       5.111  28.152  56.569  1.00  0.00     0.001 A 
HETATM   24  C   UNL     1       5.227  27.087  55.674  1.00  0.00     0.007 A 
ENDBRANCH  18  19
ENDBRANCH   4  12
BRANCH   1  25
HETATM   25  N   UNL     1       4.209  29.895  51.350  1.00  0.00    -0.375 N 
HETATM   26  C   UNL     1       5.026  31.000  50.848  1.00  0.00     0.150 C 
HETATM   27  C   UNL     1       3.584  30.132  52.660  1.00  0.00     0.150 C 
ENDBRANCH   1  25
BRANCH   9  28
HETATM   28  C   UNL     1       1.602  28.015  47.151  1.00  0.00     0.010 A 
HETATM   29  C   UNL     1       0.477  27.405  46.545  1.00  0.00     0.152 A 
HETATM   30  N   UNL     1      -0.194  28.231  45.743  1.00  0.00    -0.187 NA
HETATM   31  N   UNL     1       0.493  29.380  45.820  1.00  0.00    -0.289 N 
HETATM   32  H   UNL     1       0.166  30.176  45.280  1.00  0.00     0.188 HD
HETATM   33  C   UNL     1       1.574  29.304  46.654  1.00  0.00     0.123 A 
ENDBRANCH   9  28
TORSDOF 4
ENDMDL
