MODEL 1
REMARK VINA RESULT:      -9.0      0.000      0.000
REMARK  10 active torsions:
REMARK  status: ('A' for Active; 'I' for Inactive)
REMARK    1  A    between atoms: C_2  and  C_3 
REMARK    2  A    between atoms: C_4  and  O_5 
REMARK    3  A    between atoms: C_6  and  C_7 
REMARK    4  A    between atoms: C_12  and  C_13 
REMARK    5  A    between atoms: N_14  and  N_15 
REMARK       I    between atoms: N_15  and  C_16 
REMARK    6  A    between atoms: C_16  and  C_17 
REMARK    7  A    between atoms: N_20  and  C_21 
REMARK    8  A    between atoms: C_25  and  N_26 
REMARK    9  A    between atoms: C_27  and  C_28 
REMARK   10  A    between atoms: C_28  and  N_29 
ROOT
HETATM    1  N   UNL     1       7.839  28.379  58.687  1.00  0.00    -0.145 NA
HETATM    2  C   UNL     1       7.718  29.752  58.517  1.00  0.00     0.273 C 
HETATM    3  O   UNL     1       8.391  30.529  59.202  1.00  0.00    -0.270 OA
HETATM    4  H   UNL     1       8.595  28.192  59.346  1.00  0.00     0.158 HD
ENDROOT
BRANCH   1   5
HETATM    5  N   UNL     1       7.951  27.573  57.580  1.00  0.00    -0.205 NA
HETATM    6  C   UNL     1       7.369  26.421  57.718  1.00  0.00     0.144 C 
BRANCH   6   7
HETATM    7  C   UNL     1       7.378  25.402  56.650  1.00  0.00    -0.016 A 
HETATM    8  C   UNL     1       7.826  24.107  56.906  1.00  0.00     0.023 A 
HETATM    9  C   UNL     1       7.817  23.126  55.898  1.00  0.00    -0.016 A 
HETATM   10  C   UNL     1       7.372  23.534  54.611  1.00  0.00     0.079 A 
HETATM   11  C   UNL     1       6.950  24.856  54.305  1.00  0.00    -0.016 A 
HETATM   12  C   UNL     1       6.933  25.766  55.378  1.00  0.00     0.023 A 
BRANCH   9  13
HETATM   13  C   UNL     1       8.264  21.674  56.204  1.00  0.00    -0.021 C 
HETATM   14  C   UNL     1       8.437  21.478  57.727  1.00  0.00     0.019 C 
HETATM   15  C   UNL     1       7.245  20.598  55.742  1.00  0.00     0.019 C 
HETATM   16  C   UNL     1       9.586  21.338  55.475  1.00  0.00     0.019 C 
ENDBRANCH   9  13
BRANCH  10  17
HETATM   17  O   UNL     1       7.371  22.573  53.639  1.00  0.00    -0.360 OA
HETATM   18  H   UNL     1       6.847  21.821  53.953  1.00  0.00     0.217 HD
ENDBRANCH  10  17
BRANCH  11  19
HETATM   19  C   UNL     1       6.535  25.330  52.888  1.00  0.00    -0.021 C 
HETATM   20  C   UNL     1       6.449  26.870  52.861  1.00  0.00     0.019 C 
HETATM   21  C   UNL     1       5.190  24.716  52.432  1.00  0.00     0.019 C 
HETATM   22  C   UNL     1       7.555  24.927  51.785  1.00  0.00     0.019 C 
ENDBRANCH  11  19
ENDBRANCH   6   7
ENDBRANCH   1   5
BRANCH   2  23
HETATM   23  C   UNL     1       6.757  30.274  57.541  1.00  0.00     0.170 C 
HETATM   24  N   UNL     1       6.512  29.703  56.327  1.00  0.00    -0.124 NA
HETATM   25  N   UNL     1       5.550  30.377  55.729  1.00  0.00    -0.058 NA
HETATM   26  N   UNL     1       5.084  31.329  56.573  1.00  0.00    -0.191 N 
HETATM   27  C   UNL     1       5.916  31.374  57.700  1.00  0.00     0.101 C 
BRANCH  26  28
HETATM   28  C   UNL     1       3.913  32.074  56.285  1.00  0.00     0.229 A 
HETATM   29  N   UNL     1       2.713  31.494  56.342  1.00  0.00    -0.081 NA
HETATM   30  O   UNL     1       1.832  32.511  55.966  1.00  0.00    -0.103 OA
HETATM   31  N   UNL     1       2.514  33.689  55.693  1.00  0.00    -0.083 NA
HETATM   32  C   UNL     1       3.803  33.418  55.884  1.00  0.00     0.201 A 
BRANCH  32  33
HETATM   33  N   UNL     1       4.799  34.305  55.727  1.00  0.00    -0.379 N 
HETATM   34  H   UNL     1       5.646  34.218  56.282  1.00  0.00     0.158 HD
HETATM   35  H   UNL     1       4.678  35.207  55.272  1.00  0.00     0.158 HD
ENDBRANCH  32  33
ENDBRANCH  26  28
BRANCH  27  36
HETATM   36  C   UNL     1       5.747  32.361  58.798  1.00  0.00     0.295 C 
BRANCH  36  37
HETATM   37  N   UNL     1       5.081  31.844  60.051  1.00  0.00    -0.073 N 
HETATM   38  H   UNL     1       5.234  30.816  60.068  1.00  0.00     0.279 HD
HETATM   39  C   UNL     1       5.657  32.408  61.317  1.00  0.00     0.269 C 
HETATM   40  C   UNL     1       3.589  32.017  60.003  1.00  0.00     0.269 C 
ENDBRANCH  36  37
ENDBRANCH  27  36
ENDBRANCH   2  23
TORSDOF 10
ENDMDL
MODEL 2
REMARK VINA RESULT:      -8.9      1.489      3.722
REMARK  10 active torsions:
REMARK  status: ('A' for Active; 'I' for Inactive)
REMARK    1  A    between atoms: C_2  and  C_3 
REMARK    2  A    between atoms: C_4  and  O_5 
REMARK    3  A    between atoms: C_6  and  C_7 
REMARK    4  A    between atoms: C_12  and  C_13 
REMARK    5  A    between atoms: N_14  and  N_15 
REMARK       I    between atoms: N_15  and  C_16 
REMARK    6  A    between atoms: C_16  and  C_17 
REMARK    7  A    between atoms: N_20  and  C_21 
REMARK    8  A    between atoms: C_25  and  N_26 
REMARK    9  A    between atoms: C_27  and  C_28 
REMARK   10  A    between atoms: C_28  and  N_29 
ROOT
HETATM    1  N   UNL     1       8.337  28.574  58.712  1.00  0.00    -0.145 NA
HETATM    2  C   UNL     1       8.324  29.961  58.629  1.00  0.00     0.273 C 
HETATM    3  O   UNL     1       9.349  30.610  58.856  1.00  0.00    -0.270 OA
HETATM    4  H   UNL     1       9.293  28.260  58.875  1.00  0.00     0.158 HD
ENDROOT
BRANCH   1   5
HETATM    5  N   UNL     1       7.749  27.836  57.712  1.00  0.00    -0.205 NA
HETATM    6  C   UNL     1       8.389  26.742  57.432  1.00  0.00     0.144 C 
BRANCH   6   7
HETATM    7  C   UNL     1       7.932  25.810  56.383  1.00  0.00    -0.016 A 
HETATM    8  C   UNL     1       7.099  26.248  55.355  1.00  0.00     0.023 A 
HETATM    9  C   UNL     1       6.678  25.370  54.341  1.00  0.00    -0.016 A 
HETATM   10  C   UNL     1       7.109  24.020  54.443  1.00  0.00     0.079 A 
HETATM   11  C   UNL     1       7.922  23.530  55.501  1.00  0.00    -0.016 A 
HETATM   12  C   UNL     1       8.349  24.479  56.446  1.00  0.00     0.023 A 
BRANCH   9  13
HETATM   13  C   UNL     1       5.796  25.877  53.172  1.00  0.00    -0.021 C 
HETATM   14  C   UNL     1       6.587  25.828  51.845  1.00  0.00     0.019 C 
HETATM   15  C   UNL     1       4.516  25.029  52.945  1.00  0.00     0.019 C 
HETATM   16  C   UNL     1       5.301  27.318  53.438  1.00  0.00     0.019 C 
ENDBRANCH   9  13
BRANCH  10  17
HETATM   17  O   UNL     1       6.690  23.174  53.454  1.00  0.00    -0.360 OA
HETATM   18  H   UNL     1       7.249  23.316  52.675  1.00  0.00     0.217 HD
ENDBRANCH  10  17
BRANCH  11  19
HETATM   19  C   UNL     1       8.335  22.043  55.664  1.00  0.00    -0.021 C 
HETATM   20  C   UNL     1       8.538  21.722  57.159  1.00  0.00     0.019 C 
HETATM   21  C   UNL     1       9.618  21.698  54.869  1.00  0.00     0.019 C 
HETATM   22  C   UNL     1       7.260  21.049  55.141  1.00  0.00     0.019 C 
ENDBRANCH  11  19
ENDBRANCH   6   7
ENDBRANCH   1   5
BRANCH   2  23
HETATM   23  C   UNL     1       7.073  30.650  58.302  1.00  0.00     0.170 C 
HETATM   24  N   UNL     1       6.293  30.352  57.224  1.00  0.00    -0.124 NA
HETATM   25  N   UNL     1       5.212  31.107  57.262  1.00  0.00    -0.058 NA
HETATM   26  N   UNL     1       5.218  31.832  58.407  1.00  0.00    -0.191 N 
HETATM   27  C   UNL     1       6.454  31.657  59.042  1.00  0.00     0.101 C 
BRANCH  26  28
HETATM   28  C   UNL     1       4.087  32.580  58.821  1.00  0.00     0.229 A 
HETATM   29  N   UNL     1       3.779  33.729  58.217  1.00  0.00    -0.081 NA
HETATM   30  O   UNL     1       2.652  34.179  58.910  1.00  0.00    -0.103 OA
HETATM   31  N   UNL     1       2.296  33.293  59.917  1.00  0.00    -0.083 NA
HETATM   32  C   UNL     1       3.187  32.305  59.867  1.00  0.00     0.201 A 
BRANCH  32  33
HETATM   33  N   UNL     1       3.187  31.237  60.681  1.00  0.00    -0.379 N 
HETATM   34  H   UNL     1       2.632  31.249  61.533  1.00  0.00     0.158 HD
HETATM   35  H   UNL     1       3.894  30.506  60.644  1.00  0.00     0.158 HD
ENDBRANCH  32  33
ENDBRANCH  26  28
BRANCH  27  36
HETATM   36  C   UNL     1       6.839  32.371  60.288  1.00  0.00     0.295 C 
BRANCH  36  37
HETATM   37  N   UNL     1       6.709  31.578  61.567  1.00  0.00    -0.073 N 
HETATM   38  H   UNL     1       6.174  30.718  61.332  1.00  0.00     0.279 HD
HETATM   39  C   UNL     1       8.025  31.149  62.145  1.00  0.00     0.269 C 
HETATM   40  C   UNL     1       5.869  32.296  62.585  1.00  0.00     0.269 C 
ENDBRANCH  36  37
ENDBRANCH  27  36
ENDBRANCH   2  23
TORSDOF 10
ENDMDL
MODEL 3
REMARK VINA RESULT:      -8.9      2.644      4.104
REMARK  10 active torsions:
REMARK  status: ('A' for Active; 'I' for Inactive)
REMARK    1  A    between atoms: C_2  and  C_3 
REMARK    2  A    between atoms: C_4  and  O_5 
REMARK    3  A    between atoms: C_6  and  C_7 
REMARK    4  A    between atoms: C_12  and  C_13 
REMARK    5  A    between atoms: N_14  and  N_15 
REMARK       I    between atoms: N_15  and  C_16 
REMARK    6  A    between atoms: C_16  and  C_17 
REMARK    7  A    between atoms: N_20  and  C_21 
REMARK    8  A    between atoms: C_25  and  N_26 
REMARK    9  A    between atoms: C_27  and  C_28 
REMARK   10  A    between atoms: C_28  and  N_29 
ROOT
HETATM    1  N   UNL     1       8.999  30.066  59.185  1.00  0.00    -0.145 NA
HETATM    2  C   UNL     1       8.713  31.424  59.124  1.00  0.00     0.273 C 
HETATM    3  O   UNL     1       9.617  32.245  58.939  1.00  0.00    -0.270 OA
HETATM    4  H   UNL     1       9.983  29.923  58.962  1.00  0.00     0.158 HD
ENDROOT
BRANCH   1   5
HETATM    5  N   UNL     1       8.211  29.182  58.488  1.00  0.00    -0.205 NA
HETATM    6  C   UNL     1       8.540  29.071  57.237  1.00  0.00     0.144 C 
BRANCH   6   7
HETATM    7  C   UNL     1       7.815  28.182  56.309  1.00  0.00    -0.016 A 
HETATM    8  C   UNL     1       8.126  26.825  56.233  1.00  0.00     0.023 A 
HETATM    9  C   UNL     1       7.424  25.969  55.366  1.00  0.00    -0.016 A 
HETATM   10  C   UNL     1       6.422  26.563  54.552  1.00  0.00     0.079 A 
HETATM   11  C   UNL     1       6.109  27.949  54.573  1.00  0.00    -0.016 A 
HETATM   12  C   UNL     1       6.814  28.731  55.506  1.00  0.00     0.023 A 
BRANCH   9  13
HETATM   13  C   UNL     1       7.739  24.452  55.327  1.00  0.00    -0.021 C 
HETATM   14  C   UNL     1       8.138  24.026  53.897  1.00  0.00     0.019 C 
HETATM   15  C   UNL     1       8.919  24.038  56.247  1.00  0.00     0.019 C 
HETATM   16  C   UNL     1       6.525  23.623  55.806  1.00  0.00     0.019 C 
ENDBRANCH   9  13
BRANCH  10  17
HETATM   17  O   UNL     1       5.749  25.721  53.711  1.00  0.00    -0.360 OA
HETATM   18  H   UNL     1       6.264  24.906  53.618  1.00  0.00     0.217 HD
ENDBRANCH  10  17
BRANCH  11  19
HETATM   19  C   UNL     1       5.071  28.620  53.635  1.00  0.00    -0.021 C 
HETATM   20  C   UNL     1       5.671  28.774  52.223  1.00  0.00     0.019 C 
HETATM   21  C   UNL     1       4.604  29.998  54.166  1.00  0.00     0.019 C 
HETATM   22  C   UNL     1       3.767  27.789  53.472  1.00  0.00     0.019 C 
ENDBRANCH  11  19
ENDBRANCH   6   7
ENDBRANCH   1   5
BRANCH   2  23
HETATM   23  C   UNL     1       7.334  31.878  59.315  1.00  0.00     0.170 C 
HETATM   24  N   UNL     1       6.318  31.632  58.438  1.00  0.00    -0.124 NA
HETATM   25  N   UNL     1       5.199  32.116  58.940  1.00  0.00    -0.058 NA
HETATM   26  N   UNL     1       5.441  32.593  60.186  1.00  0.00    -0.191 N 
HETATM   27  C   UNL     1       6.823  32.568  60.413  1.00  0.00     0.101 C 
BRANCH  26  28
HETATM   28  C   UNL     1       4.390  32.987  61.051  1.00  0.00     0.229 A 
HETATM   29  N   UNL     1       3.791  34.168  60.891  1.00  0.00    -0.081 NA
HETATM   30  O   UNL     1       2.857  34.212  61.929  1.00  0.00    -0.103 OA
HETATM   31  N   UNL     1       2.904  33.055  62.695  1.00  0.00    -0.083 NA
HETATM   32  C   UNL     1       3.856  32.298  62.156  1.00  0.00     0.201 A 
BRANCH  32  33
HETATM   33  N   UNL     1       4.210  31.084  62.606  1.00  0.00    -0.379 N 
HETATM   34  H   UNL     1       4.524  30.372  61.951  1.00  0.00     0.158 HD
HETATM   35  H   UNL     1       3.956  30.733  63.527  1.00  0.00     0.158 HD
ENDBRANCH  32  33
ENDBRANCH  26  28
BRANCH  27  36
HETATM   36  C   UNL     1       7.455  33.097  61.651  1.00  0.00     0.295 C 
BRANCH  36  37
HETATM   37  N   UNL     1       7.440  32.170  62.844  1.00  0.00    -0.073 N 
HETATM   38  H   UNL     1       6.469  31.808  62.927  1.00  0.00     0.279 HD
HETATM   39  C   UNL     1       8.353  30.989  62.700  1.00  0.00     0.269 C 
HETATM   40  C   UNL     1       7.694  32.909  64.127  1.00  0.00     0.269 C 
ENDBRANCH  36  37
ENDBRANCH  27  36
ENDBRANCH   2  23
TORSDOF 10
ENDMDL
MODEL 4
REMARK VINA RESULT:      -8.8      1.612      2.378
REMARK  10 active torsions:
REMARK  status: ('A' for Active; 'I' for Inactive)
REMARK    1  A    between atoms: C_2  and  C_3 
REMARK    2  A    between atoms: C_4  and  O_5 
REMARK    3  A    between atoms: C_6  and  C_7 
REMARK    4  A    between atoms: C_12  and  C_13 
REMARK    5  A    between atoms: N_14  and  N_15 
REMARK       I    between atoms: N_15  and  C_16 
REMARK    6  A    between atoms: C_16  and  C_17 
REMARK    7  A    between atoms: N_20  and  C_21 
REMARK    8  A    between atoms: C_25  and  N_26 
REMARK    9  A    between atoms: C_27  and  C_28 
REMARK   10  A    between atoms: C_28  and  N_29 
ROOT
HETATM    1  N   UNL     1       8.329  28.430  58.473  1.00  0.00    -0.145 NA
HETATM    2  C   UNL     1       8.317  29.819  58.481  1.00  0.00     0.273 C 
HETATM    3  O   UNL     1       9.343  30.451  58.750  1.00  0.00    -0.270 OA
HETATM    4  H   UNL     1       9.285  28.106  58.615  1.00  0.00     0.158 HD
ENDROOT
BRANCH   1   5
HETATM    5  N   UNL     1       7.740  27.760  57.427  1.00  0.00    -0.205 NA
HETATM    6  C   UNL     1       8.296  26.616  57.167  1.00  0.00     0.144 C 
BRANCH   6   7
HETATM    7  C   UNL     1       7.824  25.741  56.077  1.00  0.00    -0.016 A 
HETATM    8  C   UNL     1       8.312  24.442  55.943  1.00  0.00     0.023 A 
HETATM    9  C   UNL     1       7.850  23.598  54.919  1.00  0.00    -0.016 A 
HETATM   10  C   UNL     1       6.901  24.147  54.014  1.00  0.00     0.079 A 
HETATM   11  C   UNL     1       6.416  25.480  54.095  1.00  0.00    -0.016 A 
HETATM   12  C   UNL     1       6.881  26.246  55.179  1.00  0.00     0.023 A 
BRANCH   9  13
HETATM   13  C   UNL     1       8.357  22.137  54.810  1.00  0.00    -0.021 C 
HETATM   14  C   UNL     1       7.483  21.202  55.675  1.00  0.00     0.019 C 
HETATM   15  C   UNL     1       8.303  21.566  53.367  1.00  0.00     0.019 C 
HETATM   16  C   UNL     1       9.836  22.032  55.246  1.00  0.00     0.019 C 
ENDBRANCH   9  13
BRANCH  10  17
HETATM   17  O   UNL     1       6.463  23.318  53.020  1.00  0.00    -0.360 OA
HETATM   18  H   UNL     1       5.794  22.723  53.392  1.00  0.00     0.217 HD
ENDBRANCH  10  17
BRANCH  11  19
HETATM   19  C   UNL     1       5.440  26.114  53.069  1.00  0.00    -0.021 C 
HETATM   20  C   UNL     1       4.252  25.160  52.826  1.00  0.00     0.019 C 
HETATM   21  C   UNL     1       6.134  26.449  51.726  1.00  0.00     0.019 C 
HETATM   22  C   UNL     1       4.832  27.461  53.555  1.00  0.00     0.019 C 
ENDBRANCH  11  19
ENDBRANCH   6   7
ENDBRANCH   1   5
BRANCH   2  23
HETATM   23  C   UNL     1       7.066  30.529  58.201  1.00  0.00     0.170 C 
HETATM   24  N   UNL     1       6.249  30.253  57.144  1.00  0.00    -0.124 NA
HETATM   25  N   UNL     1       5.181  31.023  57.223  1.00  0.00    -0.058 NA
HETATM   26  N   UNL     1       5.232  31.737  58.374  1.00  0.00    -0.191 N 
HETATM   27  C   UNL     1       6.485  31.538  58.969  1.00  0.00     0.101 C 
BRANCH  26  28
HETATM   28  C   UNL     1       4.126  32.496  58.831  1.00  0.00     0.229 A 
HETATM   29  N   UNL     1       3.893  33.714  58.338  1.00  0.00    -0.081 NA
HETATM   30  O   UNL     1       2.768  34.149  59.042  1.00  0.00    -0.103 OA
HETATM   31  N   UNL     1       2.338  33.187  59.945  1.00  0.00    -0.083 NA
HETATM   32  C   UNL     1       3.181  32.165  59.819  1.00  0.00     0.201 A 
BRANCH  32  33
HETATM   33  N   UNL     1       3.104  31.023  60.521  1.00  0.00    -0.379 N 
HETATM   34  H   UNL     1       2.522  30.978  61.354  1.00  0.00     0.158 HD
HETATM   35  H   UNL     1       3.776  30.263  60.429  1.00  0.00     0.158 HD
ENDBRANCH  32  33
ENDBRANCH  26  28
BRANCH  27  36
HETATM   36  C   UNL     1       6.919  32.234  60.208  1.00  0.00     0.295 C 
BRANCH  36  37
HETATM   37  N   UNL     1       6.861  31.415  61.477  1.00  0.00    -0.073 N 
HETATM   38  H   UNL     1       6.439  30.501  61.222  1.00  0.00     0.279 HD
HETATM   39  C   UNL     1       8.209  31.139  62.077  1.00  0.00     0.269 C 
HETATM   40  C   UNL     1       5.923  32.014  62.486  1.00  0.00     0.269 C 
ENDBRANCH  36  37
ENDBRANCH  27  36
ENDBRANCH   2  23
TORSDOF 10
ENDMDL
MODEL 5
REMARK VINA RESULT:      -8.8      6.030     11.616
REMARK  10 active torsions:
REMARK  status: ('A' for Active; 'I' for Inactive)
REMARK    1  A    between atoms: C_2  and  C_3 
REMARK    2  A    between atoms: C_4  and  O_5 
REMARK    3  A    between atoms: C_6  and  C_7 
REMARK    4  A    between atoms: C_12  and  C_13 
REMARK    5  A    between atoms: N_14  and  N_15 
REMARK       I    between atoms: N_15  and  C_16 
REMARK    6  A    between atoms: C_16  and  C_17 
REMARK    7  A    between atoms: N_20  and  C_21 
REMARK    8  A    between atoms: C_25  and  N_26 
REMARK    9  A    between atoms: C_27  and  C_28 
REMARK   10  A    between atoms: C_28  and  N_29 
ROOT
HETATM    1  N   UNL     1       5.239  33.102  64.081  1.00  0.00    -0.145 NA
HETATM    2  C   UNL     1       5.450  31.969  63.305  1.00  0.00     0.273 C 
HETATM    3  O   UNL     1       4.600  31.074  63.264  1.00  0.00    -0.270 OA
HETATM    4  H   UNL     1       4.296  33.070  64.466  1.00  0.00     0.158 HD
ENDROOT
BRANCH   1   5
HETATM    5  N   UNL     1       5.502  34.341  63.545  1.00  0.00    -0.205 NA
HETATM    6  C   UNL     1       4.624  34.721  62.668  1.00  0.00     0.144 C 
BRANCH   6   7
HETATM    7  C   UNL     1       4.724  36.015  61.965  1.00  0.00    -0.016 A 
HETATM    8  C   UNL     1       5.313  37.117  62.582  1.00  0.00     0.023 A 
HETATM    9  C   UNL     1       5.431  38.346  61.910  1.00  0.00    -0.016 A 
HETATM   10  C   UNL     1       4.885  38.414  60.599  1.00  0.00     0.079 A 
HETATM   11  C   UNL     1       4.239  37.323  59.957  1.00  0.00    -0.016 A 
HETATM   12  C   UNL     1       4.210  36.111  60.670  1.00  0.00     0.023 A 
BRANCH   9  13
HETATM   13  C   UNL     1       6.136  39.551  62.582  1.00  0.00    -0.021 C 
HETATM   14  C   UNL     1       7.463  39.868  61.857  1.00  0.00     0.019 C 
HETATM   15  C   UNL     1       5.301  40.860  62.548  1.00  0.00     0.019 C 
HETATM   16  C   UNL     1       6.407  39.268  64.078  1.00  0.00     0.019 C 
ENDBRANCH   9  13
BRANCH  10  17
HETATM   17  O   UNL     1       5.002  39.615  59.957  1.00  0.00    -0.360 OA
HETATM   18  H   UNL     1       5.507  40.217  60.524  1.00  0.00     0.217 HD
ENDBRANCH  10  17
BRANCH  11  19
HETATM   19  C   UNL     1       3.573  37.408  58.558  1.00  0.00    -0.021 C 
HETATM   20  C   UNL     1       4.660  37.579  57.476  1.00  0.00     0.019 C 
HETATM   21  C   UNL     1       2.546  38.562  58.465  1.00  0.00     0.019 C 
HETATM   22  C   UNL     1       2.774  36.128  58.183  1.00  0.00     0.019 C 
ENDBRANCH  11  19
ENDBRANCH   6   7
ENDBRANCH   1   5
BRANCH   2  23
HETATM   23  C   UNL     1       6.705  31.829  62.564  1.00  0.00     0.170 C 
HETATM   24  N   UNL     1       7.864  31.351  63.102  1.00  0.00    -0.124 NA
HETATM   25  N   UNL     1       8.778  31.290  62.153  1.00  0.00    -0.058 NA
HETATM   26  N   UNL     1       8.211  31.627  60.969  1.00  0.00    -0.191 N 
HETATM   27  C   UNL     1       6.913  32.096  61.211  1.00  0.00     0.101 C 
BRANCH  26  28
HETATM   28  C   UNL     1       8.894  31.454  59.739  1.00  0.00     0.229 A 
HETATM   29  N   UNL     1       9.796  32.350  59.336  1.00  0.00    -0.081 NA
HETATM   30  O   UNL     1      10.215  31.867  58.094  1.00  0.00    -0.103 OA
HETATM   31  N   UNL     1       9.563  30.686  57.769  1.00  0.00    -0.083 NA
HETATM   32  C   UNL     1       8.740  30.432  58.784  1.00  0.00     0.201 A 
BRANCH  32  33
HETATM   33  N   UNL     1       7.929  29.364  58.859  1.00  0.00    -0.379 N 
HETATM   34  H   UNL     1       7.889  28.816  59.714  1.00  0.00     0.158 HD
HETATM   35  H   UNL     1       7.529  28.908  58.041  1.00  0.00     0.158 HD
ENDBRANCH  32  33
ENDBRANCH  26  28
BRANCH  27  36
HETATM   36  C   UNL     1       6.027  32.630  60.144  1.00  0.00     0.295 C 
BRANCH  36  37
HETATM   37  N   UNL     1       4.971  31.680  59.629  1.00  0.00    -0.073 N 
HETATM   38  H   UNL     1       5.171  30.753  60.056  1.00  0.00     0.279 HD
HETATM   39  C   UNL     1       3.574  32.064  60.018  1.00  0.00     0.269 C 
HETATM   40  C   UNL     1       5.089  31.463  58.147  1.00  0.00     0.269 C 
ENDBRANCH  36  37
ENDBRANCH  27  36
ENDBRANCH   2  23
TORSDOF 10
ENDMDL
MODEL 6
REMARK VINA RESULT:      -8.8      0.474      3.141
REMARK  10 active torsions:
REMARK  status: ('A' for Active; 'I' for Inactive)
REMARK    1  A    between atoms: C_2  and  C_3 
REMARK    2  A    between atoms: C_4  and  O_5 
REMARK    3  A    between atoms: C_6  and  C_7 
REMARK    4  A    between atoms: C_12  and  C_13 
REMARK    5  A    between atoms: N_14  and  N_15 
REMARK       I    between atoms: N_15  and  C_16 
REMARK    6  A    between atoms: C_16  and  C_17 
REMARK    7  A    between atoms: N_20  and  C_21 
REMARK    8  A    between atoms: C_25  and  N_26 
REMARK    9  A    between atoms: C_27  and  C_28 
REMARK   10  A    between atoms: C_28  and  N_29 
ROOT
HETATM    1  N   UNL     1       7.809  28.291  58.732  1.00  0.00    -0.145 NA
HETATM    2  C   UNL     1       7.747  29.673  58.607  1.00  0.00     0.273 C 
HETATM    3  O   UNL     1       8.408  30.398  59.357  1.00  0.00    -0.270 OA
HETATM    4  H   UNL     1       8.518  28.051  59.424  1.00  0.00     0.158 HD
ENDROOT
BRANCH   1   5
HETATM    5  N   UNL     1       7.954  27.520  57.603  1.00  0.00    -0.205 NA
HETATM    6  C   UNL     1       7.282  26.411  57.643  1.00  0.00     0.144 C 
BRANCH   6   7
HETATM    7  C   UNL     1       7.307  25.434  56.537  1.00  0.00    -0.016 A 
HETATM    8  C   UNL     1       6.860  25.788  55.265  1.00  0.00     0.023 A 
HETATM    9  C   UNL     1       6.903  24.868  54.202  1.00  0.00    -0.016 A 
HETATM   10  C   UNL     1       7.381  23.564  54.502  1.00  0.00     0.079 A 
HETATM   11  C   UNL     1       7.803  23.157  55.796  1.00  0.00    -0.016 A 
HETATM   12  C   UNL     1       7.785  24.148  56.795  1.00  0.00     0.023 A 
BRANCH   9  13
HETATM   13  C   UNL     1       6.455  25.285  52.778  1.00  0.00    -0.021 C 
HETATM   14  C   UNL     1       7.519  24.867  51.739  1.00  0.00     0.019 C 
HETATM   15  C   UNL     1       5.124  24.624  52.326  1.00  0.00     0.019 C 
HETATM   16  C   UNL     1       6.211  26.810  52.700  1.00  0.00     0.019 C 
ENDBRANCH   9  13
BRANCH  10  17
HETATM   17  O   UNL     1       7.413  22.678  53.461  1.00  0.00    -0.360 OA
HETATM   18  H   UNL     1       7.203  23.157  52.646  1.00  0.00     0.217 HD
ENDBRANCH  10  17
BRANCH  11  19
HETATM   19  C   UNL     1       8.254  21.716  56.152  1.00  0.00    -0.021 C 
HETATM   20  C   UNL     1       8.406  21.583  57.681  1.00  0.00     0.019 C 
HETATM   21  C   UNL     1       9.578  21.324  55.451  1.00  0.00     0.019 C 
HETATM   22  C   UNL     1       7.231  20.630  55.714  1.00  0.00     0.019 C 
ENDBRANCH  11  19
ENDBRANCH   6   7
ENDBRANCH   1   5
BRANCH   2  23
HETATM   23  C   UNL     1       6.865  30.265  57.599  1.00  0.00     0.170 C 
HETATM   24  N   UNL     1       6.623  29.715  56.374  1.00  0.00    -0.124 NA
HETATM   25  N   UNL     1       5.736  30.460  55.744  1.00  0.00    -0.058 NA
HETATM   26  N   UNL     1       5.310  31.443  56.575  1.00  0.00    -0.191 N 
HETATM   27  C   UNL     1       6.101  31.424  57.731  1.00  0.00     0.101 C 
BRANCH  26  28
HETATM   28  C   UNL     1       4.209  32.272  56.247  1.00  0.00     0.229 A 
HETATM   29  N   UNL     1       3.108  32.262  57.001  1.00  0.00    -0.081 NA
HETATM   30  O   UNL     1       2.253  33.158  56.355  1.00  0.00    -0.103 OA
HETATM   31  N   UNL     1       2.852  33.697  55.225  1.00  0.00    -0.083 NA
HETATM   32  C   UNL     1       4.061  33.145  55.154  1.00  0.00     0.201 A 
BRANCH  32  33
HETATM   33  N   UNL     1       4.965  33.411  54.197  1.00  0.00    -0.379 N 
HETATM   34  H   UNL     1       5.286  34.365  54.054  1.00  0.00     0.158 HD
HETATM   35  H   UNL     1       5.174  32.773  53.432  1.00  0.00     0.158 HD
ENDBRANCH  32  33
ENDBRANCH  26  28
BRANCH  27  36
HETATM   36  C   UNL     1       5.966  32.419  58.827  1.00  0.00     0.295 C 
BRANCH  36  37
HETATM   37  N   UNL     1       5.482  31.878  60.151  1.00  0.00    -0.073 N 
HETATM   38  H   UNL     1       5.527  30.842  60.084  1.00  0.00     0.279 HD
HETATM   39  C   UNL     1       6.331  32.292  61.317  1.00  0.00     0.269 C 
HETATM   40  C   UNL     1       4.032  32.193  60.388  1.00  0.00     0.269 C 
ENDBRANCH  36  37
ENDBRANCH  27  36
ENDBRANCH   2  23
TORSDOF 10
ENDMDL
MODEL 7
REMARK VINA RESULT:      -8.8      6.033     11.756
REMARK  10 active torsions:
REMARK  status: ('A' for Active; 'I' for Inactive)
REMARK    1  A    between atoms: C_2  and  C_3 
REMARK    2  A    between atoms: C_4  and  O_5 
REMARK    3  A    between atoms: C_6  and  C_7 
REMARK    4  A    between atoms: C_12  and  C_13 
REMARK    5  A    between atoms: N_14  and  N_15 
REMARK       I    between atoms: N_15  and  C_16 
REMARK    6  A    between atoms: C_16  and  C_17 
REMARK    7  A    between atoms: N_20  and  C_21 
REMARK    8  A    between atoms: C_25  and  N_26 
REMARK    9  A    between atoms: C_27  and  C_28 
REMARK   10  A    between atoms: C_28  and  N_29 
ROOT
HETATM    1  N   UNL     1       5.266  33.184  64.050  1.00  0.00    -0.145 NA
HETATM    2  C   UNL     1       5.482  32.030  63.307  1.00  0.00     0.273 C 
HETATM    3  O   UNL     1       4.641  31.125  63.300  1.00  0.00    -0.270 OA
HETATM    4  H   UNL     1       4.327  33.154  64.444  1.00  0.00     0.158 HD
ENDROOT
BRANCH   1   5
HETATM    5  N   UNL     1       5.511  34.408  63.474  1.00  0.00    -0.205 NA
HETATM    6  C   UNL     1       4.607  34.766  62.615  1.00  0.00     0.144 C 
BRANCH   6   7
HETATM    7  C   UNL     1       4.685  36.042  61.877  1.00  0.00    -0.016 A 
HETATM    8  C   UNL     1       4.203  36.140  60.573  1.00  0.00     0.023 A 
HETATM    9  C   UNL     1       4.255  37.358  59.872  1.00  0.00    -0.016 A 
HETATM   10  C   UNL     1       4.855  38.457  60.543  1.00  0.00     0.079 A 
HETATM   11  C   UNL     1       5.396  38.381  61.855  1.00  0.00    -0.016 A 
HETATM   12  C   UNL     1       5.256  37.145  62.512  1.00  0.00     0.023 A 
BRANCH   9  13
HETATM   13  C   UNL     1       3.667  37.473  58.442  1.00  0.00    -0.021 C 
HETATM   14  C   UNL     1       2.952  36.161  58.051  1.00  0.00     0.019 C 
HETATM   15  C   UNL     1       2.612  38.603  58.293  1.00  0.00     0.019 C 
HETATM   16  C   UNL     1       4.776  37.798  57.414  1.00  0.00     0.019 C 
ENDBRANCH   9  13
BRANCH  10  17
HETATM   17  O   UNL     1       4.904  39.635  59.850  1.00  0.00    -0.360 OA
HETATM   18  H   UNL     1       5.657  39.601  59.242  1.00  0.00     0.217 HD
ENDBRANCH  10  17
BRANCH  11  19
HETATM   19  C   UNL     1       6.122  39.553  62.566  1.00  0.00    -0.021 C 
HETATM   20  C   UNL     1       7.450  39.857  61.842  1.00  0.00     0.019 C 
HETATM   21  C   UNL     1       6.390  39.257  64.062  1.00  0.00     0.019 C 
HETATM   22  C   UNL     1       5.302  40.875  62.558  1.00  0.00     0.019 C 
ENDBRANCH  11  19
ENDBRANCH   6   7
ENDBRANCH   1   5
BRANCH   2  23
HETATM   23  C   UNL     1       6.732  31.879  62.558  1.00  0.00     0.170 C 
HETATM   24  N   UNL     1       7.895  31.410  63.095  1.00  0.00    -0.124 NA
HETATM   25  N   UNL     1       8.802  31.336  62.141  1.00  0.00    -0.058 NA
HETATM   26  N   UNL     1       8.226  31.655  60.956  1.00  0.00    -0.191 N 
HETATM   27  C   UNL     1       6.930  32.127  61.200  1.00  0.00     0.101 C 
BRANCH  26  28
HETATM   28  C   UNL     1       8.901  31.464  59.724  1.00  0.00     0.229 A 
HETATM   29  N   UNL     1       9.810  32.348  59.308  1.00  0.00    -0.081 NA
HETATM   30  O   UNL     1      10.217  31.850  58.068  1.00  0.00    -0.103 OA
HETATM   31  N   UNL     1       9.551  30.672  57.758  1.00  0.00    -0.083 NA
HETATM   32  C   UNL     1       8.731  30.436  58.779  1.00  0.00     0.201 A 
BRANCH  32  33
HETATM   33  N   UNL     1       7.909  29.378  58.867  1.00  0.00    -0.379 N 
HETATM   34  H   UNL     1       7.627  29.029  59.780  1.00  0.00     0.158 HD
HETATM   35  H   UNL     1       7.738  28.736  58.095  1.00  0.00     0.158 HD
ENDBRANCH  32  33
ENDBRANCH  26  28
BRANCH  27  36
HETATM   36  C   UNL     1       6.036  32.644  60.132  1.00  0.00     0.295 C 
BRANCH  36  37
HETATM   37  N   UNL     1       4.961  31.695  59.657  1.00  0.00    -0.073 N 
HETATM   38  H   UNL     1       5.154  30.778  60.106  1.00  0.00     0.279 HD
HETATM   39  C   UNL     1       3.574  32.109  60.054  1.00  0.00     0.269 C 
HETATM   40  C   UNL     1       5.056  31.436  58.180  1.00  0.00     0.269 C 
ENDBRANCH  36  37
ENDBRANCH  27  36
ENDBRANCH   2  23
TORSDOF 10
ENDMDL
MODEL 8
REMARK VINA RESULT:      -8.7      2.939      5.733
REMARK  10 active torsions:
REMARK  status: ('A' for Active; 'I' for Inactive)
REMARK    1  A    between atoms: C_2  and  C_3 
REMARK    2  A    between atoms: C_4  and  O_5 
REMARK    3  A    between atoms: C_6  and  C_7 
REMARK    4  A    between atoms: C_12  and  C_13 
REMARK    5  A    between atoms: N_14  and  N_15 
REMARK       I    between atoms: N_15  and  C_16 
REMARK    6  A    between atoms: C_16  and  C_17 
REMARK    7  A    between atoms: N_20  and  C_21 
REMARK    8  A    between atoms: C_25  and  N_26 
REMARK    9  A    between atoms: C_27  and  C_28 
REMARK   10  A    between atoms: C_28  and  N_29 
ROOT
HETATM    1  N   UNL     1      10.003  30.266  58.142  1.00  0.00    -0.145 NA
HETATM    2  C   UNL     1       9.767  31.334  58.997  1.00  0.00     0.273 C 
HETATM    3  O   UNL     1      10.235  32.450  58.747  1.00  0.00    -0.270 OA
HETATM    4  H   UNL     1      10.495  30.604  57.315  1.00  0.00     0.158 HD
ENDROOT
BRANCH   1   5
HETATM    5  N   UNL     1       8.956  29.451  57.782  1.00  0.00    -0.205 NA
HETATM    6  C   UNL     1       8.779  29.372  56.498  1.00  0.00     0.144 C 
BRANCH   6   7
HETATM    7  C   UNL     1       7.703  28.558  55.901  1.00  0.00    -0.016 A 
HETATM    8  C   UNL     1       6.766  29.133  55.044  1.00  0.00     0.023 A 
HETATM    9  C   UNL     1       5.752  28.358  54.455  1.00  0.00    -0.016 A 
HETATM   10  C   UNL     1       5.709  26.983  54.810  1.00  0.00     0.079 A 
HETATM   11  C   UNL     1       6.621  26.373  55.713  1.00  0.00    -0.016 A 
HETATM   12  C   UNL     1       7.642  27.200  56.217  1.00  0.00     0.023 A 
BRANCH   9  13
HETATM   13  C   UNL     1       4.747  28.994  53.460  1.00  0.00    -0.021 C 
HETATM   14  C   UNL     1       4.388  30.428  53.907  1.00  0.00     0.019 C 
HETATM   15  C   UNL     1       5.297  29.116  52.014  1.00  0.00     0.019 C 
HETATM   16  C   UNL     1       3.464  28.138  53.349  1.00  0.00     0.019 C 
ENDBRANCH   9  13
BRANCH  10  17
HETATM   17  O   UNL     1       4.716  26.240  54.234  1.00  0.00    -0.360 OA
HETATM   18  H   UNL     1       4.568  25.453  54.780  1.00  0.00     0.217 HD
ENDBRANCH  10  17
BRANCH  11  19
HETATM   19  C   UNL     1       6.538  24.891  56.166  1.00  0.00    -0.021 C 
HETATM   20  C   UNL     1       5.210  24.652  56.914  1.00  0.00     0.019 C 
HETATM   21  C   UNL     1       7.732  24.482  57.062  1.00  0.00     0.019 C 
HETATM   22  C   UNL     1       6.563  23.887  54.979  1.00  0.00     0.019 C 
ENDBRANCH  11  19
ENDBRANCH   6   7
ENDBRANCH   1   5
BRANCH   2  23
HETATM   23  C   UNL     1       8.986  31.120  60.218  1.00  0.00     0.170 C 
HETATM   24  N   UNL     1       9.436  30.426  61.303  1.00  0.00    -0.124 NA
HETATM   25  N   UNL     1       8.518  30.480  62.249  1.00  0.00    -0.058 NA
HETATM   26  N   UNL     1       7.507  31.286  61.841  1.00  0.00    -0.191 N 
HETATM   27  C   UNL     1       7.713  31.617  60.496  1.00  0.00     0.101 C 
BRANCH  26  28
HETATM   28  C   UNL     1       6.480  31.698  62.726  1.00  0.00     0.229 A 
HETATM   29  N   UNL     1       5.232  31.253  62.566  1.00  0.00    -0.081 NA
HETATM   30  O   UNL     1       4.516  31.893  63.580  1.00  0.00    -0.103 OA
HETATM   31  N   UNL     1       5.343  32.710  64.339  1.00  0.00    -0.083 NA
HETATM   32  C   UNL     1       6.558  32.595  63.807  1.00  0.00     0.201 A 
BRANCH  32  33
HETATM   33  N   UNL     1       7.651  33.228  64.261  1.00  0.00    -0.379 N 
HETATM   34  H   UNL     1       7.568  34.158  64.664  1.00  0.00     0.158 HD
HETATM   35  H   UNL     1       8.600  32.956  64.011  1.00  0.00     0.158 HD
ENDBRANCH  32  33
ENDBRANCH  26  28
BRANCH  27  36
HETATM   36  C   UNL     1       6.753  32.424  59.699  1.00  0.00     0.295 C 
BRANCH  36  37
HETATM   37  N   UNL     1       5.478  31.721  59.297  1.00  0.00    -0.073 N 
HETATM   38  H   UNL     1       5.339  30.945  59.975  1.00  0.00     0.279 HD
HETATM   39  C   UNL     1       4.262  32.598  59.357  1.00  0.00     0.269 C 
HETATM   40  C   UNL     1       5.607  31.053  57.957  1.00  0.00     0.269 C 
ENDBRANCH  36  37
ENDBRANCH  27  36
ENDBRANCH   2  23
TORSDOF 10
ENDMDL
MODEL 9
REMARK VINA RESULT:      -8.7      3.933      6.276
REMARK  10 active torsions:
REMARK  status: ('A' for Active; 'I' for Inactive)
REMARK    1  A    between atoms: C_2  and  C_3 
REMARK    2  A    between atoms: C_4  and  O_5 
REMARK    3  A    between atoms: C_6  and  C_7 
REMARK    4  A    between atoms: C_12  and  C_13 
REMARK    5  A    between atoms: N_14  and  N_15 
REMARK       I    between atoms: N_15  and  C_16 
REMARK    6  A    between atoms: C_16  and  C_17 
REMARK    7  A    between atoms: N_20  and  C_21 
REMARK    8  A    between atoms: C_25  and  N_26 
REMARK    9  A    between atoms: C_27  and  C_28 
REMARK   10  A    between atoms: C_28  and  N_29 
ROOT
HETATM    1  N   UNL     1       5.417  26.805  50.103  1.00  0.00    -0.145 NA
HETATM    2  C   UNL     1       4.338  27.592  49.720  1.00  0.00     0.273 C 
HETATM    3  O   UNL     1       3.752  27.374  48.655  1.00  0.00    -0.270 OA
HETATM    4  H   UNL     1       5.523  26.040  49.436  1.00  0.00     0.158 HD
ENDROOT
BRANCH   1   5
HETATM    5  N   UNL     1       5.481  26.335  51.393  1.00  0.00    -0.205 NA
HETATM    6  C   UNL     1       6.508  25.573  51.615  1.00  0.00     0.144 C 
BRANCH   6   7
HETATM    7  C   UNL     1       6.760  24.957  52.932  1.00  0.00    -0.016 A 
HETATM    8  C   UNL     1       7.291  23.671  53.027  1.00  0.00     0.023 A 
HETATM    9  C   UNL     1       7.553  23.088  54.279  1.00  0.00    -0.016 A 
HETATM   10  C   UNL     1       7.212  23.853  55.427  1.00  0.00     0.079 A 
HETATM   11  C   UNL     1       6.630  25.148  55.366  1.00  0.00    -0.016 A 
HETATM   12  C   UNL     1       6.450  25.688  54.080  1.00  0.00     0.023 A 
BRANCH   9  13
HETATM   13  C   UNL     1       8.194  21.679  54.376  1.00  0.00    -0.021 C 
HETATM   14  C   UNL     1       9.678  21.795  54.789  1.00  0.00     0.019 C 
HETATM   15  C   UNL     1       7.521  20.761  55.432  1.00  0.00     0.019 C 
HETATM   16  C   UNL     1       8.076  20.925  53.031  1.00  0.00     0.019 C 
ENDBRANCH   9  13
BRANCH  10  17
HETATM   17  O   UNL     1       7.468  23.273  56.638  1.00  0.00    -0.360 OA
HETATM   18  H   UNL     1       7.306  23.930  57.332  1.00  0.00     0.217 HD
ENDBRANCH  10  17
BRANCH  11  19
HETATM   19  C   UNL     1       6.184  25.960  56.611  1.00  0.00    -0.021 C 
HETATM   20  C   UNL     1       7.366  26.096  57.592  1.00  0.00     0.019 C 
HETATM   21  C   UNL     1       4.971  25.319  57.328  1.00  0.00     0.019 C 
HETATM   22  C   UNL     1       5.728  27.406  56.265  1.00  0.00     0.019 C 
ENDBRANCH  11  19
ENDBRANCH   6   7
ENDBRANCH   1   5
BRANCH   2  23
HETATM   23  C   UNL     1       3.922  28.706  50.575  1.00  0.00     0.170 C 
HETATM   24  N   UNL     1       2.935  28.625  51.514  1.00  0.00    -0.124 NA
HETATM   25  N   UNL     1       2.861  29.777  52.150  1.00  0.00    -0.058 NA
HETATM   26  N   UNL     1       3.853  30.591  51.714  1.00  0.00    -0.191 N 
HETATM   27  C   UNL     1       4.479  29.984  50.617  1.00  0.00     0.101 C 
BRANCH  26  28
HETATM   28  C   UNL     1       4.151  31.817  52.359  1.00  0.00     0.229 A 
HETATM   29  N   UNL     1       4.142  32.961  51.673  1.00  0.00    -0.081 NA
HETATM   30  O   UNL     1       4.512  33.920  52.619  1.00  0.00    -0.103 OA
HETATM   31  N   UNL     1       4.734  33.341  53.860  1.00  0.00    -0.083 NA
HETATM   32  C   UNL     1       4.517  32.038  53.700  1.00  0.00     0.201 A 
BRANCH  32  33
HETATM   33  N   UNL     1       4.622  31.122  54.676  1.00  0.00    -0.379 N 
HETATM   34  H   UNL     1       5.164  31.331  55.510  1.00  0.00     0.158 HD
HETATM   35  H   UNL     1       4.408  30.136  54.543  1.00  0.00     0.158 HD
ENDBRANCH  32  33
ENDBRANCH  26  28
BRANCH  27  36
HETATM   36  C   UNL     1       5.563  30.634  49.834  1.00  0.00     0.295 C 
BRANCH  36  37
HETATM   37  N   UNL     1       5.117  31.665  48.824  1.00  0.00    -0.073 N 
HETATM   38  H   UNL     1       4.297  32.151  49.237  1.00  0.00     0.279 HD
HETATM   39  C   UNL     1       6.157  32.704  48.526  1.00  0.00     0.269 C 
HETATM   40  C   UNL     1       4.602  31.027  47.565  1.00  0.00     0.269 C 
ENDBRANCH  36  37
ENDBRANCH  27  36
ENDBRANCH   2  23
TORSDOF 10
ENDMDL
MODEL 10
REMARK VINA RESULT:      -8.7      4.230      6.757
REMARK  10 active torsions:
REMARK  status: ('A' for Active; 'I' for Inactive)
REMARK    1  A    between atoms: C_2  and  C_3 
REMARK    2  A    between atoms: C_4  and  O_5 
REMARK    3  A    between atoms: C_6  and  C_7 
REMARK    4  A    between atoms: C_12  and  C_13 
REMARK    5  A    between atoms: N_14  and  N_15 
REMARK       I    between atoms: N_15  and  C_16 
REMARK    6  A    between atoms: C_16  and  C_17 
REMARK    7  A    between atoms: N_20  and  C_21 
REMARK    8  A    between atoms: C_25  and  N_26 
REMARK    9  A    between atoms: C_27  and  C_28 
REMARK   10  A    between atoms: C_28  and  N_29 
ROOT
HETATM    1  N   UNL     1       5.285  26.430  49.692  1.00  0.00    -0.145 NA
HETATM    2  C   UNL     1       4.605  27.570  49.283  1.00  0.00     0.273 C 
HETATM    3  O   UNL     1       3.854  27.532  48.303  1.00  0.00    -0.270 OA
HETATM    4  H   UNL     1       4.972  25.638  49.131  1.00  0.00     0.158 HD
ENDROOT
BRANCH   1   5
HETATM    5  N   UNL     1       5.304  26.102  51.026  1.00  0.00    -0.205 NA
HETATM    6  C   UNL     1       6.349  25.416  51.375  1.00  0.00     0.144 C 
BRANCH   6   7
HETATM    7  C   UNL     1       6.559  24.954  52.761  1.00  0.00    -0.016 A 
HETATM    8  C   UNL     1       6.198  25.756  53.842  1.00  0.00     0.023 A 
HETATM    9  C   UNL     1       6.376  25.312  55.164  1.00  0.00    -0.016 A 
HETATM   10  C   UNL     1       6.975  24.035  55.335  1.00  0.00     0.079 A 
HETATM   11  C   UNL     1       7.395  23.210  54.257  1.00  0.00    -0.016 A 
HETATM   12  C   UNL     1       7.133  23.697  52.964  1.00  0.00     0.023 A 
BRANCH   9  13
HETATM   13  C   UNL     1       5.922  26.187  56.360  1.00  0.00    -0.021 C 
HETATM   14  C   UNL     1       5.225  27.468  55.851  1.00  0.00     0.019 C 
HETATM   15  C   UNL     1       4.902  25.481  57.295  1.00  0.00     0.019 C 
HETATM   16  C   UNL     1       7.123  26.560  57.259  1.00  0.00     0.019 C 
ENDBRANCH   9  13
BRANCH  10  17
HETATM   17  O   UNL     1       7.147  23.615  56.625  1.00  0.00    -0.360 OA
HETATM   18  H   UNL     1       8.081  23.727  56.861  1.00  0.00     0.217 HD
ENDBRANCH  10  17
BRANCH  11  19
HETATM   19  C   UNL     1       8.120  21.849  54.434  1.00  0.00    -0.021 C 
HETATM   20  C   UNL     1       9.578  22.091  54.873  1.00  0.00     0.019 C 
HETATM   21  C   UNL     1       8.090  20.995  53.143  1.00  0.00     0.019 C 
HETATM   22  C   UNL     1       7.474  20.950  55.525  1.00  0.00     0.019 C 
ENDBRANCH  11  19
ENDBRANCH   6   7
ENDBRANCH   1   5
BRANCH   2  23
HETATM   23  C   UNL     1       4.812  28.829  50.003  1.00  0.00     0.170 C 
HETATM   24  N   UNL     1       6.036  29.384  50.239  1.00  0.00    -0.124 NA
HETATM   25  N   UNL     1       5.865  30.542  50.847  1.00  0.00    -0.058 NA
HETATM   26  N   UNL     1       4.538  30.809  50.928  1.00  0.00    -0.191 N 
HETATM   27  C   UNL     1       3.827  29.678  50.507  1.00  0.00     0.101 C 
BRANCH  26  28
HETATM   28  C   UNL     1       4.057  32.075  51.345  1.00  0.00     0.229 A 
HETATM   29  N   UNL     1       3.473  32.897  50.472  1.00  0.00    -0.081 NA
HETATM   30  O   UNL     1       3.174  34.032  51.229  1.00  0.00    -0.103 OA
HETATM   31  N   UNL     1       3.578  33.875  52.548  1.00  0.00    -0.083 NA
HETATM   32  C   UNL     1       4.130  32.666  52.620  1.00  0.00     0.201 A 
BRANCH  32  33
HETATM   33  N   UNL     1       4.644  32.129  53.738  1.00  0.00    -0.379 N 
HETATM   34  H   UNL     1       5.370  31.420  53.672  1.00  0.00     0.158 HD
HETATM   35  H   UNL     1       4.193  32.192  54.648  1.00  0.00     0.158 HD
ENDBRANCH  32  33
ENDBRANCH  26  28
BRANCH  27  36
HETATM   36  C   UNL     1       2.344  29.588  50.543  1.00  0.00     0.295 C 
BRANCH  36  37
HETATM   37  N   UNL     1       1.610  30.417  49.515  1.00  0.00    -0.073 N 
HETATM   38  H   UNL     1       2.275  31.148  49.193  1.00  0.00     0.279 HD
HETATM   39  C   UNL     1       1.177  29.637  48.310  1.00  0.00     0.269 C 
HETATM   40  C   UNL     1       0.462  31.171  50.123  1.00  0.00     0.269 C 
ENDBRANCH  36  37
ENDBRANCH  27  36
ENDBRANCH   2  23
TORSDOF 10
ENDMDL
