MODEL 1
REMARK VINA RESULT:     -10.8      0.000      0.000
REMARK  7 active torsions:
REMARK  status: ('A' for Active; 'I' for Inactive)
REMARK    1  A    between atoms: C_2  and  O_3 
REMARK    2  A    between atoms: O_3  and  C_4 
REMARK    3  A    between atoms: C_5  and  C_6 
REMARK    4  A    between atoms: C_9  and  C_10 
REMARK       I    between atoms: C_10  and  N_11 
REMARK    5  A    between atoms: N_11  and  C_12 
REMARK    6  A    between atoms: C_25  and  C_26 
REMARK       I    between atoms: C_26  and  N_27 
REMARK    7  A    between atoms: N_27  and  C_28 
ROOT
HETATM    1  C   UNL     1       6.878  28.069  53.358  1.00  0.00     0.188 C 
HETATM    2  N   UNL     1       7.330  28.589  54.657  1.00  0.00    -0.239 N 
HETATM    3  C   UNL     1       6.536  29.307  55.520  1.00  0.00     0.142 C 
HETATM    4  C   UNL     1       7.310  29.535  56.641  1.00  0.00     0.097 C 
HETATM    5  C   UNL     1       8.591  29.043  56.274  1.00  0.00     0.160 C 
HETATM    6  N   UNL     1       8.614  28.482  55.063  1.00  0.00    -0.181 NA
HETATM    7  N   UNL     1       5.274  29.638  55.132  1.00  0.00    -0.343 N 
HETATM    8  C   UNL     1       4.813  29.410  53.826  1.00  0.00     0.021 C 
HETATM    9  C   UNL     1       3.490  30.053  53.482  1.00  0.00     0.069 C 
HETATM   10  C   UNL     1       5.543  28.674  52.951  1.00  0.00     0.061 C 
HETATM   11  H   UNL     1       4.775  30.390  55.608  1.00  0.00     0.167 HD
ENDROOT
BRANCH   4  12
HETATM   12  C   UNL     1       6.972  30.137  57.917  1.00  0.00     0.261 C 
HETATM   13  N   UNL     1       8.063  30.330  58.744  1.00  0.00    -0.323 N 
HETATM   14  H   UNL     1       8.957  30.053  58.358  1.00  0.00     0.169 HD
HETATM   15  O   UNL     1       5.820  30.480  58.153  1.00  0.00    -0.267 OA
BRANCH  13  16
HETATM   16  C   UNL     1       8.094  31.001  59.983  1.00  0.00     0.035 A 
HETATM   17  C   UNL     1       7.322  32.129  60.281  1.00  0.00     0.032 A 
HETATM   18  C   UNL     1       7.440  32.761  61.524  1.00  0.00     0.044 A 
HETATM   19  C   UNL     1       8.323  32.259  62.470  1.00  0.00     0.116 A 
HETATM   20  F   UNL     1       8.439  32.868  63.656  1.00  0.00    -0.206 F 
HETATM   21  C   UNL     1       9.090  31.134  62.198  1.00  0.00     0.044 A 
HETATM   22  C   UNL     1       8.976  30.506  60.955  1.00  0.00     0.032 A 
ENDBRANCH  13  16
ENDBRANCH   4  12
BRANCH   1  23
HETATM   23  C   UNL     1       6.924  26.536  53.374  1.00  0.00     0.005 A 
HETATM   24  C   UNL     1       6.232  25.752  54.321  1.00  0.00     0.077 A 
HETATM   25  C   UNL     1       6.299  24.355  54.247  1.00  0.00     0.037 A 
HETATM   26  C   UNL     1       7.067  23.731  53.262  1.00  0.00     0.003 A 
HETATM   27  C   UNL     1       7.773  24.494  52.341  1.00  0.00     0.001 A 
HETATM   28  C   UNL     1       7.704  25.884  52.397  1.00  0.00     0.012 A 
BRANCH  24  29
HETATM   29  O   UNL     1       5.495  26.424  55.256  1.00  0.00    -0.351 OA
BRANCH  29  30
HETATM   30  C   UNL     1       5.357  25.825  56.544  1.00  0.00     0.171 C 
HETATM   31  C   UNL     1       6.683  25.967  57.271  1.00  0.00     0.034 C 
ENDBRANCH  29  30
ENDBRANCH  24  29
ENDBRANCH   1  23
BRANCH  10  32
HETATM   32  C   UNL     1       5.228  28.690  51.489  1.00  0.00     0.256 C 
HETATM   33  N   UNL     1       4.221  27.828  51.115  1.00  0.00    -0.323 N 
HETATM   34  H   UNL     1       3.681  27.387  51.849  1.00  0.00     0.169 HD
HETATM   35  O   UNL     1       5.895  29.395  50.740  1.00  0.00    -0.267 OA
BRANCH  33  36
HETATM   36  C   UNL     1       3.888  27.418  49.805  1.00  0.00     0.035 A 
HETATM   37  C   UNL     1       4.519  26.377  49.124  1.00  0.00     0.029 A 
HETATM   38  C   UNL     1       4.094  26.004  47.845  1.00  0.00     0.002 A 
HETATM   39  C   UNL     1       3.027  26.665  47.238  1.00  0.00     0.000 A 
HETATM   40  C   UNL     1       2.392  27.708  47.907  1.00  0.00     0.002 A 
HETATM   41  C   UNL     1       2.825  28.087  49.180  1.00  0.00     0.029 A 
ENDBRANCH  33  36
ENDBRANCH  10  32
TORSDOF 7
ENDMDL
MODEL 2
REMARK VINA RESULT:     -10.7      1.962      3.105
REMARK  7 active torsions:
REMARK  status: ('A' for Active; 'I' for Inactive)
REMARK    1  A    between atoms: C_2  and  O_3 
REMARK    2  A    between atoms: O_3  and  C_4 
REMARK    3  A    between atoms: C_5  and  C_6 
REMARK    4  A    between atoms: C_9  and  C_10 
REMARK       I    between atoms: C_10  and  N_11 
REMARK    5  A    between atoms: N_11  and  C_12 
REMARK    6  A    between atoms: C_25  and  C_26 
REMARK       I    between atoms: C_26  and  N_27 
REMARK    7  A    between atoms: N_27  and  C_28 
ROOT
HETATM    1  C   UNL     1       7.378  28.330  55.645  1.00  0.00     0.188 C 
HETATM    2  N   UNL     1       8.077  29.191  56.612  1.00  0.00    -0.239 N 
HETATM    3  C   UNL     1       7.457  30.135  57.395  1.00  0.00     0.142 C 
HETATM    4  C   UNL     1       8.446  30.660  58.204  1.00  0.00     0.097 C 
HETATM    5  C   UNL     1       9.638  30.065  57.711  1.00  0.00     0.160 C 
HETATM    6  N   UNL     1       9.423  29.183  56.732  1.00  0.00    -0.181 NA
HETATM    7  N   UNL     1       6.126  30.362  57.222  1.00  0.00    -0.343 N 
HETATM    8  C   UNL     1       5.402  29.780  56.171  1.00  0.00     0.021 C 
HETATM    9  C   UNL     1       4.006  30.319  55.966  1.00  0.00     0.069 C 
HETATM   10  C   UNL     1       5.958  28.815  55.396  1.00  0.00     0.061 C 
HETATM   11  H   UNL     1       5.707  31.226  57.569  1.00  0.00     0.167 HD
ENDROOT
BRANCH   4  12
HETATM   12  C   UNL     1       8.366  31.605  59.302  1.00  0.00     0.261 C 
HETATM   13  N   UNL     1       7.504  31.211  60.310  1.00  0.00    -0.323 N 
HETATM   14  H   UNL     1       7.055  30.314  60.173  1.00  0.00     0.169 HD
HETATM   15  O   UNL     1       9.071  32.606  59.309  1.00  0.00    -0.267 OA
BRANCH  13  16
HETATM   16  C   UNL     1       7.299  31.833  61.557  1.00  0.00     0.035 A 
HETATM   17  C   UNL     1       8.305  32.022  62.511  1.00  0.00     0.032 A 
HETATM   18  C   UNL     1       8.011  32.614  63.744  1.00  0.00     0.044 A 
HETATM   19  C   UNL     1       6.714  33.025  64.018  1.00  0.00     0.116 A 
HETATM   20  F   UNL     1       6.433  33.586  65.200  1.00  0.00    -0.206 F 
HETATM   21  C   UNL     1       5.704  32.856  63.081  1.00  0.00     0.044 A 
HETATM   22  C   UNL     1       5.996  32.259  61.851  1.00  0.00     0.032 A 
ENDBRANCH  13  16
ENDBRANCH   4  12
BRANCH   1  23
HETATM   23  C   UNL     1       7.501  26.864  56.079  1.00  0.00     0.005 A 
HETATM   24  C   UNL     1       7.572  25.791  55.167  1.00  0.00     0.077 A 
HETATM   25  C   UNL     1       7.717  24.482  55.644  1.00  0.00     0.037 A 
HETATM   26  C   UNL     1       7.764  24.226  57.015  1.00  0.00     0.003 A 
HETATM   27  C   UNL     1       7.669  25.273  57.923  1.00  0.00     0.001 A 
HETATM   28  C   UNL     1       7.537  26.581  57.460  1.00  0.00     0.012 A 
BRANCH  24  29
HETATM   29  O   UNL     1       7.526  26.109  53.838  1.00  0.00    -0.351 OA
BRANCH  29  30
HETATM   30  C   UNL     1       6.855  25.201  52.964  1.00  0.00     0.171 C 
HETATM   31  C   UNL     1       7.848  24.746  51.909  1.00  0.00     0.034 C 
ENDBRANCH  29  30
ENDBRANCH  24  29
ENDBRANCH   1  23
BRANCH  10  32
HETATM   32  C   UNL     1       5.329  28.421  54.097  1.00  0.00     0.256 C 
HETATM   33  N   UNL     1       6.016  28.845  52.982  1.00  0.00    -0.323 N 
HETATM   34  H   UNL     1       6.941  29.232  53.116  1.00  0.00     0.169 HD
HETATM   35  O   UNL     1       4.258  27.825  54.107  1.00  0.00    -0.267 OA
BRANCH  33  36
HETATM   36  C   UNL     1       5.549  28.873  51.649  1.00  0.00     0.035 A 
HETATM   37  C   UNL     1       5.429  27.745  50.835  1.00  0.00     0.029 A 
HETATM   38  C   UNL     1       4.911  27.855  49.541  1.00  0.00     0.002 A 
HETATM   39  C   UNL     1       4.500  29.093  49.051  1.00  0.00     0.000 A 
HETATM   40  C   UNL     1       4.619  30.225  49.851  1.00  0.00     0.002 A 
HETATM   41  C   UNL     1       5.147  30.117  51.141  1.00  0.00     0.029 A 
ENDBRANCH  33  36
ENDBRANCH  10  32
TORSDOF 7
ENDMDL
MODEL 3
REMARK VINA RESULT:     -10.4      4.533      9.337
REMARK  7 active torsions:
REMARK  status: ('A' for Active; 'I' for Inactive)
REMARK    1  A    between atoms: C_2  and  O_3 
REMARK    2  A    between atoms: O_3  and  C_4 
REMARK    3  A    between atoms: C_5  and  C_6 
REMARK    4  A    between atoms: C_9  and  C_10 
REMARK       I    between atoms: C_10  and  N_11 
REMARK    5  A    between atoms: N_11  and  C_12 
REMARK    6  A    between atoms: C_25  and  C_26 
REMARK       I    between atoms: C_26  and  N_27 
REMARK    7  A    between atoms: N_27  and  C_28 
ROOT
HETATM    1  C   UNL     1       7.065  29.460  57.911  1.00  0.00     0.188 C 
HETATM    2  N   UNL     1       7.137  28.029  57.583  1.00  0.00    -0.239 N 
HETATM    3  C   UNL     1       6.587  27.466  56.456  1.00  0.00     0.142 C 
HETATM    4  C   UNL     1       6.941  26.132  56.491  1.00  0.00     0.097 C 
HETATM    5  C   UNL     1       7.568  25.981  57.757  1.00  0.00     0.160 C 
HETATM    6  N   UNL     1       7.676  27.127  58.433  1.00  0.00    -0.181 NA
HETATM    7  N   UNL     1       5.855  28.251  55.619  1.00  0.00    -0.343 N 
HETATM    8  C   UNL     1       5.512  29.571  55.946  1.00  0.00     0.021 C 
HETATM    9  C   UNL     1       4.497  30.225  55.039  1.00  0.00     0.069 C 
HETATM   10  C   UNL     1       6.061  30.183  57.027  1.00  0.00     0.061 C 
HETATM   11  H   UNL     1       5.213  27.824  54.951  1.00  0.00     0.167 HD
ENDROOT
BRANCH   4  12
HETATM   12  C   UNL     1       6.743  25.075  55.517  1.00  0.00     0.261 C 
HETATM   13  N   UNL     1       7.807  24.195  55.431  1.00  0.00    -0.323 N 
HETATM   14  H   UNL     1       8.576  24.378  56.064  1.00  0.00     0.169 HD
HETATM   15  O   UNL     1       5.685  24.985  54.908  1.00  0.00    -0.267 OA
BRANCH  13  16
HETATM   16  C   UNL     1       7.877  23.002  54.684  1.00  0.00     0.035 A 
HETATM   17  C   UNL     1       7.810  21.723  55.245  1.00  0.00     0.032 A 
HETATM   18  C   UNL     1       7.928  20.587  54.438  1.00  0.00     0.044 A 
HETATM   19  C   UNL     1       8.103  20.731  53.069  1.00  0.00     0.116 A 
HETATM   20  F   UNL     1       8.221  19.643  52.298  1.00  0.00    -0.206 F 
HETATM   21  C   UNL     1       8.162  21.992  52.490  1.00  0.00     0.044 A 
HETATM   22  C   UNL     1       8.050  23.127  53.298  1.00  0.00     0.032 A 
ENDBRANCH  13  16
ENDBRANCH   4  12
BRANCH   1  23
HETATM   23  C   UNL     1       8.477  30.058  57.919  1.00  0.00     0.005 A 
HETATM   24  C   UNL     1       8.930  30.961  58.903  1.00  0.00     0.077 A 
HETATM   25  C   UNL     1      10.247  31.435  58.857  1.00  0.00     0.037 A 
HETATM   26  C   UNL     1      11.108  31.046  57.830  1.00  0.00     0.003 A 
HETATM   27  C   UNL     1      10.664  30.178  56.841  1.00  0.00     0.001 A 
HETATM   28  C   UNL     1       9.361  29.689  56.883  1.00  0.00     0.012 A 
BRANCH  24  29
HETATM   29  O   UNL     1       8.040  31.299  59.885  1.00  0.00    -0.351 OA
BRANCH  29  30
HETATM   30  C   UNL     1       8.342  30.890  61.219  1.00  0.00     0.171 C 
HETATM   31  C   UNL     1       8.449  32.138  62.078  1.00  0.00     0.034 C 
ENDBRANCH  29  30
ENDBRANCH  24  29
ENDBRANCH   1  23
BRANCH  10  32
HETATM   32  C   UNL     1       5.477  31.450  57.565  1.00  0.00     0.256 C 
HETATM   33  N   UNL     1       5.361  31.485  58.937  1.00  0.00    -0.323 N 
HETATM   34  H   UNL     1       5.812  30.751  59.467  1.00  0.00     0.169 HD
HETATM   35  O   UNL     1       5.099  32.315  56.782  1.00  0.00    -0.267 OA
BRANCH  33  36
HETATM   36  C   UNL     1       4.613  32.401  59.709  1.00  0.00     0.035 A 
HETATM   37  C   UNL     1       3.225  32.361  59.850  1.00  0.00     0.029 A 
HETATM   38  C   UNL     1       2.568  33.279  60.676  1.00  0.00     0.002 A 
HETATM   39  C   UNL     1       3.293  34.242  61.373  1.00  0.00     0.000 A 
HETATM   40  C   UNL     1       4.678  34.295  61.237  1.00  0.00     0.002 A 
HETATM   41  C   UNL     1       5.333  33.384  60.404  1.00  0.00     0.029 A 
ENDBRANCH  33  36
ENDBRANCH  10  32
TORSDOF 7
ENDMDL
MODEL 4
REMARK VINA RESULT:     -10.2      3.130      6.287
REMARK  7 active torsions:
REMARK  status: ('A' for Active; 'I' for Inactive)
REMARK    1  A    between atoms: C_2  and  O_3 
REMARK    2  A    between atoms: O_3  and  C_4 
REMARK    3  A    between atoms: C_5  and  C_6 
REMARK    4  A    between atoms: C_9  and  C_10 
REMARK       I    between atoms: C_10  and  N_11 
REMARK    5  A    between atoms: N_11  and  C_12 
REMARK    6  A    between atoms: C_25  and  C_26 
REMARK       I    between atoms: C_26  and  N_27 
REMARK    7  A    between atoms: N_27  and  C_28 
ROOT
HETATM    1  C   UNL     1       4.989  30.088  56.906  1.00  0.00     0.188 C 
HETATM    2  N   UNL     1       4.555  30.892  58.059  1.00  0.00    -0.239 N 
HETATM    3  C   UNL     1       5.407  31.406  59.007  1.00  0.00     0.142 C 
HETATM    4  C   UNL     1       4.615  32.149  59.860  1.00  0.00     0.097 C 
HETATM    5  C   UNL     1       3.293  31.883  59.413  1.00  0.00     0.160 C 
HETATM    6  N   UNL     1       3.248  31.106  58.329  1.00  0.00    -0.181 NA
HETATM    7  N   UNL     1       6.730  31.095  58.940  1.00  0.00    -0.343 N 
HETATM    8  C   UNL     1       7.227  30.146  58.034  1.00  0.00     0.021 C 
HETATM    9  C   UNL     1       8.664  29.732  58.248  1.00  0.00     0.069 C 
HETATM   10  C   UNL     1       6.435  29.640  57.055  1.00  0.00     0.061 C 
HETATM   11  H   UNL     1       7.325  31.216  59.761  1.00  0.00     0.167 HD
ENDROOT
BRANCH   4  12
HETATM   12  C   UNL     1       4.972  33.008  60.973  1.00  0.00     0.261 C 
HETATM   13  N   UNL     1       5.325  32.315  62.117  1.00  0.00    -0.323 N 
HETATM   14  H   UNL     1       5.313  31.306  62.035  1.00  0.00     0.169 HD
HETATM   15  O   UNL     1       5.002  34.224  60.832  1.00  0.00    -0.267 OA
BRANCH  13  16
HETATM   16  C   UNL     1       5.839  32.843  63.318  1.00  0.00     0.035 A 
HETATM   17  C   UNL     1       7.203  32.996  63.583  1.00  0.00     0.032 A 
HETATM   18  C   UNL     1       7.634  33.492  64.818  1.00  0.00     0.044 A 
HETATM   19  C   UNL     1       6.700  33.843  65.783  1.00  0.00     0.116 A 
HETATM   20  F   UNL     1       7.113  34.312  66.966  1.00  0.00    -0.206 F 
HETATM   21  C   UNL     1       5.340  33.708  65.535  1.00  0.00     0.044 A 
HETATM   22  C   UNL     1       4.910  33.207  64.303  1.00  0.00     0.032 A 
ENDBRANCH  13  16
ENDBRANCH   4  12
BRANCH   1  23
HETATM   23  C   UNL     1       4.667  30.837  55.607  1.00  0.00     0.005 A 
HETATM   24  C   UNL     1       4.138  30.207  54.461  1.00  0.00     0.077 A 
HETATM   25  C   UNL     1       3.841  30.969  53.324  1.00  0.00     0.037 A 
HETATM   26  C   UNL     1       4.089  32.342  53.303  1.00  0.00     0.003 A 
HETATM   27  C   UNL     1       4.635  32.968  54.416  1.00  0.00     0.001 A 
HETATM   28  C   UNL     1       4.923  32.224  55.558  1.00  0.00     0.012 A 
BRANCH  24  29
HETATM   29  O   UNL     1       3.913  28.861  54.548  1.00  0.00    -0.351 OA
BRANCH  29  30
HETATM   30  C   UNL     1       3.664  28.153  53.334  1.00  0.00     0.171 C 
HETATM   31  C   UNL     1       4.702  27.052  53.211  1.00  0.00     0.034 C 
ENDBRANCH  29  30
ENDBRANCH  24  29
ENDBRANCH   1  23
BRANCH  10  32
HETATM   32  C   UNL     1       6.844  28.417  56.297  1.00  0.00     0.256 C 
HETATM   33  N   UNL     1       6.631  27.235  56.970  1.00  0.00    -0.323 N 
HETATM   34  H   UNL     1       6.085  27.269  57.822  1.00  0.00     0.169 HD
HETATM   35  O   UNL     1       7.374  28.542  55.199  1.00  0.00    -0.267 OA
BRANCH  33  36
HETATM   36  C   UNL     1       7.151  25.962  56.649  1.00  0.00     0.035 A 
HETATM   37  C   UNL     1       6.609  25.113  55.683  1.00  0.00     0.029 A 
HETATM   38  C   UNL     1       7.218  23.887  55.392  1.00  0.00     0.002 A 
HETATM   39  C   UNL     1       8.378  23.503  56.060  1.00  0.00     0.000 A 
HETATM   40  C   UNL     1       8.926  24.339  57.029  1.00  0.00     0.002 A 
HETATM   41  C   UNL     1       8.312  25.559  57.326  1.00  0.00     0.029 A 
ENDBRANCH  33  36
ENDBRANCH  10  32
TORSDOF 7
ENDMDL
MODEL 5
REMARK VINA RESULT:      -9.8      2.503      5.156
REMARK  7 active torsions:
REMARK  status: ('A' for Active; 'I' for Inactive)
REMARK    1  A    between atoms: C_2  and  O_3 
REMARK    2  A    between atoms: O_3  and  C_4 
REMARK    3  A    between atoms: C_5  and  C_6 
REMARK    4  A    between atoms: C_9  and  C_10 
REMARK       I    between atoms: C_10  and  N_11 
REMARK    5  A    between atoms: N_11  and  C_12 
REMARK    6  A    between atoms: C_25  and  C_26 
REMARK       I    between atoms: C_26  and  N_27 
REMARK    7  A    between atoms: N_27  and  C_28 
ROOT
HETATM    1  C   UNL     1       5.380  28.776  55.454  1.00  0.00     0.188 C 
HETATM    2  N   UNL     1       5.056  29.616  56.617  1.00  0.00    -0.239 N 
HETATM    3  C   UNL     1       5.978  30.361  57.313  1.00  0.00     0.142 C 
HETATM    4  C   UNL     1       5.259  31.051  58.269  1.00  0.00     0.097 C 
HETATM    5  C   UNL     1       3.945  30.524  58.150  1.00  0.00     0.160 C 
HETATM    6  N   UNL     1       3.818  29.639  57.159  1.00  0.00    -0.181 NA
HETATM    7  N   UNL     1       7.292  30.267  56.972  1.00  0.00    -0.343 N 
HETATM    8  C   UNL     1       7.754  29.322  56.043  1.00  0.00     0.021 C 
HETATM    9  C   UNL     1       9.255  29.175  55.957  1.00  0.00     0.069 C 
HETATM   10  C   UNL     1       6.882  28.591  55.304  1.00  0.00     0.061 C 
HETATM   11  H   UNL     1       8.012  30.571  57.628  1.00  0.00     0.167 HD
ENDROOT
BRANCH   4  12
HETATM   12  C   UNL     1       5.676  32.071  59.213  1.00  0.00     0.261 C 
HETATM   13  N   UNL     1       5.686  31.639  60.526  1.00  0.00    -0.323 N 
HETATM   14  H   UNL     1       5.426  30.671  60.669  1.00  0.00     0.169 HD
HETATM   15  O   UNL     1       6.037  33.171  58.815  1.00  0.00    -0.267 OA
BRANCH  13  16
HETATM   16  C   UNL     1       6.157  32.336  61.657  1.00  0.00     0.035 A 
HETATM   17  C   UNL     1       5.585  33.516  62.142  1.00  0.00     0.032 A 
HETATM   18  C   UNL     1       6.138  34.170  63.248  1.00  0.00     0.044 A 
HETATM   19  C   UNL     1       7.256  33.638  63.873  1.00  0.00     0.116 A 
HETATM   20  F   UNL     1       7.788  34.268  64.928  1.00  0.00    -0.206 F 
HETATM   21  C   UNL     1       7.834  32.462  63.414  1.00  0.00     0.044 A 
HETATM   22  C   UNL     1       7.284  31.811  62.305  1.00  0.00     0.032 A 
ENDBRANCH  13  16
ENDBRANCH   4  12
BRANCH   1  23
HETATM   23  C   UNL     1       4.662  29.318  54.213  1.00  0.00     0.005 A 
HETATM   24  C   UNL     1       4.182  28.493  53.174  1.00  0.00     0.077 A 
HETATM   25  C   UNL     1       3.506  29.065  52.089  1.00  0.00     0.037 A 
HETATM   26  C   UNL     1       3.327  30.447  52.010  1.00  0.00     0.003 A 
HETATM   27  C   UNL     1       3.819  31.271  53.014  1.00  0.00     0.001 A 
HETATM   28  C   UNL     1       4.482  30.713  54.105  1.00  0.00     0.012 A 
BRANCH  24  29
HETATM   29  O   UNL     1       4.384  27.148  53.314  1.00  0.00    -0.351 OA
BRANCH  29  30
HETATM   30  C   UNL     1       4.875  26.433  52.180  1.00  0.00     0.171 C 
HETATM   31  C   UNL     1       4.620  24.954  52.412  1.00  0.00     0.034 C 
ENDBRANCH  29  30
ENDBRANCH  24  29
ENDBRANCH   1  23
BRANCH  10  32
HETATM   32  C   UNL     1       7.341  27.378  54.560  1.00  0.00     0.256 C 
HETATM   33  N   UNL     1       7.056  26.185  55.186  1.00  0.00    -0.323 N 
HETATM   34  H   UNL     1       6.438  26.209  55.987  1.00  0.00     0.169 HD
HETATM   35  O   UNL     1       7.968  27.518  53.516  1.00  0.00    -0.267 OA
BRANCH  33  36
HETATM   36  C   UNL     1       7.588  24.912  54.884  1.00  0.00     0.035 A 
HETATM   37  C   UNL     1       7.671  24.380  53.596  1.00  0.00     0.029 A 
HETATM   38  C   UNL     1       8.258  23.129  53.380  1.00  0.00     0.002 A 
HETATM   39  C   UNL     1       8.775  22.401  54.450  1.00  0.00     0.000 A 
HETATM   40  C   UNL     1       8.695  22.919  55.739  1.00  0.00     0.002 A 
HETATM   41  C   UNL     1       8.098  24.164  55.956  1.00  0.00     0.029 A 
ENDBRANCH  33  36
ENDBRANCH  10  32
TORSDOF 7
ENDMDL
MODEL 6
REMARK VINA RESULT:      -9.7      5.352      7.923
REMARK  7 active torsions:
REMARK  status: ('A' for Active; 'I' for Inactive)
REMARK    1  A    between atoms: C_2  and  O_3 
REMARK    2  A    between atoms: O_3  and  C_4 
REMARK    3  A    between atoms: C_5  and  C_6 
REMARK    4  A    between atoms: C_9  and  C_10 
REMARK       I    between atoms: C_10  and  N_11 
REMARK    5  A    between atoms: N_11  and  C_12 
REMARK    6  A    between atoms: C_25  and  C_26 
REMARK       I    between atoms: C_26  and  N_27 
REMARK    7  A    between atoms: N_27  and  C_28 
ROOT
HETATM    1  C   UNL     1       3.869  28.674  50.626  1.00  0.00     0.188 C 
HETATM    2  N   UNL     1       4.712  27.947  51.587  1.00  0.00    -0.239 N 
HETATM    3  C   UNL     1       5.393  26.789  51.296  1.00  0.00     0.142 C 
HETATM    4  C   UNL     1       6.111  26.479  52.434  1.00  0.00     0.097 C 
HETATM    5  C   UNL     1       5.664  27.433  53.387  1.00  0.00     0.160 C 
HETATM    6  N   UNL     1       4.800  28.318  52.884  1.00  0.00    -0.181 NA
HETATM    7  N   UNL     1       5.226  26.218  50.072  1.00  0.00    -0.343 N 
HETATM    8  C   UNL     1       4.267  26.682  49.158  1.00  0.00     0.021 C 
HETATM    9  C   UNL     1       4.034  25.799  47.955  1.00  0.00     0.069 C 
HETATM   10  C   UNL     1       3.598  27.841  49.383  1.00  0.00     0.061 C 
HETATM   11  H   UNL     1       5.479  25.240  49.926  1.00  0.00     0.167 HD
ENDROOT
BRANCH   4  12
HETATM   12  C   UNL     1       7.093  25.439  52.679  1.00  0.00     0.261 C 
HETATM   13  N   UNL     1       6.620  24.407  53.468  1.00  0.00    -0.323 N 
HETATM   14  H   UNL     1       5.654  24.488  53.759  1.00  0.00     0.169 HD
HETATM   15  O   UNL     1       8.197  25.495  52.153  1.00  0.00    -0.267 OA
BRANCH  13  16
HETATM   16  C   UNL     1       7.272  23.197  53.783  1.00  0.00     0.035 A 
HETATM   17  C   UNL     1       7.761  22.301  52.826  1.00  0.00     0.032 A 
HETATM   18  C   UNL     1       8.362  21.101  53.221  1.00  0.00     0.044 A 
HETATM   19  C   UNL     1       8.482  20.803  54.571  1.00  0.00     0.116 A 
HETATM   20  F   UNL     1       9.051  19.652  54.947  1.00  0.00    -0.206 F 
HETATM   21  C   UNL     1       8.013  21.684  55.536  1.00  0.00     0.044 A 
HETATM   22  C   UNL     1       7.407  22.881  55.142  1.00  0.00     0.032 A 
ENDBRANCH  13  16
ENDBRANCH   4  12
BRANCH   1  23
HETATM   23  C   UNL     1       4.469  30.062  50.365  1.00  0.00     0.005 A 
HETATM   24  C   UNL     1       3.829  31.263  50.734  1.00  0.00     0.077 A 
HETATM   25  C   UNL     1       4.459  32.490  50.489  1.00  0.00     0.037 A 
HETATM   26  C   UNL     1       5.703  32.536  49.857  1.00  0.00     0.003 A 
HETATM   27  C   UNL     1       6.330  31.361  49.466  1.00  0.00     0.001 A 
HETATM   28  C   UNL     1       5.719  30.134  49.715  1.00  0.00     0.012 A 
BRANCH  24  29
HETATM   29  O   UNL     1       2.615  31.149  51.353  1.00  0.00    -0.351 OA
BRANCH  29  30
HETATM   30  C   UNL     1       1.571  32.024  50.928  1.00  0.00     0.171 C 
HETATM   31  C   UNL     1       0.810  31.336  49.808  1.00  0.00     0.034 C 
ENDBRANCH  29  30
ENDBRANCH  24  29
ENDBRANCH   1  23
BRANCH  10  32
HETATM   32  C   UNL     1       2.370  28.178  48.599  1.00  0.00     0.256 C 
HETATM   33  N   UNL     1       2.614  28.852  47.423  1.00  0.00    -0.323 N 
HETATM   34  H   UNL     1       3.573  28.920  47.109  1.00  0.00     0.169 HD
HETATM   35  O   UNL     1       1.269  27.900  49.062  1.00  0.00    -0.267 OA
BRANCH  33  36
HETATM   36  C   UNL     1       1.675  29.536  46.619  1.00  0.00     0.035 A 
HETATM   37  C   UNL     1       0.449  29.004  46.218  1.00  0.00     0.029 A 
HETATM   38  C   UNL     1      -0.444  29.770  45.462  1.00  0.00     0.002 A 
HETATM   39  C   UNL     1      -0.121  31.077  45.104  1.00  0.00     0.000 A 
HETATM   40  C   UNL     1       1.101  31.617  45.494  1.00  0.00     0.002 A 
HETATM   41  C   UNL     1       1.997  30.848  46.242  1.00  0.00     0.029 A 
ENDBRANCH  33  36
ENDBRANCH  10  32
TORSDOF 7
ENDMDL
MODEL 7
REMARK VINA RESULT:      -9.5      3.761      9.396
REMARK  7 active torsions:
REMARK  status: ('A' for Active; 'I' for Inactive)
REMARK    1  A    between atoms: C_2  and  O_3 
REMARK    2  A    between atoms: O_3  and  C_4 
REMARK    3  A    between atoms: C_5  and  C_6 
REMARK    4  A    between atoms: C_9  and  C_10 
REMARK       I    between atoms: C_10  and  N_11 
REMARK    5  A    between atoms: N_11  and  C_12 
REMARK    6  A    between atoms: C_25  and  C_26 
REMARK       I    between atoms: C_26  and  N_27 
REMARK    7  A    between atoms: N_27  and  C_28 
ROOT
HETATM    1  C   UNL     1       6.695  29.336  57.305  1.00  0.00     0.188 C 
HETATM    2  N   UNL     1       6.339  28.224  56.411  1.00  0.00    -0.239 N 
HETATM    3  C   UNL     1       5.541  28.352  55.299  1.00  0.00     0.142 C 
HETATM    4  C   UNL     1       5.520  27.105  54.707  1.00  0.00     0.097 C 
HETATM    5  C   UNL     1       6.211  26.278  55.632  1.00  0.00     0.160 C 
HETATM    6  N   UNL     1       6.698  26.948  56.679  1.00  0.00    -0.181 NA
HETATM    7  N   UNL     1       4.968  29.558  55.037  1.00  0.00    -0.343 N 
HETATM    8  C   UNL     1       5.035  30.627  55.943  1.00  0.00     0.021 C 
HETATM    9  C   UNL     1       4.147  31.807  55.624  1.00  0.00     0.069 C 
HETATM   10  C   UNL     1       5.840  30.563  57.034  1.00  0.00     0.061 C 
HETATM   11  H   UNL     1       4.167  29.616  54.407  1.00  0.00     0.167 HD
ENDROOT
BRANCH   4  12
HETATM   12  C   UNL     1       4.939  26.664  53.452  1.00  0.00     0.261 C 
HETATM   13  N   UNL     1       4.939  27.639  52.470  1.00  0.00    -0.323 N 
HETATM   14  H   UNL     1       5.357  28.522  52.733  1.00  0.00     0.169 HD
HETATM   15  O   UNL     1       4.564  25.507  53.317  1.00  0.00    -0.267 OA
BRANCH  13  16
HETATM   16  C   UNL     1       4.569  27.495  51.118  1.00  0.00     0.035 A 
HETATM   17  C   UNL     1       4.951  26.417  50.312  1.00  0.00     0.032 A 
HETATM   18  C   UNL     1       4.574  26.369  48.966  1.00  0.00     0.044 A 
HETATM   19  C   UNL     1       3.808  27.394  48.429  1.00  0.00     0.116 A 
HETATM   20  F   UNL     1       3.453  27.350  47.139  1.00  0.00    -0.206 F 
HETATM   21  C   UNL     1       3.409  28.468  49.214  1.00  0.00     0.044 A 
HETATM   22  C   UNL     1       3.791  28.519  50.558  1.00  0.00     0.032 A 
ENDBRANCH  13  16
ENDBRANCH   4  12
BRANCH   1  23
HETATM   23  C   UNL     1       8.210  29.571  57.254  1.00  0.00     0.005 A 
HETATM   24  C   UNL     1       8.986  29.869  58.394  1.00  0.00     0.077 A 
HETATM   25  C   UNL     1      10.370  30.038  58.268  1.00  0.00     0.037 A 
HETATM   26  C   UNL     1      10.987  29.941  57.020  1.00  0.00     0.003 A 
HETATM   27  C   UNL     1      10.230  29.674  55.887  1.00  0.00     0.001 A 
HETATM   28  C   UNL     1       8.853  29.492  56.002  1.00  0.00     0.012 A 
BRANCH  24  29
HETATM   29  O   UNL     1       8.322  29.945  59.588  1.00  0.00    -0.351 OA
BRANCH  29  30
HETATM   30  C   UNL     1       8.672  31.008  60.472  1.00  0.00     0.171 C 
HETATM   31  C   UNL     1       9.223  30.396  61.747  1.00  0.00     0.034 C 
ENDBRANCH  29  30
ENDBRANCH  24  29
ENDBRANCH   1  23
BRANCH  10  32
HETATM   32  C   UNL     1       5.684  31.539  58.156  1.00  0.00     0.256 C 
HETATM   33  N   UNL     1       4.596  31.304  58.967  1.00  0.00    -0.323 N 
HETATM   34  H   UNL     1       4.099  30.430  58.847  1.00  0.00     0.169 HD
HETATM   35  O   UNL     1       6.465  32.480  58.244  1.00  0.00    -0.267 OA
BRANCH  33  36
HETATM   36  C   UNL     1       4.032  32.182  59.918  1.00  0.00     0.035 A 
HETATM   37  C   UNL     1       4.157  32.028  61.300  1.00  0.00     0.029 A 
HETATM   38  C   UNL     1       3.607  32.972  62.173  1.00  0.00     0.002 A 
HETATM   39  C   UNL     1       2.934  34.085  61.672  1.00  0.00     0.000 A 
HETATM   40  C   UNL     1       2.800  34.247  60.296  1.00  0.00     0.002 A 
HETATM   41  C   UNL     1       3.340  33.297  59.424  1.00  0.00     0.029 A 
ENDBRANCH  33  36
ENDBRANCH  10  32
TORSDOF 7
ENDMDL
MODEL 8
REMARK VINA RESULT:      -9.4      3.779      6.837
REMARK  7 active torsions:
REMARK  status: ('A' for Active; 'I' for Inactive)
REMARK    1  A    between atoms: C_2  and  O_3 
REMARK    2  A    between atoms: O_3  and  C_4 
REMARK    3  A    between atoms: C_5  and  C_6 
REMARK    4  A    between atoms: C_9  and  C_10 
REMARK       I    between atoms: C_10  and  N_11 
REMARK    5  A    between atoms: N_11  and  C_12 
REMARK    6  A    between atoms: C_25  and  C_26 
REMARK       I    between atoms: C_26  and  N_27 
REMARK    7  A    between atoms: N_27  and  C_28 
ROOT
HETATM    1  C   UNL     1       4.925  30.369  57.361  1.00  0.00     0.188 C 
HETATM    2  N   UNL     1       4.498  31.110  58.557  1.00  0.00    -0.239 N 
HETATM    3  C   UNL     1       5.361  31.693  59.454  1.00  0.00     0.142 C 
HETATM    4  C   UNL     1       4.563  32.343  60.375  1.00  0.00     0.097 C 
HETATM    5  C   UNL     1       3.246  31.953  60.016  1.00  0.00     0.160 C 
HETATM    6  N   UNL     1       3.199  31.190  58.922  1.00  0.00    -0.181 NA
HETATM    7  N   UNL     1       6.700  31.515  59.289  1.00  0.00    -0.343 N 
HETATM    8  C   UNL     1       7.221  30.632  58.330  1.00  0.00     0.021 C 
HETATM    9  C   UNL     1       8.703  30.359  58.435  1.00  0.00     0.069 C 
HETATM   10  C   UNL     1       6.414  30.064  57.399  1.00  0.00     0.061 C 
HETATM   11  H   UNL     1       7.337  31.683  60.068  1.00  0.00     0.167 HD
ENDROOT
BRANCH   4  12
HETATM   12  C   UNL     1       4.914  33.218  61.478  1.00  0.00     0.261 C 
HETATM   13  N   UNL     1       5.110  32.550  62.673  1.00  0.00    -0.323 N 
HETATM   14  H   UNL     1       5.010  31.544  62.632  1.00  0.00     0.169 HD
HETATM   15  O   UNL     1       5.070  34.418  61.290  1.00  0.00    -0.267 OA
BRANCH  13  16
HETATM   16  C   UNL     1       5.578  33.086  63.890  1.00  0.00     0.035 A 
HETATM   17  C   UNL     1       6.932  33.244  64.205  1.00  0.00     0.032 A 
HETATM   18  C   UNL     1       7.316  33.747  65.453  1.00  0.00     0.044 A 
HETATM   19  C   UNL     1       6.345  34.101  66.379  1.00  0.00     0.116 A 
HETATM   20  F   UNL     1       6.714  34.578  67.574  1.00  0.00    -0.206 F 
HETATM   21  C   UNL     1       4.996  33.963  66.082  1.00  0.00     0.044 A 
HETATM   22  C   UNL     1       4.613  33.454  64.838  1.00  0.00     0.032 A 
ENDBRANCH  13  16
ENDBRANCH   4  12
BRANCH   1  23
HETATM   23  C   UNL     1       4.439  31.100  56.103  1.00  0.00     0.005 A 
HETATM   24  C   UNL     1       4.602  32.486  55.902  1.00  0.00     0.077 A 
HETATM   25  C   UNL     1       4.160  33.072  54.710  1.00  0.00     0.037 A 
HETATM   26  C   UNL     1       3.533  32.303  53.729  1.00  0.00     0.003 A 
HETATM   27  C   UNL     1       3.344  30.941  53.927  1.00  0.00     0.001 A 
HETATM   28  C   UNL     1       3.791  30.344  55.104  1.00  0.00     0.012 A 
BRANCH  24  29
HETATM   29  O   UNL     1       5.228  33.183  56.899  1.00  0.00    -0.351 OA
BRANCH  29  30
HETATM   30  C   UNL     1       5.000  34.590  56.965  1.00  0.00     0.171 C 
HETATM   31  C   UNL     1       3.805  34.829  57.871  1.00  0.00     0.034 C 
ENDBRANCH  29  30
ENDBRANCH  24  29
ENDBRANCH   1  23
BRANCH  10  32
HETATM   32  C   UNL     1       6.885  28.897  56.590  1.00  0.00     0.256 C 
HETATM   33  N   UNL     1       6.602  27.669  57.146  1.00  0.00    -0.323 N 
HETATM   34  H   UNL     1       5.978  27.645  57.942  1.00  0.00     0.169 HD
HETATM   35  O   UNL     1       7.518  29.099  55.560  1.00  0.00    -0.267 OA
BRANCH  33  36
HETATM   36  C   UNL     1       7.142  26.418  56.776  1.00  0.00     0.035 A 
HETATM   37  C   UNL     1       8.219  25.807  57.420  1.00  0.00     0.029 A 
HETATM   38  C   UNL     1       8.661  24.541  57.020  1.00  0.00     0.002 A 
HETATM   39  C   UNL     1       8.025  23.872  55.977  1.00  0.00     0.000 A 
HETATM   40  C   UNL     1       6.953  24.473  55.324  1.00  0.00     0.002 A 
HETATM   41  C   UNL     1       6.518  25.743  55.717  1.00  0.00     0.029 A 
ENDBRANCH  33  36
ENDBRANCH  10  32
TORSDOF 7
ENDMDL
MODEL 9
REMARK VINA RESULT:      -9.0      4.129      8.500
REMARK  7 active torsions:
REMARK  status: ('A' for Active; 'I' for Inactive)
REMARK    1  A    between atoms: C_2  and  O_3 
REMARK    2  A    between atoms: O_3  and  C_4 
REMARK    3  A    between atoms: C_5  and  C_6 
REMARK    4  A    between atoms: C_9  and  C_10 
REMARK       I    between atoms: C_10  and  N_11 
REMARK    5  A    between atoms: N_11  and  C_12 
REMARK    6  A    between atoms: C_25  and  C_26 
REMARK       I    between atoms: C_26  and  N_27 
REMARK    7  A    between atoms: N_27  and  C_28 
ROOT
HETATM    1  C   UNL     1       5.059  29.448  56.427  1.00  0.00     0.188 C 
HETATM    2  N   UNL     1       5.228  27.991  56.318  1.00  0.00    -0.239 N 
HETATM    3  C   UNL     1       5.400  27.320  55.131  1.00  0.00     0.142 C 
HETATM    4  C   UNL     1       5.595  25.996  55.473  1.00  0.00     0.097 C 
HETATM    5  C   UNL     1       5.367  25.971  56.875  1.00  0.00     0.160 C 
HETATM    6  N   UNL     1       5.127  27.178  57.393  1.00  0.00    -0.181 NA
HETATM    7  N   UNL     1       5.330  28.017  53.965  1.00  0.00    -0.343 N 
HETATM    8  C   UNL     1       4.935  29.363  53.925  1.00  0.00     0.021 C 
HETATM    9  C   UNL     1       4.668  29.922  52.547  1.00  0.00     0.069 C 
HETATM   10  C   UNL     1       4.791  30.078  55.069  1.00  0.00     0.061 C 
HETATM   11  H   UNL     1       5.170  27.526  53.085  1.00  0.00     0.167 HD
ENDROOT
BRANCH   4  12
HETATM   12  C   UNL     1       5.938  24.848  54.654  1.00  0.00     0.261 C 
HETATM   13  N   UNL     1       6.973  24.089  55.171  1.00  0.00    -0.323 N 
HETATM   14  H   UNL     1       7.346  24.407  56.057  1.00  0.00     0.169 HD
HETATM   15  O   UNL     1       5.292  24.593  53.647  1.00  0.00    -0.267 OA
BRANCH  13  16
HETATM   16  C   UNL     1       7.455  22.855  54.691  1.00  0.00     0.035 A 
HETATM   17  C   UNL     1       7.585  21.707  55.479  1.00  0.00     0.032 A 
HETATM   18  C   UNL     1       8.111  20.530  54.936  1.00  0.00     0.044 A 
HETATM   19  C   UNL     1       8.498  20.500  53.604  1.00  0.00     0.116 A 
HETATM   20  F   UNL     1       9.007  19.375  53.087  1.00  0.00    -0.206 F 
HETATM   21  C   UNL     1       8.368  21.626  52.802  1.00  0.00     0.044 A 
HETATM   22  C   UNL     1       7.847  22.804  53.346  1.00  0.00     0.032 A 
ENDBRANCH  13  16
ENDBRANCH   4  12
BRANCH   1  23
HETATM   23  C   UNL     1       6.238  30.046  57.204  1.00  0.00     0.005 A 
HETATM   24  C   UNL     1       6.088  31.044  58.190  1.00  0.00     0.077 A 
HETATM   25  C   UNL     1       7.214  31.514  58.878  1.00  0.00     0.037 A 
HETATM   26  C   UNL     1       8.486  31.026  58.579  1.00  0.00     0.003 A 
HETATM   27  C   UNL     1       8.648  30.063  57.591  1.00  0.00     0.001 A 
HETATM   28  C   UNL     1       7.535  29.578  56.909  1.00  0.00     0.012 A 
BRANCH  24  29
HETATM   29  O   UNL     1       4.815  31.476  58.440  1.00  0.00    -0.351 OA
BRANCH  29  30
HETATM   30  C   UNL     1       4.631  32.405  59.508  1.00  0.00     0.171 C 
HETATM   31  C   UNL     1       3.364  32.020  60.251  1.00  0.00     0.034 C 
ENDBRANCH  29  30
ENDBRANCH  24  29
ENDBRANCH   1  23
BRANCH  10  32
HETATM   32  C   UNL     1       4.075  31.391  55.064  1.00  0.00     0.256 C 
HETATM   33  N   UNL     1       4.889  32.482  54.860  1.00  0.00    -0.323 N 
HETATM   34  H   UNL     1       5.845  32.311  54.576  1.00  0.00     0.169 HD
HETATM   35  O   UNL     1       2.870  31.417  55.292  1.00  0.00    -0.267 OA
BRANCH  33  36
HETATM   36  C   UNL     1       4.568  33.842  55.071  1.00  0.00     0.035 A 
HETATM   37  C   UNL     1       4.020  34.679  54.098  1.00  0.00     0.029 A 
HETATM   38  C   UNL     1       3.685  36.002  54.406  1.00  0.00     0.002 A 
HETATM   39  C   UNL     1       3.889  36.497  55.692  1.00  0.00     0.000 A 
HETATM   40  C   UNL     1       4.438  35.672  56.670  1.00  0.00     0.002 A 
HETATM   41  C   UNL     1       4.782  34.354  56.359  1.00  0.00     0.029 A 
ENDBRANCH  33  36
ENDBRANCH  10  32
TORSDOF 7
ENDMDL
MODEL 10
REMARK VINA RESULT:      -8.8      5.200      7.733
REMARK  7 active torsions:
REMARK  status: ('A' for Active; 'I' for Inactive)
REMARK    1  A    between atoms: C_2  and  O_3 
REMARK    2  A    between atoms: O_3  and  C_4 
REMARK    3  A    between atoms: C_5  and  C_6 
REMARK    4  A    between atoms: C_9  and  C_10 
REMARK       I    between atoms: C_10  and  N_11 
REMARK    5  A    between atoms: N_11  and  C_12 
REMARK    6  A    between atoms: C_25  and  C_26 
REMARK       I    between atoms: C_26  and  N_27 
REMARK    7  A    between atoms: N_27  and  C_28 
ROOT
HETATM    1  C   UNL     1       3.904  29.604  50.422  1.00  0.00     0.188 C 
HETATM    2  N   UNL     1       4.472  28.848  51.548  1.00  0.00    -0.239 N 
HETATM    3  C   UNL     1       5.345  27.795  51.410  1.00  0.00     0.142 C 
HETATM    4  C   UNL     1       5.690  27.422  52.694  1.00  0.00     0.097 C 
HETATM    5  C   UNL     1       4.848  28.218  53.515  1.00  0.00     0.160 C 
HETATM    6  N   UNL     1       4.094  29.076  52.825  1.00  0.00    -0.181 NA
HETATM    7  N   UNL     1       5.651  27.355  50.159  1.00  0.00    -0.343 N 
HETATM    8  C   UNL     1       4.990  27.834  49.018  1.00  0.00     0.021 C 
HETATM    9  C   UNL     1       5.264  27.076  47.741  1.00  0.00     0.069 C 
HETATM   10  C   UNL     1       4.150  28.897  49.098  1.00  0.00     0.061 C 
HETATM   11  H   UNL     1       6.053  26.425  50.029  1.00  0.00     0.167 HD
ENDROOT
BRANCH   4  12
HETATM   12  C   UNL     1       6.658  26.450  53.168  1.00  0.00     0.261 C 
HETATM   13  N   UNL     1       6.126  25.187  53.358  1.00  0.00    -0.323 N 
HETATM   14  H   UNL     1       5.146  25.087  53.126  1.00  0.00     0.169 HD
HETATM   15  O   UNL     1       7.833  26.764  53.305  1.00  0.00    -0.267 OA
BRANCH  13  16
HETATM   16  C   UNL     1       6.819  24.004  53.686  1.00  0.00     0.035 A 
HETATM   17  C   UNL     1       7.405  23.154  52.743  1.00  0.00     0.032 A 
HETATM   18  C   UNL     1       8.041  21.976  53.148  1.00  0.00     0.044 A 
HETATM   19  C   UNL     1       8.098  21.654  54.496  1.00  0.00     0.116 A 
HETATM   20  F   UNL     1       8.702  20.524  54.882  1.00  0.00    -0.206 F 
HETATM   21  C   UNL     1       7.532  22.489  55.450  1.00  0.00     0.044 A 
HETATM   22  C   UNL     1       6.892  23.664  55.045  1.00  0.00     0.032 A 
ENDBRANCH  13  16
ENDBRANCH   4  12
BRANCH   1  23
HETATM   23  C   UNL     1       4.385  31.059  50.485  1.00  0.00     0.005 A 
HETATM   24  C   UNL     1       3.604  32.110  51.008  1.00  0.00     0.077 A 
HETATM   25  C   UNL     1       4.130  33.407  51.060  1.00  0.00     0.037 A 
HETATM   26  C   UNL     1       5.409  33.676  50.573  1.00  0.00     0.003 A 
HETATM   27  C   UNL     1       6.177  32.653  50.031  1.00  0.00     0.001 A 
HETATM   28  C   UNL     1       5.671  31.356  49.986  1.00  0.00     0.012 A 
BRANCH  24  29
HETATM   29  O   UNL     1       2.361  31.780  51.474  1.00  0.00    -0.351 OA
BRANCH  29  30
HETATM   30  C   UNL     1       1.241  32.096  50.648  1.00  0.00     0.171 C 
HETATM   31  C   UNL     1       0.359  33.071  51.407  1.00  0.00     0.034 C 
ENDBRANCH  29  30
ENDBRANCH  24  29
ENDBRANCH   1  23
BRANCH  10  32
HETATM   32  C   UNL     1       3.209  29.213  47.980  1.00  0.00     0.256 C 
HETATM   33  N   UNL     1       1.928  28.742  48.164  1.00  0.00    -0.323 N 
HETATM   34  H   UNL     1       1.687  28.378  49.077  1.00  0.00     0.169 HD
HETATM   35  O   UNL     1       3.633  29.792  46.986  1.00  0.00    -0.267 OA
BRANCH  33  36
HETATM   36  C   UNL     1       0.907  28.638  47.195  1.00  0.00     0.035 A 
HETATM   37  C   UNL     1       0.637  27.483  46.459  1.00  0.00     0.029 A 
HETATM   38  C   UNL     1      -0.427  27.450  45.552  1.00  0.00     0.002 A 
HETATM   39  C   UNL     1      -1.236  28.571  45.377  1.00  0.00     0.000 A 
HETATM   40  C   UNL     1      -0.975  29.730  46.102  1.00  0.00     0.002 A 
HETATM   41  C   UNL     1       0.096  29.766  47.001  1.00  0.00     0.029 A 
ENDBRANCH  33  36
ENDBRANCH  10  32
TORSDOF 7
ENDMDL
