MODEL 1
REMARK VINA RESULT:     -10.2      0.000      0.000
REMARK  4 active torsions:
REMARK  status: ('A' for Active; 'I' for Inactive)
REMARK    1  A    between atoms: O_2  and  C_3 
REMARK    2  A    between atoms: C_4  and  C_5 
REMARK    3  A    between atoms: C_9  and  C_10 
REMARK       I    between atoms: C_10  and  N_11 
REMARK    4  A    between atoms: N_11  and  N_12 
ROOT
HETATM    1  C   UNL     1       8.960  29.367  56.988  1.00  0.00     0.289 C 
HETATM    2  N   UNL     1       7.832  28.586  56.792  1.00  0.00    -0.241 N 
HETATM    3  O   UNL     1       9.967  29.308  56.286  1.00  0.00    -0.264 OA
HETATM    4  H   UNL     1       7.015  28.691  57.393  1.00  0.00     0.192 HD
ENDROOT
BRANCH   1   5
HETATM    5  C   UNL     1       8.871  30.298  58.084  1.00  0.00     0.121 A 
HETATM    6  N   UNL     1       9.722  31.366  58.171  1.00  0.00    -0.272 N 
HETATM    7  N   UNL     1       9.491  32.174  59.215  1.00  0.00    -0.174 NA
HETATM    8  H   UNL     1      10.467  31.599  57.522  1.00  0.00     0.189 HD
HETATM    9  C   UNL     1       8.486  31.582  59.879  1.00  0.00     0.092 A 
HETATM   10  C   UNL     1       8.060  30.406  59.196  1.00  0.00     0.071 A 
BRANCH   9  11
HETATM   11  C   UNL     1       7.910  32.158  61.093  1.00  0.00     0.028 A 
HETATM   12  C   UNL     1       6.666  32.808  61.104  1.00  0.00     0.080 A 
HETATM   13  C   UNL     1       6.155  33.347  62.292  1.00  0.00     0.037 A 
HETATM   14  C   UNL     1       6.867  33.215  63.483  1.00  0.00     0.003 A 
HETATM   15  C   UNL     1       8.098  32.563  63.489  1.00  0.00     0.001 A 
HETATM   16  C   UNL     1       8.618  32.041  62.302  1.00  0.00     0.017 A 
BRANCH  12  17
HETATM   17  O   UNL     1       5.979  33.018  59.934  1.00  0.00    -0.355 OA
HETATM   18  C   UNL     1       4.721  32.344  59.956  1.00  0.00     0.210 C 
ENDBRANCH  12  17
ENDBRANCH   9  11
ENDBRANCH   1   5
BRANCH   2  19
HETATM   19  N   UNL     1       7.777  27.700  55.748  1.00  0.00    -0.165 NA
HETATM   20  C   UNL     1       7.713  26.444  56.053  1.00  0.00     0.157 A 
HETATM   21  C   UNL     1       7.687  25.800  57.442  1.00  0.00     0.277 A 
HETATM   22  C   UNL     1       7.638  25.342  55.102  1.00  0.00     0.027 A 
HETATM   23  O   UNL     1       7.728  26.413  58.488  1.00  0.00    -0.266 OA
HETATM   24  N   UNL     1       7.605  24.442  57.221  1.00  0.00    -0.321 N 
HETATM   25  C   UNL     1       7.575  24.170  55.853  1.00  0.00     0.048 A 
HETATM   26  H   UNL     1       7.568  23.757  57.960  1.00  0.00     0.169 HD
HETATM   27  C   UNL     1       7.488  22.935  55.246  1.00  0.00     0.030 A 
HETATM   28  C   UNL     1       7.468  22.909  53.845  1.00  0.00     0.002 A 
HETATM   29  C   UNL     1       7.534  24.099  53.091  1.00  0.00     0.001 A 
HETATM   30  C   UNL     1       7.620  25.343  53.722  1.00  0.00     0.016 A 
ENDBRANCH   2  19
TORSDOF 4
ENDMDL
MODEL 2
REMARK VINA RESULT:      -9.6      6.998     10.631
REMARK  4 active torsions:
REMARK  status: ('A' for Active; 'I' for Inactive)
REMARK    1  A    between atoms: O_2  and  C_3 
REMARK    2  A    between atoms: C_4  and  C_5 
REMARK    3  A    between atoms: C_9  and  C_10 
REMARK       I    between atoms: C_10  and  N_11 
REMARK    4  A    between atoms: N_11  and  N_12 
ROOT
HETATM    1  C   UNL     1       5.187  26.698  51.497  1.00  0.00     0.289 C 
HETATM    2  N   UNL     1       5.230  26.873  50.123  1.00  0.00    -0.241 N 
HETATM    3  O   UNL     1       4.461  27.344  52.250  1.00  0.00    -0.264 OA
HETATM    4  H   UNL     1       5.837  26.294  49.543  1.00  0.00     0.192 HD
ENDROOT
BRANCH   1   5
HETATM    5  C   UNL     1       6.054  25.666  52.006  1.00  0.00     0.121 A 
HETATM    6  N   UNL     1       7.394  25.674  51.733  1.00  0.00    -0.272 N 
HETATM    7  N   UNL     1       8.084  24.682  52.313  1.00  0.00    -0.174 NA
HETATM    8  H   UNL     1       7.892  26.357  51.170  1.00  0.00     0.189 HD
HETATM    9  C   UNL     1       7.150  23.952  52.945  1.00  0.00     0.092 A 
HETATM   10  C   UNL     1       5.863  24.543  52.786  1.00  0.00     0.071 A 
BRANCH   9  11
HETATM   11  C   UNL     1       7.489  22.765  53.727  1.00  0.00     0.028 A 
HETATM   12  C   UNL     1       7.424  22.741  55.130  1.00  0.00     0.080 A 
HETATM   13  C   UNL     1       7.761  21.581  55.838  1.00  0.00     0.037 A 
HETATM   14  C   UNL     1       8.136  20.427  55.152  1.00  0.00     0.003 A 
HETATM   15  C   UNL     1       8.195  20.433  53.761  1.00  0.00     0.001 A 
HETATM   16  C   UNL     1       7.877  21.595  53.053  1.00  0.00     0.017 A 
BRANCH  12  17
HETATM   17  O   UNL     1       7.130  23.884  55.833  1.00  0.00    -0.355 OA
HETATM   18  C   UNL     1       8.152  24.168  56.789  1.00  0.00     0.210 C 
ENDBRANCH  12  17
ENDBRANCH   9  11
ENDBRANCH   1   5
BRANCH   2  19
HETATM   19  N   UNL     1       4.412  27.790  49.517  1.00  0.00    -0.165 NA
HETATM   20  C   UNL     1       3.459  27.321  48.776  1.00  0.00     0.157 A 
HETATM   21  C   UNL     1       3.113  25.858  48.481  1.00  0.00     0.277 A 
HETATM   22  C   UNL     1       2.475  28.117  48.052  1.00  0.00     0.027 A 
HETATM   23  O   UNL     1       3.718  24.903  48.922  1.00  0.00    -0.266 OA
HETATM   24  N   UNL     1       2.014  25.897  47.650  1.00  0.00    -0.321 N 
HETATM   25  C   UNL     1       1.637  27.216  47.399  1.00  0.00     0.048 A 
HETATM   26  H   UNL     1       1.558  25.073  47.289  1.00  0.00     0.169 HD
HETATM   27  C   UNL     1       0.584  27.653  46.623  1.00  0.00     0.030 A 
HETATM   28  C   UNL     1       0.394  29.038  46.520  1.00  0.00     0.002 A 
HETATM   29  C   UNL     1       1.248  29.943  47.184  1.00  0.00     0.001 A 
HETATM   30  C   UNL     1       2.310  29.484  47.967  1.00  0.00     0.016 A 
ENDBRANCH   2  19
TORSDOF 4
ENDMDL
MODEL 3
REMARK VINA RESULT:      -9.6      2.178      3.417
REMARK  4 active torsions:
REMARK  status: ('A' for Active; 'I' for Inactive)
REMARK    1  A    between atoms: O_2  and  C_3 
REMARK    2  A    between atoms: C_4  and  C_5 
REMARK    3  A    between atoms: C_9  and  C_10 
REMARK       I    between atoms: C_10  and  N_11 
REMARK    4  A    between atoms: N_11  and  N_12 
ROOT
HETATM    1  C   UNL     1       6.444  27.317  55.275  1.00  0.00     0.289 C 
HETATM    2  N   UNL     1       7.632  26.627  55.092  1.00  0.00    -0.241 N 
HETATM    3  O   UNL     1       5.359  26.947  54.833  1.00  0.00    -0.264 OA
HETATM    4  H   UNL     1       8.501  26.969  55.500  1.00  0.00     0.192 HD
ENDROOT
BRANCH   1   5
HETATM    5  C   UNL     1       6.556  28.520  56.060  1.00  0.00     0.121 A 
HETATM    6  N   UNL     1       5.933  29.675  55.671  1.00  0.00    -0.272 N 
HETATM    7  N   UNL     1       6.082  30.699  56.523  1.00  0.00    -0.174 NA
HETATM    8  H   UNL     1       5.370  29.806  54.836  1.00  0.00     0.189 HD
HETATM    9  C   UNL     1       6.888  30.219  57.483  1.00  0.00     0.092 A 
HETATM   10  C   UNL     1       7.199  28.850  57.236  1.00  0.00     0.071 A 
BRANCH   9  11
HETATM   11  C   UNL     1       7.294  31.025  58.633  1.00  0.00     0.028 A 
HETATM   12  C   UNL     1       8.621  31.071  59.092  1.00  0.00     0.080 A 
HETATM   13  C   UNL     1       8.962  31.855  60.201  1.00  0.00     0.037 A 
HETATM   14  C   UNL     1       7.991  32.625  60.840  1.00  0.00     0.003 A 
HETATM   15  C   UNL     1       6.674  32.598  60.388  1.00  0.00     0.001 A 
HETATM   16  C   UNL     1       6.327  31.801  59.295  1.00  0.00     0.017 A 
BRANCH  12  17
HETATM   17  O   UNL     1       9.580  30.267  58.529  1.00  0.00    -0.355 OA
HETATM   18  C   UNL     1      10.525  31.044  57.793  1.00  0.00     0.210 C 
ENDBRANCH  12  17
ENDBRANCH   9  11
ENDBRANCH   1   5
BRANCH   2  19
HETATM   19  N   UNL     1       7.643  25.440  54.407  1.00  0.00    -0.165 NA
HETATM   20  C   UNL     1       7.909  24.375  55.093  1.00  0.00     0.157 A 
HETATM   21  C   UNL     1       8.215  24.255  56.588  1.00  0.00     0.277 A 
HETATM   22  C   UNL     1       7.962  23.017  54.565  1.00  0.00     0.027 A 
HETATM   23  O   UNL     1       8.253  25.188  57.362  1.00  0.00    -0.266 OA
HETATM   24  N   UNL     1       8.417  22.911  56.819  1.00  0.00    -0.321 N 
HETATM   25  C   UNL     1       8.268  22.183  55.639  1.00  0.00     0.048 A 
HETATM   26  H   UNL     1       8.637  22.528  57.726  1.00  0.00     0.169 HD
HETATM   27  C   UNL     1       8.387  20.819  55.475  1.00  0.00     0.030 A 
HETATM   28  C   UNL     1       8.187  20.309  54.185  1.00  0.00     0.002 A 
HETATM   29  C   UNL     1       7.878  21.159  53.103  1.00  0.00     0.001 A 
HETATM   30  C   UNL     1       7.761  22.539  53.287  1.00  0.00     0.016 A 
ENDBRANCH   2  19
TORSDOF 4
ENDMDL
MODEL 4
REMARK VINA RESULT:      -9.1      2.126      9.212
REMARK  4 active torsions:
REMARK  status: ('A' for Active; 'I' for Inactive)
REMARK    1  A    between atoms: O_2  and  C_3 
REMARK    2  A    between atoms: C_4  and  C_5 
REMARK    3  A    between atoms: C_9  and  C_10 
REMARK       I    between atoms: C_10  and  N_11 
REMARK    4  A    between atoms: N_11  and  N_12 
ROOT
HETATM    1  C   UNL     1       6.110  30.284  57.489  1.00  0.00     0.289 C 
HETATM    2  N   UNL     1       6.972  30.698  58.493  1.00  0.00    -0.241 N 
HETATM    3  O   UNL     1       4.955  30.684  57.367  1.00  0.00    -0.264 OA
HETATM    4  H   UNL     1       7.929  30.348  58.534  1.00  0.00     0.192 HD
ENDROOT
BRANCH   1   5
HETATM    5  C   UNL     1       6.674  29.345  56.553  1.00  0.00     0.121 A 
HETATM    6  N   UNL     1       7.830  29.630  55.879  1.00  0.00    -0.272 N 
HETATM    7  N   UNL     1       8.263  28.644  55.081  1.00  0.00    -0.174 NA
HETATM    8  H   UNL     1       8.376  30.482  55.951  1.00  0.00     0.189 HD
HETATM    9  C   UNL     1       7.321  27.693  55.184  1.00  0.00     0.092 A 
HETATM   10  C   UNL     1       6.311  28.089  56.109  1.00  0.00     0.071 A 
BRANCH   9  11
HETATM   11  C   UNL     1       7.418  26.421  54.471  1.00  0.00     0.028 A 
HETATM   12  C   UNL     1       7.644  25.201  55.130  1.00  0.00     0.080 A 
HETATM   13  C   UNL     1       7.733  24.007  54.404  1.00  0.00     0.037 A 
HETATM   14  C   UNL     1       7.567  24.015  53.019  1.00  0.00     0.003 A 
HETATM   15  C   UNL     1       7.332  25.216  52.355  1.00  0.00     0.001 A 
HETATM   16  C   UNL     1       7.262  26.411  53.074  1.00  0.00     0.017 A 
BRANCH  12  17
HETATM   17  O   UNL     1       7.885  25.174  56.481  1.00  0.00    -0.355 OA
HETATM   18  C   UNL     1       8.281  23.867  56.899  1.00  0.00     0.210 C 
ENDBRANCH  12  17
ENDBRANCH   9  11
ENDBRANCH   1   5
BRANCH   2  19
HETATM   19  N   UNL     1       6.566  31.629  59.412  1.00  0.00    -0.165 NA
HETATM   20  C   UNL     1       7.212  31.660  60.534  1.00  0.00     0.157 A 
HETATM   21  C   UNL     1       8.387  30.787  60.982  1.00  0.00     0.277 A 
HETATM   22  C   UNL     1       6.951  32.574  61.639  1.00  0.00     0.027 A 
HETATM   23  O   UNL     1       8.889  29.908  60.313  1.00  0.00    -0.266 OA
HETATM   24  N   UNL     1       8.713  31.224  62.247  1.00  0.00    -0.321 N 
HETATM   25  C   UNL     1       7.877  32.270  62.635  1.00  0.00     0.048 A 
HETATM   26  H   UNL     1       9.461  30.831  62.798  1.00  0.00     0.169 HD
HETATM   27  C   UNL     1       7.902  32.968  63.824  1.00  0.00     0.030 A 
HETATM   28  C   UNL     1       6.959  33.991  63.988  1.00  0.00     0.002 A 
HETATM   29  C   UNL     1       6.024  34.292  62.976  1.00  0.00     0.001 A 
HETATM   30  C   UNL     1       6.013  33.577  61.776  1.00  0.00     0.016 A 
ENDBRANCH   2  19
TORSDOF 4
ENDMDL
MODEL 5
REMARK VINA RESULT:      -9.0      7.028     13.470
REMARK  4 active torsions:
REMARK  status: ('A' for Active; 'I' for Inactive)
REMARK    1  A    between atoms: O_2  and  C_3 
REMARK    2  A    between atoms: C_4  and  C_5 
REMARK    3  A    between atoms: C_9  and  C_10 
REMARK       I    between atoms: C_10  and  N_11 
REMARK    4  A    between atoms: N_11  and  N_12 
ROOT
HETATM    1  C   UNL     1       4.943  34.355  67.267  1.00  0.00     0.289 C 
HETATM    2  N   UNL     1       5.521  33.666  68.321  1.00  0.00    -0.241 N 
HETATM    3  O   UNL     1       4.229  35.346  67.402  1.00  0.00    -0.264 OA
HETATM    4  H   UNL     1       6.123  32.862  68.150  1.00  0.00     0.192 HD
ENDROOT
BRANCH   1   5
HETATM    5  C   UNL     1       5.258  33.839  65.959  1.00  0.00     0.121 A 
HETATM    6  N   UNL     1       4.269  33.427  65.108  1.00  0.00    -0.272 N 
HETATM    7  N   UNL     1       4.705  33.019  63.908  1.00  0.00    -0.174 NA
HETATM    8  H   UNL     1       3.271  33.429  65.296  1.00  0.00     0.189 HD
HETATM    9  C   UNL     1       6.042  33.107  63.992  1.00  0.00     0.092 A 
HETATM   10  C   UNL     1       6.430  33.629  65.260  1.00  0.00     0.071 A 
BRANCH   9  11
HETATM   11  C   UNL     1       6.915  32.763  62.871  1.00  0.00     0.028 A 
HETATM   12  C   UNL     1       6.569  33.024  61.536  1.00  0.00     0.080 A 
HETATM   13  C   UNL     1       7.437  32.673  60.494  1.00  0.00     0.037 A 
HETATM   14  C   UNL     1       8.671  32.088  60.778  1.00  0.00     0.003 A 
HETATM   15  C   UNL     1       9.031  31.834  62.099  1.00  0.00     0.001 A 
HETATM   16  C   UNL     1       8.159  32.165  63.138  1.00  0.00     0.017 A 
BRANCH  12  17
HETATM   17  O   UNL     1       5.331  33.529  61.223  1.00  0.00    -0.355 OA
HETATM   18  C   UNL     1       4.654  32.677  60.299  1.00  0.00     0.210 C 
ENDBRANCH  12  17
ENDBRANCH   9  11
ENDBRANCH   1   5
BRANCH   2  19
HETATM   19  N   UNL     1       5.337  34.094  69.610  1.00  0.00    -0.165 NA
HETATM   20  C   UNL     1       6.329  34.714  70.164  1.00  0.00     0.157 A 
HETATM   21  C   UNL     1       7.701  35.043  69.569  1.00  0.00     0.277 A 
HETATM   22  C   UNL     1       6.341  35.258  71.517  1.00  0.00     0.027 A 
HETATM   23  O   UNL     1       8.055  34.748  68.447  1.00  0.00    -0.266 OA
HETATM   24  N   UNL     1       8.384  35.717  70.559  1.00  0.00    -0.321 N 
HETATM   25  C   UNL     1       7.592  35.846  71.699  1.00  0.00     0.048 A 
HETATM   26  H   UNL     1       9.325  36.064  70.450  1.00  0.00     0.169 HD
HETATM   27  C   UNL     1       7.925  36.464  72.886  1.00  0.00     0.030 A 
HETATM   28  C   UNL     1       6.956  36.474  73.898  1.00  0.00     0.002 A 
HETATM   29  C   UNL     1       5.693  35.876  73.707  1.00  0.00     0.001 A 
HETATM   30  C   UNL     1       5.371  35.255  72.498  1.00  0.00     0.016 A 
ENDBRANCH   2  19
TORSDOF 4
ENDMDL
MODEL 6
REMARK VINA RESULT:      -8.9      2.722      9.425
REMARK  4 active torsions:
REMARK  status: ('A' for Active; 'I' for Inactive)
REMARK    1  A    between atoms: O_2  and  C_3 
REMARK    2  A    between atoms: C_4  and  C_5 
REMARK    3  A    between atoms: C_9  and  C_10 
REMARK       I    between atoms: C_10  and  N_11 
REMARK    4  A    between atoms: N_11  and  N_12 
ROOT
HETATM    1  C   UNL     1       5.677  27.682  54.658  1.00  0.00     0.289 C 
HETATM    2  N   UNL     1       6.424  28.701  55.227  1.00  0.00    -0.241 N 
HETATM    3  O   UNL     1       4.463  27.738  54.475  1.00  0.00    -0.264 OA
HETATM    4  H   UNL     1       7.433  28.609  55.336  1.00  0.00     0.192 HD
ENDROOT
BRANCH   1   5
HETATM    5  C   UNL     1       6.436  26.523  54.259  1.00  0.00     0.121 A 
HETATM    6  N   UNL     1       7.331  26.588  53.227  1.00  0.00    -0.272 N 
HETATM    7  N   UNL     1       8.000  25.449  53.001  1.00  0.00    -0.174 NA
HETATM    8  H   UNL     1       7.539  27.404  52.658  1.00  0.00     0.189 HD
HETATM    9  C   UNL     1       7.481  24.578  53.880  1.00  0.00     0.092 A 
HETATM   10  C   UNL     1       6.503  25.215  54.697  1.00  0.00     0.071 A 
BRANCH   9  11
HETATM   11  C   UNL     1       7.951  23.197  53.976  1.00  0.00     0.028 A 
HETATM   12  C   UNL     1       8.733  22.739  55.049  1.00  0.00     0.080 A 
HETATM   13  C   UNL     1       9.164  21.407  55.097  1.00  0.00     0.037 A 
HETATM   14  C   UNL     1       8.792  20.514  54.093  1.00  0.00     0.003 A 
HETATM   15  C   UNL     1       8.007  20.952  53.030  1.00  0.00     0.001 A 
HETATM   16  C   UNL     1       7.592  22.285  52.969  1.00  0.00     0.017 A 
BRANCH  12  17
HETATM   17  O   UNL     1       9.176  23.613  56.011  1.00  0.00    -0.355 OA
HETATM   18  C   UNL     1       8.479  23.411  57.240  1.00  0.00     0.210 C 
ENDBRANCH  12  17
ENDBRANCH   9  11
ENDBRANCH   1   5
BRANCH   2  19
HETATM   19  N   UNL     1       5.821  29.874  55.598  1.00  0.00    -0.165 NA
HETATM   20  C   UNL     1       6.076  30.307  56.791  1.00  0.00     0.157 A 
HETATM   21  C   UNL     1       6.975  29.681  57.862  1.00  0.00     0.277 A 
HETATM   22  C   UNL     1       5.549  31.533  57.380  1.00  0.00     0.027 A 
HETATM   23  O   UNL     1       7.592  28.646  57.725  1.00  0.00    -0.266 OA
HETATM   24  N   UNL     1       6.914  30.534  58.942  1.00  0.00    -0.321 N 
HETATM   25  C   UNL     1       6.083  31.619  58.665  1.00  0.00     0.048 A 
HETATM   26  H   UNL     1       7.414  30.379  59.805  1.00  0.00     0.169 HD
HETATM   27  C   UNL     1       5.783  32.679  59.494  1.00  0.00     0.030 A 
HETATM   28  C   UNL     1       4.921  33.663  58.991  1.00  0.00     0.002 A 
HETATM   29  C   UNL     1       4.384  33.568  57.690  1.00  0.00     0.001 A 
HETATM   30  C   UNL     1       4.699  32.488  56.862  1.00  0.00     0.016 A 
ENDBRANCH   2  19
TORSDOF 4
ENDMDL
MODEL 7
REMARK VINA RESULT:      -8.9      2.506      3.808
REMARK  4 active torsions:
REMARK  status: ('A' for Active; 'I' for Inactive)
REMARK    1  A    between atoms: O_2  and  C_3 
REMARK    2  A    between atoms: C_4  and  C_5 
REMARK    3  A    between atoms: C_9  and  C_10 
REMARK       I    between atoms: C_10  and  N_11 
REMARK    4  A    between atoms: N_11  and  N_12 
ROOT
HETATM    1  C   UNL     1       5.937  27.152  54.638  1.00  0.00     0.289 C 
HETATM    2  N   UNL     1       7.146  26.481  54.733  1.00  0.00    -0.241 N 
HETATM    3  O   UNL     1       4.977  26.749  53.985  1.00  0.00    -0.264 OA
HETATM    4  H   UNL     1       7.903  26.851  55.307  1.00  0.00     0.192 HD
ENDROOT
BRANCH   1   5
HETATM    5  C   UNL     1       5.861  28.378  55.392  1.00  0.00     0.121 A 
HETATM    6  N   UNL     1       5.304  29.504  54.851  1.00  0.00    -0.272 N 
HETATM    7  N   UNL     1       5.255  30.553  55.684  1.00  0.00    -0.174 NA
HETATM    8  H   UNL     1       4.918  29.597  53.916  1.00  0.00     0.189 HD
HETATM    9  C   UNL     1       5.862  30.120  56.800  1.00  0.00     0.092 A 
HETATM   10  C   UNL     1       6.247  28.755  56.662  1.00  0.00     0.071 A 
BRANCH   9  11
HETATM   11  C   UNL     1       6.010  30.966  57.983  1.00  0.00     0.028 A 
HETATM   12  C   UNL     1       7.264  31.295  58.523  1.00  0.00     0.080 A 
HETATM   13  C   UNL     1       7.357  32.107  59.660  1.00  0.00     0.037 A 
HETATM   14  C   UNL     1       6.203  32.623  60.249  1.00  0.00     0.003 A 
HETATM   15  C   UNL     1       4.954  32.314  59.716  1.00  0.00     0.001 A 
HETATM   16  C   UNL     1       4.857  31.488  58.594  1.00  0.00     0.017 A 
BRANCH  12  17
HETATM   17  O   UNL     1       8.411  30.741  58.010  1.00  0.00    -0.355 OA
HETATM   18  C   UNL     1       9.241  30.234  59.055  1.00  0.00     0.210 C 
ENDBRANCH  12  17
ENDBRANCH   9  11
ENDBRANCH   1   5
BRANCH   2  19
HETATM   19  N   UNL     1       7.320  25.277  54.102  1.00  0.00    -0.165 NA
HETATM   20  C   UNL     1       7.774  24.302  54.823  1.00  0.00     0.157 A 
HETATM   21  C   UNL     1       8.148  24.308  56.308  1.00  0.00     0.277 A 
HETATM   22  C   UNL     1       8.022  22.944  54.354  1.00  0.00     0.027 A 
HETATM   23  O   UNL     1       8.066  25.274  57.037  1.00  0.00    -0.266 OA
HETATM   24  N   UNL     1       8.567  23.026  56.590  1.00  0.00    -0.321 N 
HETATM   25  C   UNL     1       8.493  22.224  55.451  1.00  0.00     0.048 A 
HETATM   26  H   UNL     1       8.876  22.728  57.503  1.00  0.00     0.169 HD
HETATM   27  C   UNL     1       8.819  20.888  55.343  1.00  0.00     0.030 A 
HETATM   28  C   UNL     1       8.657  20.288  54.087  1.00  0.00     0.002 A 
HETATM   29  C   UNL     1       8.180  21.024  52.982  1.00  0.00     0.001 A 
HETATM   30  C   UNL     1       7.853  22.376  53.109  1.00  0.00     0.016 A 
ENDBRANCH   2  19
TORSDOF 4
ENDMDL
MODEL 8
REMARK VINA RESULT:      -8.7      1.856      2.305
REMARK  4 active torsions:
REMARK  status: ('A' for Active; 'I' for Inactive)
REMARK    1  A    between atoms: O_2  and  C_3 
REMARK    2  A    between atoms: C_4  and  C_5 
REMARK    3  A    between atoms: C_9  and  C_10 
REMARK       I    between atoms: C_10  and  N_11 
REMARK    4  A    between atoms: N_11  and  N_12 
ROOT
HETATM    1  C   UNL     1       6.442  30.041  56.370  1.00  0.00     0.289 C 
HETATM    2  N   UNL     1       7.412  29.053  56.413  1.00  0.00    -0.241 N 
HETATM    3  O   UNL     1       5.639  30.178  55.450  1.00  0.00    -0.264 OA
HETATM    4  H   UNL     1       8.039  28.973  57.212  1.00  0.00     0.192 HD
ENDROOT
BRANCH   1   5
HETATM    5  C   UNL     1       6.413  30.915  57.516  1.00  0.00     0.121 A 
HETATM    6  N   UNL     1       5.720  32.094  57.486  1.00  0.00    -0.272 N 
HETATM    7  N   UNL     1       5.740  32.778  58.638  1.00  0.00    -0.174 NA
HETATM    8  H   UNL     1       5.192  32.464  56.701  1.00  0.00     0.189 HD
HETATM    9  C   UNL     1       6.531  32.052  59.443  1.00  0.00     0.092 A 
HETATM   10  C   UNL     1       6.966  30.867  58.780  1.00  0.00     0.071 A 
BRANCH   9  11
HETATM   11  C   UNL     1       6.810  32.447  60.823  1.00  0.00     0.028 A 
HETATM   12  C   UNL     1       7.894  31.931  61.552  1.00  0.00     0.080 A 
HETATM   13  C   UNL     1       8.120  32.336  62.873  1.00  0.00     0.037 A 
HETATM   14  C   UNL     1       7.286  33.283  63.467  1.00  0.00     0.003 A 
HETATM   15  C   UNL     1       6.214  33.811  62.752  1.00  0.00     0.001 A 
HETATM   16  C   UNL     1       5.975  33.393  61.440  1.00  0.00     0.017 A 
BRANCH  12  17
HETATM   17  O   UNL     1       8.685  30.944  61.018  1.00  0.00    -0.355 OA
HETATM   18  C   UNL     1       9.352  30.215  62.049  1.00  0.00     0.210 C 
ENDBRANCH  12  17
ENDBRANCH   9  11
ENDBRANCH   1   5
BRANCH   2  19
HETATM   19  N   UNL     1       7.502  28.129  55.404  1.00  0.00    -0.165 NA
HETATM   20  C   UNL     1       7.629  26.891  55.759  1.00  0.00     0.157 A 
HETATM   21  C   UNL     1       7.689  26.305  57.172  1.00  0.00     0.277 A 
HETATM   22  C   UNL     1       7.731  25.754  54.851  1.00  0.00     0.027 A 
HETATM   23  O   UNL     1       7.627  26.957  58.193  1.00  0.00    -0.266 OA
HETATM   24  N   UNL     1       7.818  24.943  57.004  1.00  0.00    -0.321 N 
HETATM   25  C   UNL     1       7.841  24.616  55.649  1.00  0.00     0.048 A 
HETATM   26  H   UNL     1       7.880  24.290  57.770  1.00  0.00     0.169 HD
HETATM   27  C   UNL     1       7.950  23.360  55.090  1.00  0.00     0.030 A 
HETATM   28  C   UNL     1       7.946  23.277  53.691  1.00  0.00     0.002 A 
HETATM   29  C   UNL     1       7.835  24.434  52.892  1.00  0.00     0.001 A 
HETATM   30  C   UNL     1       7.724  25.699  53.473  1.00  0.00     0.016 A 
ENDBRANCH   2  19
TORSDOF 4
ENDMDL
MODEL 9
REMARK VINA RESULT:      -8.6      3.512      4.789
REMARK  4 active torsions:
REMARK  status: ('A' for Active; 'I' for Inactive)
REMARK    1  A    between atoms: O_2  and  C_3 
REMARK    2  A    between atoms: C_4  and  C_5 
REMARK    3  A    between atoms: C_9  and  C_10 
REMARK       I    between atoms: C_10  and  N_11 
REMARK    4  A    between atoms: N_11  and  N_12 
ROOT
HETATM    1  C   UNL     1       3.737  31.478  58.675  1.00  0.00     0.289 C 
HETATM    2  N   UNL     1       4.175  30.243  58.224  1.00  0.00    -0.241 N 
HETATM    3  O   UNL     1       3.127  32.287  57.980  1.00  0.00    -0.264 OA
HETATM    4  H   UNL     1       4.660  29.601  58.851  1.00  0.00     0.192 HD
ENDROOT
BRANCH   1   5
HETATM    5  C   UNL     1       4.028  31.757  60.059  1.00  0.00     0.121 A 
HETATM    6  N   UNL     1       3.199  31.320  61.055  1.00  0.00    -0.272 N 
HETATM    7  N   UNL     1       3.622  31.609  62.294  1.00  0.00    -0.174 NA
HETATM    8  H   UNL     1       2.338  30.794  60.937  1.00  0.00     0.189 HD
HETATM    9  C   UNL     1       4.744  32.321  62.106  1.00  0.00     0.092 A 
HETATM   10  C   UNL     1       5.041  32.427  60.716  1.00  0.00     0.071 A 
BRANCH   9  11
HETATM   11  C   UNL     1       5.540  32.827  63.222  1.00  0.00     0.028 A 
HETATM   12  C   UNL     1       4.965  33.488  64.321  1.00  0.00     0.080 A 
HETATM   13  C   UNL     1       5.768  33.959  65.367  1.00  0.00     0.037 A 
HETATM   14  C   UNL     1       7.147  33.749  65.341  1.00  0.00     0.003 A 
HETATM   15  C   UNL     1       7.728  33.086  64.263  1.00  0.00     0.001 A 
HETATM   16  C   UNL     1       6.931  32.632  63.209  1.00  0.00     0.017 A 
BRANCH  12  17
HETATM   17  O   UNL     1       3.622  33.774  64.337  1.00  0.00    -0.355 OA
HETATM   18  C   UNL     1       3.310  34.684  65.392  1.00  0.00     0.210 C 
ENDBRANCH  12  17
ENDBRANCH   9  11
ENDBRANCH   1   5
BRANCH   2  19
HETATM   19  N   UNL     1       3.911  29.843  56.940  1.00  0.00    -0.165 NA
HETATM   20  C   UNL     1       4.907  29.372  56.261  1.00  0.00     0.157 A 
HETATM   21  C   UNL     1       6.363  29.195  56.700  1.00  0.00     0.277 A 
HETATM   22  C   UNL     1       4.843  28.884  54.888  1.00  0.00     0.027 A 
HETATM   23  O   UNL     1       6.794  29.490  57.795  1.00  0.00    -0.266 OA
HETATM   24  N   UNL     1       7.015  28.648  55.616  1.00  0.00    -0.321 N 
HETATM   25  C   UNL     1       6.130  28.463  54.555  1.00  0.00     0.048 A 
HETATM   26  H   UNL     1       7.997  28.417  55.614  1.00  0.00     0.169 HD
HETATM   27  C   UNL     1       6.409  27.936  53.312  1.00  0.00     0.030 A 
HETATM   28  C   UNL     1       5.348  27.842  52.401  1.00  0.00     0.002 A 
HETATM   29  C   UNL     1       4.050  28.271  52.746  1.00  0.00     0.001 A 
HETATM   30  C   UNL     1       3.783  28.802  54.010  1.00  0.00     0.016 A 
ENDBRANCH   2  19
TORSDOF 4
ENDMDL
MODEL 10
REMARK VINA RESULT:      -8.5      5.954      9.686
REMARK  4 active torsions:
REMARK  status: ('A' for Active; 'I' for Inactive)
REMARK    1  A    between atoms: O_2  and  C_3 
REMARK    2  A    between atoms: C_4  and  C_5 
REMARK    3  A    between atoms: C_9  and  C_10 
REMARK       I    between atoms: C_10  and  N_11 
REMARK    4  A    between atoms: N_11  and  N_12 
ROOT
HETATM    1  C   UNL     1       4.873  33.930  65.175  1.00  0.00     0.289 C 
HETATM    2  N   UNL     1       5.850  34.225  64.238  1.00  0.00    -0.241 N 
HETATM    3  O   UNL     1       3.780  33.441  64.898  1.00  0.00    -0.264 OA
HETATM    4  H   UNL     1       6.749  34.611  64.527  1.00  0.00     0.192 HD
ENDROOT
BRANCH   1   5
HETATM    5  C   UNL     1       5.233  34.217  66.540  1.00  0.00     0.121 A 
HETATM    6  N   UNL     1       4.274  34.454  67.487  1.00  0.00    -0.272 N 
HETATM    7  N   UNL     1       4.754  34.657  68.723  1.00  0.00    -0.174 NA
HETATM    8  H   UNL     1       3.270  34.464  67.340  1.00  0.00     0.189 HD
HETATM    9  C   UNL     1       6.087  34.613  68.574  1.00  0.00     0.092 A 
HETATM   10  C   UNL     1       6.430  34.328  67.220  1.00  0.00     0.071 A 
BRANCH   9  11
HETATM   11  C   UNL     1       7.001  34.776  69.703  1.00  0.00     0.028 A 
HETATM   12  C   UNL     1       7.388  33.703  70.522  1.00  0.00     0.080 A 
HETATM   13  C   UNL     1       8.264  33.907  71.595  1.00  0.00     0.037 A 
HETATM   14  C   UNL     1       8.785  35.177  71.842  1.00  0.00     0.003 A 
HETATM   15  C   UNL     1       8.418  36.248  71.031  1.00  0.00     0.001 A 
HETATM   16  C   UNL     1       7.529  36.051  69.971  1.00  0.00     0.017 A 
BRANCH  12  17
HETATM   17  O   UNL     1       6.833  32.459  70.349  1.00  0.00    -0.355 OA
HETATM   18  C   UNL     1       5.871  32.186  71.369  1.00  0.00     0.210 C 
ENDBRANCH  12  17
ENDBRANCH   9  11
ENDBRANCH   1   5
BRANCH   2  19
HETATM   19  N   UNL     1       5.643  33.947  62.912  1.00  0.00    -0.165 NA
HETATM   20  C   UNL     1       6.476  33.129  62.353  1.00  0.00     0.157 A 
HETATM   21  C   UNL     1       7.678  32.415  62.978  1.00  0.00     0.277 A 
HETATM   22  C   UNL     1       6.432  32.693  60.962  1.00  0.00     0.027 A 
HETATM   23  O   UNL     1       8.025  32.532  64.134  1.00  0.00    -0.266 OA
HETATM   24  N   UNL     1       8.225  31.655  61.967  1.00  0.00    -0.321 N 
HETATM   25  C   UNL     1       7.499  31.813  60.787  1.00  0.00     0.048 A 
HETATM   26  H   UNL     1       9.037  31.068  62.087  1.00  0.00     0.169 HD
HETATM   27  C   UNL     1       7.736  31.210  59.569  1.00  0.00     0.030 A 
HETATM   28  C   UNL     1       6.861  31.520  58.519  1.00  0.00     0.002 A 
HETATM   29  C   UNL     1       5.785  32.412  58.705  1.00  0.00     0.001 A 
HETATM   30  C   UNL     1       5.558  33.013  59.945  1.00  0.00     0.016 A 
ENDBRANCH   2  19
TORSDOF 4
ENDMDL
