MODEL 1
REMARK VINA RESULT:     -10.8      0.000      0.000
REMARK  6 active torsions:
REMARK  status: ('A' for Active; 'I' for Inactive)
REMARK       I    between atoms: N_2  and  C_3 
REMARK    1  A    between atoms: N_2  and  C_15 
REMARK       I    between atoms: C_3  and  N_4 
REMARK    2  A    between atoms: N_4  and  C_5 
REMARK    3  A    between atoms: C_15  and  C_16 
REMARK    4  A    between atoms: C_16  and  C_17 
REMARK    5  A    between atoms: C_17  and  C_18 
REMARK    6  A    between atoms: C_22  and  C_23 
ROOT
HETATM    1  C   UNL     1       5.415  27.937  56.863  1.00  0.00     0.154 C 
HETATM    2  N   UNL     1       6.541  27.389  56.115  1.00  0.00    -0.338 N 
HETATM    3  C   UNL     1       6.472  26.039  55.759  1.00  0.00     0.322 C 
HETATM    4  N   UNL     1       7.630  25.515  55.229  1.00  0.00    -0.309 N 
HETATM    5  O   UNL     1       5.437  25.397  55.924  1.00  0.00    -0.247 OA
HETATM    6  H   UNL     1       8.452  26.089  55.285  1.00  0.00     0.170 HD
ENDROOT
BRANCH   2   7
HETATM    7  C   UNL     1       7.703  28.273  55.985  1.00  0.00     0.127 C 
BRANCH   7   8
HETATM    8  C   UNL     1       8.615  28.328  57.218  1.00  0.00     0.026 C 
BRANCH   8   9
HETATM    9  C   UNL     1       9.591  29.505  57.271  1.00  0.00     0.060 C 
BRANCH   9  10
HETATM   10  C   UNL     1       9.329  30.475  58.369  1.00  0.00     0.030 A 
HETATM   11  N   UNL     1      10.023  31.647  58.467  1.00  0.00    -0.282 N 
HETATM   12  H   UNL     1      10.759  31.991  57.859  1.00  0.00     0.189 HD
HETATM   13  N   UNL     1       9.630  32.425  59.481  1.00  0.00    -0.174 NA
HETATM   14  C   UNL     1       8.675  31.720  60.112  1.00  0.00     0.089 A 
HETATM   15  C   UNL     1       8.471  30.477  59.447  1.00  0.00     0.060 A 
BRANCH  14  16
HETATM   16  C   UNL     1       7.987  32.250  61.296  1.00  0.00    -0.006 A 
HETATM   17  C   UNL     1       8.604  32.198  62.557  1.00  0.00     0.014 A 
HETATM   18  C   UNL     1       7.967  32.708  63.691  1.00  0.00     0.001 A 
HETATM   19  C   UNL     1       6.702  33.276  63.582  1.00  0.00     0.000 A 
HETATM   20  C   UNL     1       6.071  33.332  62.340  1.00  0.00     0.001 A 
HETATM   21  C   UNL     1       6.710  32.823  61.204  1.00  0.00     0.014 A 
ENDBRANCH  14  16
ENDBRANCH   9  10
ENDBRANCH   8   9
ENDBRANCH   7   8
ENDBRANCH   2   7
BRANCH   4  22
HETATM   22  C   UNL     1       7.842  24.206  54.739  1.00  0.00     0.036 A 
HETATM   23  C   UNL     1       8.288  23.141  55.525  1.00  0.00     0.039 A 
HETATM   24  C   UNL     1       8.466  21.899  54.931  1.00  0.00    -0.024 A 
HETATM   25  C   UNL     1       8.212  21.696  53.586  1.00  0.00    -0.026 A 
HETATM   26  C   UNL     1       8.956  20.636  55.536  1.00  0.00     0.207 C 
HETATM   27  C   UNL     1       8.522  20.289  53.236  1.00  0.00     0.207 C 
HETATM   28  C   UNL     1       7.766  22.731  52.785  1.00  0.00     0.012 A 
HETATM   29  O   UNL     1       8.760  19.637  54.505  1.00  0.00    -0.382 OA
HETATM   30  C   UNL     1       7.578  23.987  53.370  1.00  0.00     0.030 A 
ENDBRANCH   4  22
TORSDOF 6
ENDMDL
MODEL 2
REMARK VINA RESULT:     -10.3      3.255     11.443
REMARK  6 active torsions:
REMARK  status: ('A' for Active; 'I' for Inactive)
REMARK       I    between atoms: N_2  and  C_3 
REMARK    1  A    between atoms: N_2  and  C_15 
REMARK       I    between atoms: C_3  and  N_4 
REMARK    2  A    between atoms: N_4  and  C_5 
REMARK    3  A    between atoms: C_15  and  C_16 
REMARK    4  A    between atoms: C_16  and  C_17 
REMARK    5  A    between atoms: C_17  and  C_18 
REMARK    6  A    between atoms: C_22  and  C_23 
ROOT
HETATM    1  C   UNL     1      10.127  30.460  57.324  1.00  0.00     0.154 C 
HETATM    2  N   UNL     1       9.008  30.345  58.253  1.00  0.00    -0.338 N 
HETATM    3  C   UNL     1       8.881  31.343  59.222  1.00  0.00     0.322 C 
HETATM    4  N   UNL     1       7.936  31.098  60.193  1.00  0.00    -0.309 N 
HETATM    5  O   UNL     1       9.581  32.353  59.181  1.00  0.00    -0.247 OA
HETATM    6  H   UNL     1       7.537  30.177  60.212  1.00  0.00     0.170 HD
ENDROOT
BRANCH   2   7
HETATM    7  C   UNL     1       8.253  29.091  58.180  1.00  0.00     0.127 C 
BRANCH   7   8
HETATM    8  C   UNL     1       8.083  28.521  56.764  1.00  0.00     0.026 C 
BRANCH   8   9
HETATM    9  C   UNL     1       6.866  27.618  56.553  1.00  0.00     0.060 C 
BRANCH   9  10
HETATM   10  C   UNL     1       7.192  26.178  56.365  1.00  0.00     0.030 A 
HETATM   11  N   UNL     1       7.495  25.370  57.423  1.00  0.00    -0.282 N 
HETATM   12  H   UNL     1       7.544  25.619  58.406  1.00  0.00     0.189 HD
HETATM   13  N   UNL     1       7.713  24.095  57.086  1.00  0.00    -0.174 NA
HETATM   14  C   UNL     1       7.603  24.065  55.747  1.00  0.00     0.089 A 
HETATM   15  C   UNL     1       7.291  25.366  55.257  1.00  0.00     0.060 A 
BRANCH  14  16
HETATM   16  C   UNL     1       7.777  22.818  54.991  1.00  0.00    -0.006 A 
HETATM   17  C   UNL     1       7.799  22.837  53.587  1.00  0.00     0.014 A 
HETATM   18  C   UNL     1       7.976  21.661  52.854  1.00  0.00     0.001 A 
HETATM   19  C   UNL     1       8.129  20.446  53.515  1.00  0.00     0.000 A 
HETATM   20  C   UNL     1       8.106  20.406  54.907  1.00  0.00     0.001 A 
HETATM   21  C   UNL     1       7.931  21.584  55.642  1.00  0.00     0.014 A 
ENDBRANCH  14  16
ENDBRANCH   9  10
ENDBRANCH   8   9
ENDBRANCH   7   8
ENDBRANCH   2   7
BRANCH   4  22
HETATM   22  C   UNL     1       7.556  31.940  61.263  1.00  0.00     0.036 A 
HETATM   23  C   UNL     1       6.466  32.812  61.220  1.00  0.00     0.039 A 
HETATM   24  C   UNL     1       6.192  33.598  62.332  1.00  0.00    -0.024 A 
HETATM   25  C   UNL     1       6.971  33.533  63.473  1.00  0.00    -0.026 A 
HETATM   26  C   UNL     1       5.126  34.612  62.520  1.00  0.00     0.207 C 
HETATM   27  C   UNL     1       6.459  34.503  64.471  1.00  0.00     0.207 C 
HETATM   28  C   UNL     1       8.054  32.678  63.546  1.00  0.00     0.012 A 
HETATM   29  O   UNL     1       5.206  34.972  63.920  1.00  0.00    -0.382 OA
HETATM   30  C   UNL     1       8.341  31.877  62.435  1.00  0.00     0.030 A 
ENDBRANCH   4  22
TORSDOF 6
ENDMDL
MODEL 3
REMARK VINA RESULT:     -10.3      3.162     11.125
REMARK  6 active torsions:
REMARK  status: ('A' for Active; 'I' for Inactive)
REMARK       I    between atoms: N_2  and  C_3 
REMARK    1  A    between atoms: N_2  and  C_15 
REMARK       I    between atoms: C_3  and  N_4 
REMARK    2  A    between atoms: N_4  and  C_5 
REMARK    3  A    between atoms: C_15  and  C_16 
REMARK    4  A    between atoms: C_16  and  C_17 
REMARK    5  A    between atoms: C_17  and  C_18 
REMARK    6  A    between atoms: C_22  and  C_23 
ROOT
HETATM    1  C   UNL     1      10.577  30.183  56.700  1.00  0.00     0.154 C 
HETATM    2  N   UNL     1       9.439  30.037  57.602  1.00  0.00    -0.338 N 
HETATM    3  C   UNL     1       9.282  31.013  58.590  1.00  0.00     0.322 C 
HETATM    4  N   UNL     1       8.319  30.737  59.535  1.00  0.00    -0.309 N 
HETATM    5  O   UNL     1       9.973  32.029  58.587  1.00  0.00    -0.247 OA
HETATM    6  H   UNL     1       7.928  29.812  59.524  1.00  0.00     0.170 HD
ENDROOT
BRANCH   2   7
HETATM    7  C   UNL     1       8.697  28.779  57.484  1.00  0.00     0.127 C 
BRANCH   7   8
HETATM    8  C   UNL     1       8.054  28.534  56.111  1.00  0.00     0.026 C 
BRANCH   8   9
HETATM    9  C   UNL     1       6.654  27.918  56.133  1.00  0.00     0.060 C 
BRANCH   9  10
HETATM   10  C   UNL     1       6.579  26.535  55.589  1.00  0.00     0.030 A 
HETATM   11  N   UNL     1       5.466  26.081  54.942  1.00  0.00    -0.282 N 
HETATM   12  H   UNL     1       4.600  26.579  54.762  1.00  0.00     0.189 HD
HETATM   13  N   UNL     1       5.584  24.835  54.472  1.00  0.00    -0.174 NA
HETATM   14  C   UNL     1       6.802  24.427  54.868  1.00  0.00     0.089 A 
HETATM   15  C   UNL     1       7.452  25.469  55.589  1.00  0.00     0.060 A 
BRANCH  14  16
HETATM   16  C   UNL     1       7.307  23.088  54.537  1.00  0.00    -0.006 A 
HETATM   17  C   UNL     1       7.539  22.146  55.553  1.00  0.00     0.014 A 
HETATM   18  C   UNL     1       8.009  20.866  55.253  1.00  0.00     0.001 A 
HETATM   19  C   UNL     1       8.256  20.507  53.932  1.00  0.00     0.000 A 
HETATM   20  C   UNL     1       8.035  21.428  52.910  1.00  0.00     0.001 A 
HETATM   21  C   UNL     1       7.564  22.711  53.210  1.00  0.00     0.014 A 
ENDBRANCH  14  16
ENDBRANCH   9  10
ENDBRANCH   8   9
ENDBRANCH   7   8
ENDBRANCH   2   7
BRANCH   4  22
HETATM   22  C   UNL     1       7.908  31.552  60.614  1.00  0.00     0.036 A 
HETATM   23  C   UNL     1       6.834  32.443  60.555  1.00  0.00     0.039 A 
HETATM   24  C   UNL     1       6.527  33.198  61.679  1.00  0.00    -0.024 A 
HETATM   25  C   UNL     1       7.257  33.085  62.849  1.00  0.00    -0.026 A 
HETATM   26  C   UNL     1       5.470  34.224  61.855  1.00  0.00     0.207 C 
HETATM   27  C   UNL     1       6.719  34.031  63.855  1.00  0.00     0.207 C 
HETATM   28  C   UNL     1       8.323  32.209  62.938  1.00  0.00     0.012 A 
HETATM   29  O   UNL     1       5.498  34.538  63.268  1.00  0.00    -0.382 OA
HETATM   30  C   UNL     1       8.642  31.439  61.814  1.00  0.00     0.030 A 
ENDBRANCH   4  22
TORSDOF 6
ENDMDL
MODEL 4
REMARK VINA RESULT:      -9.6      1.360      1.989
REMARK  6 active torsions:
REMARK  status: ('A' for Active; 'I' for Inactive)
REMARK       I    between atoms: N_2  and  C_3 
REMARK    1  A    between atoms: N_2  and  C_15 
REMARK       I    between atoms: C_3  and  N_4 
REMARK    2  A    between atoms: N_4  and  C_5 
REMARK    3  A    between atoms: C_15  and  C_16 
REMARK    4  A    between atoms: C_16  and  C_17 
REMARK    5  A    between atoms: C_17  and  C_18 
REMARK    6  A    between atoms: C_22  and  C_23 
ROOT
HETATM    1  C   UNL     1       5.964  28.517  55.921  1.00  0.00     0.154 C 
HETATM    2  N   UNL     1       7.113  27.632  56.078  1.00  0.00    -0.338 N 
HETATM    3  C   UNL     1       6.944  26.297  55.699  1.00  0.00     0.322 C 
HETATM    4  N   UNL     1       7.981  25.458  56.041  1.00  0.00    -0.309 N 
HETATM    5  O   UNL     1       5.930  25.934  55.109  1.00  0.00    -0.247 OA
HETATM    6  H   UNL     1       8.683  25.833  56.653  1.00  0.00     0.170 HD
ENDROOT
BRANCH   2   7
HETATM    7  C   UNL     1       8.259  28.205  56.790  1.00  0.00     0.127 C 
BRANCH   7   8
HETATM    8  C   UNL     1       8.027  29.611  57.361  1.00  0.00     0.026 C 
BRANCH   8   9
HETATM    9  C   UNL     1       8.794  29.942  58.643  1.00  0.00     0.060 C 
BRANCH   9  10
HETATM   10  C   UNL     1       8.022  30.738  59.636  1.00  0.00     0.030 A 
HETATM   11  N   UNL     1       6.804  31.273  59.330  1.00  0.00    -0.282 N 
HETATM   12  H   UNL     1       6.297  31.214  58.452  1.00  0.00     0.189 HD
HETATM   13  N   UNL     1       6.223  31.915  60.349  1.00  0.00    -0.174 NA
HETATM   14  C   UNL     1       7.113  31.851  61.354  1.00  0.00     0.089 A 
HETATM   15  C   UNL     1       8.268  31.129  60.934  1.00  0.00     0.060 A 
BRANCH  14  16
HETATM   16  C   UNL     1       6.835  32.451  62.665  1.00  0.00    -0.006 A 
HETATM   17  C   UNL     1       7.891  32.844  63.504  1.00  0.00     0.014 A 
HETATM   18  C   UNL     1       7.642  33.427  64.748  1.00  0.00     0.001 A 
HETATM   19  C   UNL     1       6.332  33.625  65.174  1.00  0.00     0.000 A 
HETATM   20  C   UNL     1       5.271  33.238  64.358  1.00  0.00     0.001 A 
HETATM   21  C   UNL     1       5.520  32.655  63.111  1.00  0.00     0.014 A 
ENDBRANCH  14  16
ENDBRANCH   9  10
ENDBRANCH   8   9
ENDBRANCH   7   8
ENDBRANCH   2   7
BRANCH   4  22
HETATM   22  C   UNL     1       8.111  24.081  55.750  1.00  0.00     0.036 A 
HETATM   23  C   UNL     1       8.041  23.545  54.462  1.00  0.00     0.039 A 
HETATM   24  C   UNL     1       8.177  22.173  54.298  1.00  0.00    -0.024 A 
HETATM   25  C   UNL     1       8.379  21.332  55.378  1.00  0.00    -0.026 A 
HETATM   26  C   UNL     1       8.108  21.369  53.053  1.00  0.00     0.207 C 
HETATM   27  C   UNL     1       8.452  19.930  54.900  1.00  0.00     0.207 C 
HETATM   28  C   UNL     1       8.455  21.833  56.664  1.00  0.00     0.012 A 
HETATM   29  O   UNL     1       8.500  20.035  53.457  1.00  0.00    -0.382 OA
HETATM   30  C   UNL     1       8.324  23.215  56.844  1.00  0.00     0.030 A 
ENDBRANCH   4  22
TORSDOF 6
ENDMDL
MODEL 5
REMARK VINA RESULT:      -9.5      3.929      7.869
REMARK  6 active torsions:
REMARK  status: ('A' for Active; 'I' for Inactive)
REMARK       I    between atoms: N_2  and  C_3 
REMARK    1  A    between atoms: N_2  and  C_15 
REMARK       I    between atoms: C_3  and  N_4 
REMARK    2  A    between atoms: N_4  and  C_5 
REMARK    3  A    between atoms: C_15  and  C_16 
REMARK    4  A    between atoms: C_16  and  C_17 
REMARK    5  A    between atoms: C_17  and  C_18 
REMARK    6  A    between atoms: C_22  and  C_23 
ROOT
HETATM    1  C   UNL     1       7.360  27.952  57.809  1.00  0.00     0.154 C 
HETATM    2  N   UNL     1       6.638  26.957  57.023  1.00  0.00    -0.338 N 
HETATM    3  C   UNL     1       7.384  25.899  56.497  1.00  0.00     0.322 C 
HETATM    4  N   UNL     1       6.709  25.095  55.606  1.00  0.00    -0.309 N 
HETATM    5  O   UNL     1       8.556  25.731  56.825  1.00  0.00    -0.247 OA
HETATM    6  H   UNL     1       5.809  25.417  55.299  1.00  0.00     0.170 HD
ENDROOT
BRANCH   2   7
HETATM    7  C   UNL     1       5.242  27.284  56.719  1.00  0.00     0.127 C 
BRANCH   7   8
HETATM    8  C   UNL     1       4.985  28.757  56.370  1.00  0.00     0.026 C 
BRANCH   8   9
HETATM    9  C   UNL     1       4.000  29.007  55.226  1.00  0.00     0.060 C 
BRANCH   9  10
HETATM   10  C   UNL     1       4.559  28.768  53.868  1.00  0.00     0.030 A 
HETATM   11  N   UNL     1       5.900  28.852  53.622  1.00  0.00    -0.282 N 
HETATM   12  H   UNL     1       6.642  29.078  54.276  1.00  0.00     0.189 HD
HETATM   13  N   UNL     1       6.239  28.560  52.362  1.00  0.00    -0.174 NA
HETATM   14  C   UNL     1       5.074  28.324  51.734  1.00  0.00     0.089 A 
HETATM   15  C   UNL     1       3.992  28.463  52.650  1.00  0.00     0.060 A 
BRANCH  14  16
HETATM   16  C   UNL     1       5.030  27.964  50.311  1.00  0.00    -0.006 A 
HETATM   17  C   UNL     1       4.628  26.676  49.918  1.00  0.00     0.014 A 
HETATM   18  C   UNL     1       4.571  26.322  48.568  1.00  0.00     0.001 A 
HETATM   19  C   UNL     1       4.917  27.248  47.590  1.00  0.00     0.000 A 
HETATM   20  C   UNL     1       5.322  28.529  47.960  1.00  0.00     0.001 A 
HETATM   21  C   UNL     1       5.378  28.885  49.312  1.00  0.00     0.014 A 
ENDBRANCH  14  16
ENDBRANCH   9  10
ENDBRANCH   8   9
ENDBRANCH   7   8
ENDBRANCH   2   7
BRANCH   4  22
HETATM   22  C   UNL     1       7.185  23.933  54.957  1.00  0.00     0.036 A 
HETATM   23  C   UNL     1       7.574  22.770  55.626  1.00  0.00     0.039 A 
HETATM   24  C   UNL     1       8.033  21.691  54.881  1.00  0.00    -0.024 A 
HETATM   25  C   UNL     1       8.111  21.745  53.501  1.00  0.00    -0.026 A 
HETATM   26  C   UNL     1       8.530  20.374  55.351  1.00  0.00     0.207 C 
HETATM   27  C   UNL     1       8.664  20.467  52.991  1.00  0.00     0.207 C 
HETATM   28  C   UNL     1       7.730  22.881  52.812  1.00  0.00     0.012 A 
HETATM   29  O   UNL     1       8.693  19.593  54.144  1.00  0.00    -0.382 OA
HETATM   30  C   UNL     1       7.262  23.975  53.548  1.00  0.00     0.030 A 
ENDBRANCH   4  22
TORSDOF 6
ENDMDL
MODEL 6
REMARK VINA RESULT:      -9.5      2.750      4.600
REMARK  6 active torsions:
REMARK  status: ('A' for Active; 'I' for Inactive)
REMARK       I    between atoms: N_2  and  C_3 
REMARK    1  A    between atoms: N_2  and  C_15 
REMARK       I    between atoms: C_3  and  N_4 
REMARK    2  A    between atoms: N_4  and  C_5 
REMARK    3  A    between atoms: C_15  and  C_16 
REMARK    4  A    between atoms: C_16  and  C_17 
REMARK    5  A    between atoms: C_17  and  C_18 
REMARK    6  A    between atoms: C_22  and  C_23 
ROOT
HETATM    1  C   UNL     1      10.224  31.362  58.180  1.00  0.00     0.154 C 
HETATM    2  N   UNL     1       9.256  30.305  58.454  1.00  0.00    -0.338 N 
HETATM    3  C   UNL     1       9.188  29.252  57.539  1.00  0.00     0.322 C 
HETATM    4  N   UNL     1       8.137  28.382  57.727  1.00  0.00    -0.309 N 
HETATM    5  O   UNL     1      10.020  29.143  56.641  1.00  0.00    -0.247 OA
HETATM    6  H   UNL     1       7.438  28.655  58.393  1.00  0.00     0.170 HD
ENDROOT
BRANCH   2   7
HETATM    7  C   UNL     1       8.335  30.565  59.564  1.00  0.00     0.127 C 
BRANCH   7   8
HETATM    8  C   UNL     1       8.866  31.531  60.632  1.00  0.00     0.026 C 
BRANCH   8   9
HETATM    9  C   UNL     1       8.674  31.088  62.084  1.00  0.00     0.060 C 
BRANCH   9  10
HETATM   10  C   UNL     1       7.511  31.713  62.771  1.00  0.00     0.030 A 
HETATM   11  N   UNL     1       6.229  31.331  62.495  1.00  0.00    -0.282 N 
HETATM   12  H   UNL     1       5.914  30.630  61.832  1.00  0.00     0.189 HD
HETATM   13  N   UNL     1       5.308  31.956  63.236  1.00  0.00    -0.174 NA
HETATM   14  C   UNL     1       5.999  32.824  63.995  1.00  0.00     0.089 A 
HETATM   15  C   UNL     1       7.391  32.709  63.715  1.00  0.00     0.060 A 
BRANCH  14  16
HETATM   16  C   UNL     1       5.326  33.706  64.957  1.00  0.00    -0.006 A 
HETATM   17  C   UNL     1       5.973  34.082  66.146  1.00  0.00     0.014 A 
HETATM   18  C   UNL     1       5.351  34.929  67.066  1.00  0.00     0.001 A 
HETATM   19  C   UNL     1       4.071  35.412  66.812  1.00  0.00     0.000 A 
HETATM   20  C   UNL     1       3.411  35.046  65.640  1.00  0.00     0.001 A 
HETATM   21  C   UNL     1       4.035  34.199  64.717  1.00  0.00     0.014 A 
ENDBRANCH  14  16
ENDBRANCH   9  10
ENDBRANCH   8   9
ENDBRANCH   7   8
ENDBRANCH   2   7
BRANCH   4  22
HETATM   22  C   UNL     1       7.844  27.209  56.994  1.00  0.00     0.036 A 
HETATM   23  C   UNL     1       8.206  25.923  57.401  1.00  0.00     0.039 A 
HETATM   24  C   UNL     1       7.869  24.844  56.594  1.00  0.00    -0.024 A 
HETATM   25  C   UNL     1       7.185  25.017  55.404  1.00  0.00    -0.026 A 
HETATM   26  C   UNL     1       8.166  23.404  56.787  1.00  0.00     0.207 C 
HETATM   27  C   UNL     1       6.997  23.699  54.751  1.00  0.00     0.207 C 
HETATM   28  C   UNL     1       6.811  26.277  54.977  1.00  0.00     0.012 A 
HETATM   29  O   UNL     1       7.420  22.734  55.743  1.00  0.00    -0.382 OA
HETATM   30  C   UNL     1       7.140  27.374  55.781  1.00  0.00     0.030 A 
ENDBRANCH   4  22
TORSDOF 6
ENDMDL
MODEL 7
REMARK VINA RESULT:      -9.3      3.339     10.832
REMARK  6 active torsions:
REMARK  status: ('A' for Active; 'I' for Inactive)
REMARK       I    between atoms: N_2  and  C_3 
REMARK    1  A    between atoms: N_2  and  C_15 
REMARK       I    between atoms: C_3  and  N_4 
REMARK    2  A    between atoms: N_4  and  C_5 
REMARK    3  A    between atoms: C_15  and  C_16 
REMARK    4  A    between atoms: C_16  and  C_17 
REMARK    5  A    between atoms: C_17  and  C_18 
REMARK    6  A    between atoms: C_22  and  C_23 
ROOT
HETATM    1  C   UNL     1       4.850  30.877  55.867  1.00  0.00     0.154 C 
HETATM    2  N   UNL     1       5.839  30.503  56.873  1.00  0.00    -0.338 N 
HETATM    3  C   UNL     1       5.836  31.228  58.067  1.00  0.00     0.322 C 
HETATM    4  N   UNL     1       6.901  30.977  58.904  1.00  0.00    -0.309 N 
HETATM    5  O   UNL     1       4.936  32.026  58.318  1.00  0.00    -0.247 OA
HETATM    6  H   UNL     1       7.650  30.424  58.529  1.00  0.00     0.170 HD
ENDROOT
BRANCH   2   7
HETATM    7  C   UNL     1       6.844  29.529  56.438  1.00  0.00     0.127 C 
BRANCH   7   8
HETATM    8  C   UNL     1       6.681  28.123  57.032  1.00  0.00     0.026 C 
BRANCH   8   9
HETATM    9  C   UNL     1       7.978  27.416  57.432  1.00  0.00     0.060 C 
BRANCH   9  10
HETATM   10  C   UNL     1       8.054  25.988  57.020  1.00  0.00     0.030 A 
HETATM   11  N   UNL     1       8.287  24.995  57.927  1.00  0.00    -0.282 N 
HETATM   12  H   UNL     1       8.435  25.083  58.927  1.00  0.00     0.189 HD
HETATM   13  N   UNL     1       8.274  23.766  57.399  1.00  0.00    -0.174 NA
HETATM   14  C   UNL     1       8.078  23.954  56.083  1.00  0.00     0.089 A 
HETATM   15  C   UNL     1       7.952  25.346  55.805  1.00  0.00     0.060 A 
BRANCH  14  16
HETATM   16  C   UNL     1       8.002  22.822  55.150  1.00  0.00    -0.006 A 
HETATM   17  C   UNL     1       7.956  23.048  53.764  1.00  0.00     0.014 A 
HETATM   18  C   UNL     1       7.894  21.982  52.864  1.00  0.00     0.001 A 
HETATM   19  C   UNL     1       7.875  20.673  53.336  1.00  0.00     0.000 A 
HETATM   20  C   UNL     1       7.915  20.429  54.707  1.00  0.00     0.001 A 
HETATM   21  C   UNL     1       7.978  21.497  55.609  1.00  0.00     0.014 A 
ENDBRANCH  14  16
ENDBRANCH   9  10
ENDBRANCH   8   9
ENDBRANCH   7   8
ENDBRANCH   2   7
BRANCH   4  22
HETATM   22  C   UNL     1       7.138  31.519  60.188  1.00  0.00     0.036 A 
HETATM   23  C   UNL     1       6.421  32.589  60.728  1.00  0.00     0.039 A 
HETATM   24  C   UNL     1       6.748  33.042  61.999  1.00  0.00    -0.024 A 
HETATM   25  C   UNL     1       7.763  32.458  62.736  1.00  0.00    -0.026 A 
HETATM   26  C   UNL     1       6.165  34.168  62.769  1.00  0.00     0.207 C 
HETATM   27  C   UNL     1       7.901  33.170  64.030  1.00  0.00     0.207 C 
HETATM   28  C   UNL     1       8.488  31.396  62.229  1.00  0.00     0.012 A 
HETATM   29  O   UNL     1       6.760  34.058  64.085  1.00  0.00    -0.382 OA
HETATM   30  C   UNL     1       8.167  30.926  60.951  1.00  0.00     0.030 A 
ENDBRANCH   4  22
TORSDOF 6
ENDMDL
MODEL 8
REMARK VINA RESULT:      -9.2      3.713     11.026
REMARK  6 active torsions:
REMARK  status: ('A' for Active; 'I' for Inactive)
REMARK       I    between atoms: N_2  and  C_3 
REMARK    1  A    between atoms: N_2  and  C_15 
REMARK       I    between atoms: C_3  and  N_4 
REMARK    2  A    between atoms: N_4  and  C_5 
REMARK    3  A    between atoms: C_15  and  C_16 
REMARK    4  A    between atoms: C_16  and  C_17 
REMARK    5  A    between atoms: C_17  and  C_18 
REMARK    6  A    between atoms: C_22  and  C_23 
ROOT
HETATM    1  C   UNL     1       5.132  31.949  55.934  1.00  0.00     0.154 C 
HETATM    2  N   UNL     1       5.527  31.223  57.137  1.00  0.00    -0.338 N 
HETATM    3  C   UNL     1       5.809  31.984  58.274  1.00  0.00     0.322 C 
HETATM    4  N   UNL     1       6.362  31.283  59.323  1.00  0.00    -0.309 N 
HETATM    5  O   UNL     1       5.572  33.189  58.301  1.00  0.00    -0.247 OA
HETATM    6  H   UNL     1       6.651  30.341  59.134  1.00  0.00     0.170 HD
ENDROOT
BRANCH   2   7
HETATM    7  C   UNL     1       5.763  29.788  56.960  1.00  0.00     0.127 C 
BRANCH   7   8
HETATM    8  C   UNL     1       5.907  29.332  55.501  1.00  0.00     0.026 C 
BRANCH   8   9
HETATM    9  C   UNL     1       4.762  28.476  54.955  1.00  0.00     0.060 C 
BRANCH   9  10
HETATM   10  C   UNL     1       5.155  27.094  54.569  1.00  0.00     0.030 A 
HETATM   11  N   UNL     1       4.444  26.380  53.648  1.00  0.00    -0.282 N 
HETATM   12  H   UNL     1       3.611  26.666  53.142  1.00  0.00     0.189 HD
HETATM   13  N   UNL     1       4.961  25.176  53.380  1.00  0.00    -0.174 NA
HETATM   14  C   UNL     1       6.025  25.064  54.194  1.00  0.00     0.089 A 
HETATM   15  C   UNL     1       6.167  26.250  54.971  1.00  0.00     0.060 A 
BRANCH  14  16
HETATM   16  C   UNL     1       6.867  23.861  54.193  1.00  0.00    -0.006 A 
HETATM   17  C   UNL     1       7.212  23.237  55.403  1.00  0.00     0.014 A 
HETATM   18  C   UNL     1       8.003  22.086  55.418  1.00  0.00     0.001 A 
HETATM   19  C   UNL     1       8.464  21.543  54.223  1.00  0.00     0.000 A 
HETATM   20  C   UNL     1       8.137  22.151  53.013  1.00  0.00     0.001 A 
HETATM   21  C   UNL     1       7.343  23.303  52.997  1.00  0.00     0.014 A 
ENDBRANCH  14  16
ENDBRANCH   9  10
ENDBRANCH   8   9
ENDBRANCH   7   8
ENDBRANCH   2   7
BRANCH   4  22
HETATM   22  C   UNL     1       6.704  31.771  60.605  1.00  0.00     0.036 A 
HETATM   23  C   UNL     1       5.783  32.309  61.507  1.00  0.00     0.039 A 
HETATM   24  C   UNL     1       6.237  32.764  62.737  1.00  0.00    -0.024 A 
HETATM   25  C   UNL     1       7.575  32.695  63.085  1.00  0.00    -0.026 A 
HETATM   26  C   UNL     1       5.474  33.398  63.840  1.00  0.00     0.207 C 
HETATM   27  C   UNL     1       7.761  33.282  64.435  1.00  0.00     0.207 C 
HETATM   28  C   UNL     1       8.508  32.166  62.215  1.00  0.00     0.012 A 
HETATM   29  O   UNL     1       6.418  33.492  64.933  1.00  0.00    -0.382 OA
HETATM   30  C   UNL     1       8.065  31.700  60.972  1.00  0.00     0.030 A 
ENDBRANCH   4  22
TORSDOF 6
ENDMDL
MODEL 9
REMARK VINA RESULT:      -9.2      4.395      8.497
REMARK  6 active torsions:
REMARK  status: ('A' for Active; 'I' for Inactive)
REMARK       I    between atoms: N_2  and  C_3 
REMARK    1  A    between atoms: N_2  and  C_15 
REMARK       I    between atoms: C_3  and  N_4 
REMARK    2  A    between atoms: N_4  and  C_5 
REMARK    3  A    between atoms: C_15  and  C_16 
REMARK    4  A    between atoms: C_16  and  C_17 
REMARK    5  A    between atoms: C_17  and  C_18 
REMARK    6  A    between atoms: C_22  and  C_23 
ROOT
HETATM    1  C   UNL     1       4.714  29.324  56.391  1.00  0.00     0.154 C 
HETATM    2  N   UNL     1       5.585  28.934  55.288  1.00  0.00    -0.338 N 
HETATM    3  C   UNL     1       4.968  28.561  54.091  1.00  0.00     0.322 C 
HETATM    4  N   UNL     1       5.809  28.017  53.145  1.00  0.00    -0.309 N 
HETATM    5  O   UNL     1       3.760  28.719  53.930  1.00  0.00    -0.247 OA
HETATM    6  H   UNL     1       6.741  27.797  53.444  1.00  0.00     0.170 HD
ENDROOT
BRANCH   2   7
HETATM    7  C   UNL     1       7.006  28.798  55.623  1.00  0.00     0.127 C 
BRANCH   7   8
HETATM    8  C   UNL     1       7.337  28.973  57.112  1.00  0.00     0.026 C 
BRANCH   8   9
HETATM    9  C   UNL     1       7.590  27.681  57.893  1.00  0.00     0.060 C 
BRANCH   9  10
HETATM   10  C   UNL     1       7.273  26.435  57.143  1.00  0.00     0.030 A 
HETATM   11  N   UNL     1       5.999  25.952  57.066  1.00  0.00    -0.282 N 
HETATM   12  H   UNL     1       5.157  26.338  57.482  1.00  0.00     0.189 HD
HETATM   13  N   UNL     1       5.881  24.853  56.313  1.00  0.00    -0.174 NA
HETATM   14  C   UNL     1       7.133  24.566  55.917  1.00  0.00     0.089 A 
HETATM   15  C   UNL     1       8.040  25.535  56.436  1.00  0.00     0.060 A 
BRANCH  14  16
HETATM   16  C   UNL     1       7.419  23.410  55.058  1.00  0.00    -0.006 A 
HETATM   17  C   UNL     1       7.501  23.564  53.665  1.00  0.00     0.014 A 
HETATM   18  C   UNL     1       7.783  22.476  52.836  1.00  0.00     0.001 A 
HETATM   19  C   UNL     1       7.986  21.215  53.387  1.00  0.00     0.000 A 
HETATM   20  C   UNL     1       7.906  21.041  54.767  1.00  0.00     0.001 A 
HETATM   21  C   UNL     1       7.624  22.131  55.598  1.00  0.00     0.014 A 
ENDBRANCH  14  16
ENDBRANCH   9  10
ENDBRANCH   8   9
ENDBRANCH   7   8
ENDBRANCH   2   7
BRANCH   4  22
HETATM   22  C   UNL     1       5.481  27.598  51.836  1.00  0.00     0.036 A 
HETATM   23  C   UNL     1       5.485  28.441  50.722  1.00  0.00     0.039 A 
HETATM   24  C   UNL     1       5.138  27.917  49.484  1.00  0.00    -0.024 A 
HETATM   25  C   UNL     1       4.793  26.586  49.332  1.00  0.00    -0.026 A 
HETATM   26  C   UNL     1       5.034  28.605  48.174  1.00  0.00     0.207 C 
HETATM   27  C   UNL     1       4.443  26.329  47.914  1.00  0.00     0.207 C 
HETATM   28  C   UNL     1       4.784  25.727  50.416  1.00  0.00     0.012 A 
HETATM   29  O   UNL     1       4.819  27.540  47.217  1.00  0.00    -0.382 OA
HETATM   30  C   UNL     1       5.134  26.240  51.669  1.00  0.00     0.030 A 
ENDBRANCH   4  22
TORSDOF 6
ENDMDL
MODEL 10
REMARK VINA RESULT:      -8.9      3.881     11.200
REMARK  6 active torsions:
REMARK  status: ('A' for Active; 'I' for Inactive)
REMARK       I    between atoms: N_2  and  C_3 
REMARK    1  A    between atoms: N_2  and  C_15 
REMARK       I    between atoms: C_3  and  N_4 
REMARK    2  A    between atoms: N_4  and  C_5 
REMARK    3  A    between atoms: C_15  and  C_16 
REMARK    4  A    between atoms: C_16  and  C_17 
REMARK    5  A    between atoms: C_17  and  C_18 
REMARK    6  A    between atoms: C_22  and  C_23 
ROOT
HETATM    1  C   UNL     1       4.736  32.429  57.003  1.00  0.00     0.154 C 
HETATM    2  N   UNL     1       5.429  31.777  58.109  1.00  0.00    -0.338 N 
HETATM    3  C   UNL     1       5.446  32.450  59.334  1.00  0.00     0.322 C 
HETATM    4  N   UNL     1       6.269  31.899  60.291  1.00  0.00    -0.309 N 
HETATM    5  O   UNL     1       4.765  33.458  59.508  1.00  0.00    -0.247 OA
HETATM    6  H   UNL     1       6.889  31.171  59.988  1.00  0.00     0.170 HD
ENDROOT
BRANCH   2   7
HETATM    7  C   UNL     1       6.190  30.575  57.756  1.00  0.00     0.127 C 
BRANCH   7   8
HETATM    8  C   UNL     1       5.351  29.426  57.180  1.00  0.00     0.026 C 
BRANCH   8   9
HETATM    9  C   UNL     1       5.288  29.351  55.653  1.00  0.00     0.060 C 
BRANCH   9  10
HETATM   10  C   UNL     1       6.076  28.238  55.057  1.00  0.00     0.030 A 
HETATM   11  N   UNL     1       7.029  28.466  54.106  1.00  0.00    -0.282 N 
HETATM   12  H   UNL     1       7.306  29.354  53.699  1.00  0.00     0.189 HD
HETATM   13  N   UNL     1       7.678  27.365  53.714  1.00  0.00    -0.174 NA
HETATM   14  C   UNL     1       7.099  26.359  54.392  1.00  0.00     0.089 A 
HETATM   15  C   UNL     1       6.072  26.872  55.237  1.00  0.00     0.060 A 
BRANCH  14  16
HETATM   16  C   UNL     1       7.544  24.969  54.231  1.00  0.00    -0.006 A 
HETATM   17  C   UNL     1       7.606  24.388  52.953  1.00  0.00     0.014 A 
HETATM   18  C   UNL     1       8.038  23.071  52.782  1.00  0.00     0.001 A 
HETATM   19  C   UNL     1       8.413  22.313  53.887  1.00  0.00     0.000 A 
HETATM   20  C   UNL     1       8.355  22.870  55.163  1.00  0.00     0.001 A 
HETATM   21  C   UNL     1       7.923  24.190  55.334  1.00  0.00     0.014 A 
ENDBRANCH  14  16
ENDBRANCH   9  10
ENDBRANCH   8   9
ENDBRANCH   7   8
ENDBRANCH   2   7
BRANCH   4  22
HETATM   22  C   UNL     1       6.451  32.328  61.625  1.00  0.00     0.036 A 
HETATM   23  C   UNL     1       5.414  32.765  62.454  1.00  0.00     0.039 A 
HETATM   24  C   UNL     1       5.716  33.170  63.747  1.00  0.00    -0.024 A 
HETATM   25  C   UNL     1       7.013  33.149  64.229  1.00  0.00    -0.026 A 
HETATM   26  C   UNL     1       4.810  33.699  64.796  1.00  0.00     0.207 C 
HETATM   27  C   UNL     1       7.027  33.664  65.619  1.00  0.00     0.207 C 
HETATM   28  C   UNL     1       8.058  32.719  63.433  1.00  0.00     0.012 A 
HETATM   29  O   UNL     1       5.632  33.777  65.985  1.00  0.00    -0.382 OA
HETATM   30  C   UNL     1       7.770  32.304  62.129  1.00  0.00     0.030 A 
ENDBRANCH   4  22
TORSDOF 6
ENDMDL
