MODEL 1
REMARK VINA RESULT:     -10.1      0.000      0.000
REMARK  3 active torsions:
REMARK  status: ('A' for Active; 'I' for Inactive)
REMARK    1  A    between atoms: C_8  and  C_9 
REMARK       I    between atoms: C_9  and  N_10 
REMARK    2  A    between atoms: N_10  and  C_11 
REMARK    3  A    between atoms: C_18  and  C_19 
REMARK       I    between atoms: C_19  and  N_20 
ROOT
HETATM    1  C   UNL     1       8.274  28.576  56.994  1.00  0.00     0.035 A 
HETATM    2  C   UNL     1       7.726  29.448  57.943  1.00  0.00     0.046 A 
HETATM    3  C   UNL     1       8.505  30.516  58.443  1.00  0.00     0.030 A 
HETATM    4  C   UNL     1       9.803  30.676  57.973  1.00  0.00     0.063 A 
HETATM    5  N   UNL     1      10.293  31.770  58.629  1.00  0.00    -0.277 N 
HETATM    6  H   UNL     1      11.217  32.179  58.535  1.00  0.00     0.189 HD
HETATM    7  N   UNL     1       9.431  32.340  59.485  1.00  0.00    -0.168 NA
HETATM    8  C   UNL     1       8.319  31.577  59.380  1.00  0.00     0.156 A 
HETATM    9  C   UNL     1      10.380  29.830  57.025  1.00  0.00     0.034 A 
HETATM   10  C   UNL     1       9.588  28.779  56.547  1.00  0.00     0.032 A 
ENDROOT
BRANCH   1  11
HETATM   11  N   UNL     1       7.582  27.478  56.440  1.00  0.00    -0.327 N 
HETATM   12  C   UNL     1       7.450  26.203  56.966  1.00  0.00     0.231 C 
HETATM   13  O   UNL     1       7.905  25.811  58.037  1.00  0.00    -0.272 OA
HETATM   14  H   UNL     1       7.183  27.625  55.519  1.00  0.00     0.169 HD
BRANCH  12  15
HETATM   15  C   UNL     1       6.605  25.258  56.107  1.00  0.00     0.116 C 
HETATM   16  C   UNL     1       7.413  24.218  55.357  1.00  0.00    -0.012 A 
HETATM   17  C   UNL     1       8.420  23.484  56.004  1.00  0.00     0.011 A 
HETATM   18  C   UNL     1       7.141  23.945  54.010  1.00  0.00     0.075 A 
HETATM   19  C   UNL     1       9.172  22.540  55.303  1.00  0.00     0.001 A 
HETATM   20  C   UNL     1       8.918  22.309  53.953  1.00  0.00     0.003 A 
HETATM   21  C   UNL     1       7.903  23.012  53.307  1.00  0.00     0.037 A 
HETATM   22  O   UNL     1       6.160  24.578  53.295  1.00  0.00    -0.351 OA
HETATM   23  C   UNL     1       5.141  25.166  54.107  1.00  0.00     0.176 C 
HETATM   24  C   UNL     1       5.743  26.085  55.150  1.00  0.00     0.045 C 
ENDBRANCH  12  15
ENDBRANCH   1  11
BRANCH   8  25
HETATM   25  C   UNL     1       7.116  31.875  60.171  1.00  0.00     0.270 C 
HETATM   26  N   UNL     1       7.048  31.201  61.360  1.00  0.00    -0.365 N 
HETATM   27  H   UNL     1       7.802  30.568  61.602  1.00  0.00     0.159 HD
HETATM   28  H   UNL     1       6.258  31.341  61.969  1.00  0.00     0.159 HD
HETATM   29  O   UNL     1       6.230  32.652  59.833  1.00  0.00    -0.266 OA
ENDBRANCH   8  25
TORSDOF 3
ENDMDL
MODEL 2
REMARK VINA RESULT:     -10.1      5.193      7.728
REMARK  3 active torsions:
REMARK  status: ('A' for Active; 'I' for Inactive)
REMARK    1  A    between atoms: C_8  and  C_9 
REMARK       I    between atoms: C_9  and  N_10 
REMARK    2  A    between atoms: N_10  and  C_11 
REMARK    3  A    between atoms: C_18  and  C_19 
REMARK       I    between atoms: C_19  and  N_20 
ROOT
HETATM    1  C   UNL     1       6.140  26.970  52.428  1.00  0.00     0.035 A 
HETATM    2  C   UNL     1       5.596  26.541  51.210  1.00  0.00     0.046 A 
HETATM    3  C   UNL     1       4.762  27.411  50.472  1.00  0.00     0.030 A 
HETATM    4  C   UNL     1       4.505  28.680  50.976  1.00  0.00     0.063 A 
HETATM    5  N   UNL     1       3.682  29.274  50.060  1.00  0.00    -0.277 N 
HETATM    6  H   UNL     1       3.291  30.209  50.102  1.00  0.00     0.189 HD
HETATM    7  N   UNL     1       3.381  28.506  49.001  1.00  0.00    -0.168 NA
HETATM    8  C   UNL     1       4.042  27.351  49.240  1.00  0.00     0.156 A 
HETATM    9  C   UNL     1       5.032  29.142  52.183  1.00  0.00     0.034 A 
HETATM   10  C   UNL     1       5.855  28.261  52.894  1.00  0.00     0.032 A 
ENDROOT
BRANCH   1  11
HETATM   11  N   UNL     1       6.977  26.176  53.240  1.00  0.00    -0.327 N 
HETATM   12  C   UNL     1       6.600  25.226  54.176  1.00  0.00     0.231 C 
HETATM   13  O   UNL     1       5.450  24.894  54.448  1.00  0.00    -0.272 OA
HETATM   14  H   UNL     1       7.970  26.365  53.170  1.00  0.00     0.169 HD
BRANCH  12  15
HETATM   15  C   UNL     1       7.776  24.529  54.866  1.00  0.00     0.116 C 
HETATM   16  C   UNL     1       7.909  23.058  54.523  1.00  0.00    -0.012 A 
HETATM   17  C   UNL     1       7.822  22.619  53.191  1.00  0.00     0.011 A 
HETATM   18  C   UNL     1       8.157  22.115  55.528  1.00  0.00     0.075 A 
HETATM   19  C   UNL     1       7.928  21.262  52.884  1.00  0.00     0.001 A 
HETATM   20  C   UNL     1       8.133  20.330  53.899  1.00  0.00     0.003 A 
HETATM   21  C   UNL     1       8.248  20.758  55.221  1.00  0.00     0.037 A 
HETATM   22  O   UNL     1       8.293  22.440  56.851  1.00  0.00    -0.351 OA
HETATM   23  C   UNL     1       8.639  23.809  57.078  1.00  0.00     0.176 C 
HETATM   24  C   UNL     1       7.665  24.736  56.379  1.00  0.00     0.045 C 
ENDBRANCH  12  15
ENDBRANCH   1  11
BRANCH   8  25
HETATM   25  C   UNL     1       3.972  26.226  48.296  1.00  0.00     0.270 C 
HETATM   26  N   UNL     1       3.150  25.209  48.701  1.00  0.00    -0.365 N 
HETATM   27  H   UNL     1       2.667  25.299  49.587  1.00  0.00     0.159 HD
HETATM   28  H   UNL     1       3.040  24.395  48.118  1.00  0.00     0.159 HD
HETATM   29  O   UNL     1       4.577  26.166  47.233  1.00  0.00    -0.266 OA
ENDBRANCH   8  25
TORSDOF 3
ENDMDL
MODEL 3
REMARK VINA RESULT:      -9.4      3.103      8.136
REMARK  3 active torsions:
REMARK  status: ('A' for Active; 'I' for Inactive)
REMARK    1  A    between atoms: C_8  and  C_9 
REMARK       I    between atoms: C_9  and  N_10 
REMARK    2  A    between atoms: N_10  and  C_11 
REMARK    3  A    between atoms: C_18  and  C_19 
REMARK       I    between atoms: C_19  and  N_20 
ROOT
HETATM    1  C   UNL     1       7.572  25.310  54.342  1.00  0.00     0.035 A 
HETATM    2  C   UNL     1       7.909  24.196  55.121  1.00  0.00     0.046 A 
HETATM    3  C   UNL     1       8.103  22.942  54.499  1.00  0.00     0.030 A 
HETATM    4  C   UNL     1       7.958  22.847  53.120  1.00  0.00     0.063 A 
HETATM    5  N   UNL     1       8.200  21.536  52.820  1.00  0.00    -0.277 N 
HETATM    6  H   UNL     1       8.181  21.104  51.903  1.00  0.00     0.189 HD
HETATM    7  N   UNL     1       8.493  20.766  53.879  1.00  0.00    -0.168 NA
HETATM    8  C   UNL     1       8.438  21.621  54.926  1.00  0.00     0.156 A 
HETATM    9  C   UNL     1       7.628  23.937  52.313  1.00  0.00     0.034 A 
HETATM   10  C   UNL     1       7.440  25.167  52.953  1.00  0.00     0.032 A 
ENDROOT
BRANCH   1  11
HETATM   11  N   UNL     1       7.352  26.601  54.866  1.00  0.00    -0.327 N 
HETATM   12  C   UNL     1       7.666  27.069  56.133  1.00  0.00     0.231 C 
HETATM   13  O   UNL     1       8.219  26.431  57.023  1.00  0.00    -0.272 OA
HETATM   14  H   UNL     1       6.853  27.246  54.263  1.00  0.00     0.169 HD
BRANCH  12  15
HETATM   15  C   UNL     1       7.308  28.540  56.362  1.00  0.00     0.116 C 
HETATM   16  C   UNL     1       8.446  29.372  56.919  1.00  0.00    -0.012 A 
HETATM   17  C   UNL     1       9.736  29.287  56.371  1.00  0.00     0.011 A 
HETATM   18  C   UNL     1       8.219  30.271  57.970  1.00  0.00     0.075 A 
HETATM   19  C   UNL     1      10.784  30.042  56.900  1.00  0.00     0.001 A 
HETATM   20  C   UNL     1      10.552  30.901  57.972  1.00  0.00     0.003 A 
HETATM   21  C   UNL     1       9.269  31.014  58.507  1.00  0.00     0.037 A 
HETATM   22  O   UNL     1       6.994  30.457  58.552  1.00  0.00    -0.351 OA
HETATM   23  C   UNL     1       5.896  30.051  57.732  1.00  0.00     0.176 C 
HETATM   24  C   UNL     1       6.072  28.622  57.261  1.00  0.00     0.045 C 
ENDBRANCH  12  15
ENDBRANCH   1  11
BRANCH   8  25
HETATM   25  C   UNL     1       8.704  21.161  56.297  1.00  0.00     0.270 C 
HETATM   26  N   UNL     1       9.483  20.038  56.368  1.00  0.00    -0.365 N 
HETATM   27  H   UNL     1       9.809  19.619  55.504  1.00  0.00     0.159 HD
HETATM   28  H   UNL     1       9.717  19.650  57.267  1.00  0.00     0.159 HD
HETATM   29  O   UNL     1       8.286  21.706  57.312  1.00  0.00    -0.266 OA
ENDBRANCH   8  25
TORSDOF 3
ENDMDL
MODEL 4
REMARK VINA RESULT:      -9.2      5.036      6.647
REMARK  3 active torsions:
REMARK  status: ('A' for Active; 'I' for Inactive)
REMARK    1  A    between atoms: C_8  and  C_9 
REMARK       I    between atoms: C_9  and  N_10 
REMARK    2  A    between atoms: N_10  and  C_11 
REMARK    3  A    between atoms: C_18  and  C_19 
REMARK       I    between atoms: C_19  and  N_20 
ROOT
HETATM    1  C   UNL     1       6.015  26.667  52.140  1.00  0.00     0.035 A 
HETATM    2  C   UNL     1       5.572  27.982  52.332  1.00  0.00     0.046 A 
HETATM    3  C   UNL     1       4.712  28.575  51.381  1.00  0.00     0.030 A 
HETATM    4  C   UNL     1       4.322  27.831  50.274  1.00  0.00     0.063 A 
HETATM    5  N   UNL     1       3.509  28.658  49.549  1.00  0.00    -0.277 N 
HETATM    6  H   UNL     1       3.043  28.446  48.674  1.00  0.00     0.189 HD
HETATM    7  N   UNL     1       3.333  29.876  50.085  1.00  0.00    -0.168 NA
HETATM    8  C   UNL     1       4.070  29.840  51.219  1.00  0.00     0.156 A 
HETATM    9  C   UNL     1       4.739  26.518  50.053  1.00  0.00     0.034 A 
HETATM   10  C   UNL     1       5.591  25.954  51.010  1.00  0.00     0.032 A 
ENDROOT
BRANCH   1  11
HETATM   11  N   UNL     1       6.877  25.989  53.027  1.00  0.00    -0.327 N 
HETATM   12  C   UNL     1       6.531  25.159  54.082  1.00  0.00     0.231 C 
HETATM   13  O   UNL     1       5.391  24.850  54.416  1.00  0.00    -0.272 OA
HETATM   14  H   UNL     1       7.867  26.177  52.913  1.00  0.00     0.169 HD
BRANCH  12  15
HETATM   15  C   UNL     1       7.729  24.564  54.828  1.00  0.00     0.116 C 
HETATM   16  C   UNL     1       7.913  23.075  54.612  1.00  0.00    -0.012 A 
HETATM   17  C   UNL     1       7.844  22.520  53.324  1.00  0.00     0.011 A 
HETATM   18  C   UNL     1       8.191  22.230  55.695  1.00  0.00     0.075 A 
HETATM   19  C   UNL     1       7.997  21.146  53.133  1.00  0.00     0.001 A 
HETATM   20  C   UNL     1       8.233  20.313  54.225  1.00  0.00     0.003 A 
HETATM   21  C   UNL     1       8.329  20.856  55.505  1.00  0.00     0.037 A 
HETATM   22  O   UNL     1       8.313  22.672  56.985  1.00  0.00    -0.351 OA
HETATM   23  C   UNL     1       8.610  24.066  57.093  1.00  0.00     0.176 C 
HETATM   24  C   UNL     1       7.607  24.896  56.318  1.00  0.00     0.045 C 
ENDBRANCH  12  15
ENDBRANCH   1  11
BRANCH   8  25
HETATM   25  C   UNL     1       4.143  31.004  52.114  1.00  0.00     0.270 C 
HETATM   26  N   UNL     1       5.036  31.961  51.714  1.00  0.00    -0.365 N 
HETATM   27  H   UNL     1       5.564  31.806  50.863  1.00  0.00     0.159 HD
HETATM   28  H   UNL     1       5.155  32.794  52.266  1.00  0.00     0.159 HD
HETATM   29  O   UNL     1       3.480  31.145  53.135  1.00  0.00    -0.266 OA
ENDBRANCH   8  25
TORSDOF 3
ENDMDL
MODEL 5
REMARK VINA RESULT:      -9.0      2.218      3.232
REMARK  3 active torsions:
REMARK  status: ('A' for Active; 'I' for Inactive)
REMARK    1  A    between atoms: C_8  and  C_9 
REMARK       I    between atoms: C_9  and  N_10 
REMARK    2  A    between atoms: N_10  and  C_11 
REMARK    3  A    between atoms: C_18  and  C_19 
REMARK       I    between atoms: C_19  and  N_20 
ROOT
HETATM    1  C   UNL     1       7.544  27.059  56.706  1.00  0.00     0.035 A 
HETATM    2  C   UNL     1       7.882  27.970  57.716  1.00  0.00     0.046 A 
HETATM    3  C   UNL     1       7.294  29.255  57.723  1.00  0.00     0.030 A 
HETATM    4  C   UNL     1       6.386  29.582  56.723  1.00  0.00     0.063 A 
HETATM    5  N   UNL     1       5.998  30.865  56.991  1.00  0.00    -0.277 N 
HETATM    6  H   UNL     1       5.341  31.430  56.464  1.00  0.00     0.189 HD
HETATM    7  N   UNL     1       6.572  31.405  58.078  1.00  0.00    -0.168 NA
HETATM    8  C   UNL     1       7.375  30.421  58.543  1.00  0.00     0.156 A 
HETATM    9  C   UNL     1       6.022  28.699  55.706  1.00  0.00     0.034 A 
HETATM   10  C   UNL     1       6.619  27.433  55.721  1.00  0.00     0.032 A 
ENDROOT
BRANCH   1  11
HETATM   11  N   UNL     1       8.079  25.757  56.608  1.00  0.00    -0.327 N 
HETATM   12  C   UNL     1       7.388  24.557  56.549  1.00  0.00     0.231 C 
HETATM   13  O   UNL     1       6.168  24.423  56.550  1.00  0.00    -0.272 OA
HETATM   14  H   UNL     1       9.090  25.690  56.643  1.00  0.00     0.169 HD
BRANCH  12  15
HETATM   15  C   UNL     1       8.288  23.325  56.420  1.00  0.00     0.116 C 
HETATM   16  C   UNL     1       8.141  22.588  55.103  1.00  0.00    -0.012 A 
HETATM   17  C   UNL     1       8.130  23.286  53.885  1.00  0.00     0.011 A 
HETATM   18  C   UNL     1       8.050  21.190  55.080  1.00  0.00     0.075 A 
HETATM   19  C   UNL     1       7.976  22.603  52.677  1.00  0.00     0.001 A 
HETATM   20  C   UNL     1       7.845  21.216  52.672  1.00  0.00     0.003 A 
HETATM   21  C   UNL     1       7.882  20.510  53.873  1.00  0.00     0.037 A 
HETATM   22  O   UNL     1       8.085  20.412  56.205  1.00  0.00    -0.351 OA
HETATM   23  C   UNL     1       8.688  21.052  57.333  1.00  0.00     0.176 C 
HETATM   24  C   UNL     1       8.034  22.392  57.607  1.00  0.00     0.045 C 
ENDBRANCH  12  15
ENDBRANCH   1  11
BRANCH   8  25
HETATM   25  C   UNL     1       8.194  30.615  59.748  1.00  0.00     0.270 C 
HETATM   26  N   UNL     1       7.471  30.903  60.874  1.00  0.00    -0.365 N 
HETATM   27  H   UNL     1       6.462  30.960  60.801  1.00  0.00     0.159 HD
HETATM   28  H   UNL     1       7.948  31.053  61.748  1.00  0.00     0.159 HD
HETATM   29  O   UNL     1       9.416  30.534  59.785  1.00  0.00    -0.266 OA
ENDBRANCH   8  25
TORSDOF 3
ENDMDL
MODEL 6
REMARK VINA RESULT:      -8.8      3.602      6.591
REMARK  3 active torsions:
REMARK  status: ('A' for Active; 'I' for Inactive)
REMARK    1  A    between atoms: C_8  and  C_9 
REMARK       I    between atoms: C_9  and  N_10 
REMARK    2  A    between atoms: N_10  and  C_11 
REMARK    3  A    between atoms: C_18  and  C_19 
REMARK       I    between atoms: C_19  and  N_20 
ROOT
HETATM    1  C   UNL     1       7.270  32.589  61.589  1.00  0.00     0.035 A 
HETATM    2  C   UNL     1       5.978  33.081  61.813  1.00  0.00     0.046 A 
HETATM    3  C   UNL     1       5.584  33.440  63.121  1.00  0.00     0.030 A 
HETATM    4  C   UNL     1       6.497  33.297  64.159  1.00  0.00     0.063 A 
HETATM    5  N   UNL     1       5.838  33.715  65.281  1.00  0.00    -0.277 N 
HETATM    6  H   UNL     1       6.199  33.747  66.229  1.00  0.00     0.189 HD
HETATM    7  N   UNL     1       4.576  34.119  65.069  1.00  0.00    -0.168 NA
HETATM    8  C   UNL     1       4.404  33.956  63.737  1.00  0.00     0.156 A 
HETATM    9  C   UNL     1       7.793  32.815  63.973  1.00  0.00     0.034 A 
HETATM   10  C   UNL     1       8.158  32.466  62.667  1.00  0.00     0.032 A 
ENDROOT
BRANCH   1  11
HETATM   11  N   UNL     1       7.757  32.199  60.324  1.00  0.00    -0.327 N 
HETATM   12  C   UNL     1       8.448  31.042  59.998  1.00  0.00     0.231 C 
HETATM   13  O   UNL     1       8.741  30.133  60.769  1.00  0.00    -0.272 OA
HETATM   14  H   UNL     1       7.636  32.872  59.575  1.00  0.00     0.169 HD
BRANCH  12  15
HETATM   15  C   UNL     1       8.807  30.925  58.514  1.00  0.00     0.116 C 
HETATM   16  C   UNL     1       8.048  29.838  57.779  1.00  0.00    -0.012 A 
HETATM   17  C   UNL     1       6.659  29.698  57.935  1.00  0.00     0.011 A 
HETATM   18  C   UNL     1       8.717  28.975  56.902  1.00  0.00     0.075 A 
HETATM   19  C   UNL     1       5.969  28.684  57.269  1.00  0.00     0.001 A 
HETATM   20  C   UNL     1       6.655  27.807  56.432  1.00  0.00     0.003 A 
HETATM   21  C   UNL     1       8.029  27.954  56.249  1.00  0.00     0.037 A 
HETATM   22  O   UNL     1      10.061  29.047  56.651  1.00  0.00    -0.351 OA
HETATM   23  C   UNL     1      10.639  30.319  56.955  1.00  0.00     0.176 C 
HETATM   24  C   UNL     1      10.320  30.733  58.378  1.00  0.00     0.045 C 
ENDBRANCH  12  15
ENDBRANCH   1  11
BRANCH   8  25
HETATM   25  C   UNL     1       3.128  34.294  63.089  1.00  0.00     0.270 C 
HETATM   26  N   UNL     1       2.076  33.516  63.489  1.00  0.00    -0.365 N 
HETATM   27  H   UNL     1       2.243  32.790  64.177  1.00  0.00     0.159 HD
HETATM   28  H   UNL     1       1.161  33.675  63.098  1.00  0.00     0.159 HD
HETATM   29  O   UNL     1       2.977  35.186  62.262  1.00  0.00    -0.266 OA
ENDBRANCH   8  25
TORSDOF 3
ENDMDL
MODEL 7
REMARK VINA RESULT:      -8.3      3.701      9.185
REMARK  3 active torsions:
REMARK  status: ('A' for Active; 'I' for Inactive)
REMARK    1  A    between atoms: C_8  and  C_9 
REMARK       I    between atoms: C_9  and  N_10 
REMARK    2  A    between atoms: N_10  and  C_11 
REMARK    3  A    between atoms: C_18  and  C_19 
REMARK       I    between atoms: C_19  and  N_20 
ROOT
HETATM    1  C   UNL     1       7.758  30.186  58.605  1.00  0.00     0.035 A 
HETATM    2  C   UNL     1       6.838  29.825  57.612  1.00  0.00     0.046 A 
HETATM    3  C   UNL     1       7.306  29.337  56.371  1.00  0.00     0.030 A 
HETATM    4  C   UNL     1       8.676  29.223  56.169  1.00  0.00     0.063 A 
HETATM    5  N   UNL     1       8.816  28.735  54.900  1.00  0.00    -0.277 N 
HETATM    6  H   UNL     1       9.682  28.528  54.414  1.00  0.00     0.189 HD
HETATM    7  N   UNL     1       7.659  28.518  54.255  1.00  0.00    -0.168 NA
HETATM    8  C   UNL     1       6.715  28.884  55.153  1.00  0.00     0.156 A 
HETATM    9  C   UNL     1       9.620  29.569  57.137  1.00  0.00     0.034 A 
HETATM   10  C   UNL     1       9.131  30.050  58.357  1.00  0.00     0.032 A 
ENDROOT
BRANCH   1  11
HETATM   11  N   UNL     1       7.392  30.688  59.872  1.00  0.00    -0.327 N 
HETATM   12  C   UNL     1       7.737  31.907  60.435  1.00  0.00     0.231 C 
HETATM   13  O   UNL     1       8.415  32.783  59.905  1.00  0.00    -0.272 OA
HETATM   14  H   UNL     1       6.862  30.058  60.463  1.00  0.00     0.169 HD
BRANCH  12  15
HETATM   15  C   UNL     1       7.144  32.142  61.827  1.00  0.00     0.116 C 
HETATM   16  C   UNL     1       6.179  33.310  61.897  1.00  0.00    -0.012 A 
HETATM   17  C   UNL     1       5.175  33.474  60.929  1.00  0.00     0.011 A 
HETATM   18  C   UNL     1       6.252  34.227  62.954  1.00  0.00     0.075 A 
HETATM   19  C   UNL     1       4.301  34.560  60.990  1.00  0.00     0.001 A 
HETATM   20  C   UNL     1       4.412  35.488  62.024  1.00  0.00     0.003 A 
HETATM   21  C   UNL     1       5.388  35.320  63.005  1.00  0.00     0.037 A 
HETATM   22  O   UNL     1       7.169  34.140  63.967  1.00  0.00    -0.351 OA
HETATM   23  C   UNL     1       7.718  32.831  64.140  1.00  0.00     0.176 C 
HETATM   24  C   UNL     1       8.283  32.305  62.837  1.00  0.00     0.045 C 
ENDBRANCH  12  15
ENDBRANCH   1  11
BRANCH   8  25
HETATM   25  C   UNL     1       5.283  28.795  54.828  1.00  0.00     0.270 C 
HETATM   26  N   UNL     1       4.881  29.652  53.840  1.00  0.00    -0.365 N 
HETATM   27  H   UNL     1       5.570  30.264  53.418  1.00  0.00     0.159 HD
HETATM   28  H   UNL     1       3.916  29.662  53.552  1.00  0.00     0.159 HD
HETATM   29  O   UNL     1       4.489  28.035  55.369  1.00  0.00    -0.266 OA
ENDBRANCH   8  25
TORSDOF 3
ENDMDL
MODEL 8
REMARK VINA RESULT:      -8.2      3.302      8.604
REMARK  3 active torsions:
REMARK  status: ('A' for Active; 'I' for Inactive)
REMARK    1  A    between atoms: C_8  and  C_9 
REMARK       I    between atoms: C_9  and  N_10 
REMARK    2  A    between atoms: N_10  and  C_11 
REMARK    3  A    between atoms: C_18  and  C_19 
REMARK       I    between atoms: C_19  and  N_20 
ROOT
HETATM    1  C   UNL     1       6.467  29.379  57.652  1.00  0.00     0.035 A 
HETATM    2  C   UNL     1       5.742  28.985  56.520  1.00  0.00     0.046 A 
HETATM    3  C   UNL     1       6.179  27.875  55.763  1.00  0.00     0.030 A 
HETATM    4  C   UNL     1       7.323  27.197  56.166  1.00  0.00     0.063 A 
HETATM    5  N   UNL     1       7.490  26.193  55.253  1.00  0.00    -0.277 N 
HETATM    6  H   UNL     1       8.228  25.498  55.234  1.00  0.00     0.189 HD
HETATM    7  N   UNL     1       6.556  26.155  54.289  1.00  0.00    -0.168 NA
HETATM    8  C   UNL     1       5.737  27.189  54.591  1.00  0.00     0.156 A 
HETATM    9  C   UNL     1       8.066  27.558  57.290  1.00  0.00     0.034 A 
HETATM   10  C   UNL     1       7.613  28.661  58.023  1.00  0.00     0.032 A 
ENDROOT
BRANCH   1  11
HETATM   11  N   UNL     1       6.117  30.475  58.469  1.00  0.00    -0.327 N 
HETATM   12  C   UNL     1       6.912  31.549  58.837  1.00  0.00     0.231 C 
HETATM   13  O   UNL     1       8.073  31.743  58.489  1.00  0.00    -0.272 OA
HETATM   14  H   UNL     1       5.192  30.442  58.883  1.00  0.00     0.169 HD
BRANCH  12  15
HETATM   15  C   UNL     1       6.201  32.579  59.720  1.00  0.00     0.116 C 
HETATM   16  C   UNL     1       6.641  32.557  61.170  1.00  0.00    -0.012 A 
HETATM   17  C   UNL     1       8.003  32.513  61.509  1.00  0.00     0.011 A 
HETATM   18  C   UNL     1       5.693  32.616  62.200  1.00  0.00     0.075 A 
HETATM   19  C   UNL     1       8.401  32.475  62.846  1.00  0.00     0.001 A 
HETATM   20  C   UNL     1       7.445  32.493  63.860  1.00  0.00     0.003 A 
HETATM   21  C   UNL     1       6.091  32.563  63.535  1.00  0.00     0.037 A 
HETATM   22  O   UNL     1       4.344  32.694  61.980  1.00  0.00    -0.351 OA
HETATM   23  C   UNL     1       3.997  33.186  60.683  1.00  0.00     0.176 C 
HETATM   24  C   UNL     1       4.688  32.385  59.598  1.00  0.00     0.045 C 
ENDBRANCH  12  15
ENDBRANCH   1  11
BRANCH   8  25
HETATM   25  C   UNL     1       4.562  27.494  53.762  1.00  0.00     0.270 C 
HETATM   26  N   UNL     1       4.007  26.399  53.156  1.00  0.00    -0.365 N 
HETATM   27  H   UNL     1       4.429  25.491  53.315  1.00  0.00     0.159 HD
HETATM   28  H   UNL     1       3.198  26.512  52.566  1.00  0.00     0.159 HD
HETATM   29  O   UNL     1       4.089  28.613  53.602  1.00  0.00    -0.266 OA
ENDBRANCH   8  25
TORSDOF 3
ENDMDL
MODEL 9
REMARK VINA RESULT:      -8.1      2.282      2.657
REMARK  3 active torsions:
REMARK  status: ('A' for Active; 'I' for Inactive)
REMARK    1  A    between atoms: C_8  and  C_9 
REMARK       I    between atoms: C_9  and  N_10 
REMARK    2  A    between atoms: N_10  and  C_11 
REMARK    3  A    between atoms: C_18  and  C_19 
REMARK       I    between atoms: C_19  and  N_20 
ROOT
HETATM    1  C   UNL     1       6.570  29.025  56.872  1.00  0.00     0.035 A 
HETATM    2  C   UNL     1       5.791  30.152  57.163  1.00  0.00     0.046 A 
HETATM    3  C   UNL     1       6.197  31.036  58.188  1.00  0.00     0.030 A 
HETATM    4  C   UNL     1       7.369  30.763  58.883  1.00  0.00     0.063 A 
HETATM    5  N   UNL     1       7.494  31.774  59.794  1.00  0.00    -0.277 N 
HETATM    6  H   UNL     1       8.235  31.898  60.475  1.00  0.00     0.189 HD
HETATM    7  N   UNL     1       6.508  32.685  59.755  1.00  0.00    -0.168 NA
HETATM    8  C   UNL     1       5.698  32.243  58.766  1.00  0.00     0.156 A 
HETATM    9  C   UNL     1       8.171  29.653  58.617  1.00  0.00     0.034 A 
HETATM   10  C   UNL     1       7.747  28.793  57.598  1.00  0.00     0.032 A 
ENDROOT
BRANCH   1  11
HETATM   11  N   UNL     1       6.248  28.081  55.874  1.00  0.00    -0.327 N 
HETATM   12  C   UNL     1       6.963  27.783  54.724  1.00  0.00     0.231 C 
HETATM   13  O   UNL     1       8.029  28.287  54.383  1.00  0.00    -0.272 OA
HETATM   14  H   UNL     1       5.360  27.606  55.983  1.00  0.00     0.169 HD
BRANCH  12  15
HETATM   15  C   UNL     1       6.335  26.681  53.866  1.00  0.00     0.116 C 
HETATM   16  C   UNL     1       7.068  25.356  53.931  1.00  0.00    -0.012 A 
HETATM   17  C   UNL     1       7.471  24.815  55.163  1.00  0.00     0.011 A 
HETATM   18  C   UNL     1       7.324  24.629  52.760  1.00  0.00     0.075 A 
HETATM   19  C   UNL     1       8.161  23.603  55.214  1.00  0.00     0.001 A 
HETATM   20  C   UNL     1       8.445  22.912  54.039  1.00  0.00     0.003 A 
HETATM   21  C   UNL     1       8.026  23.426  52.812  1.00  0.00     0.037 A 
HETATM   22  O   UNL     1       6.945  25.049  51.514  1.00  0.00    -0.351 OA
HETATM   23  C   UNL     1       5.880  26.003  51.523  1.00  0.00     0.176 C 
HETATM   24  C   UNL     1       6.214  27.176  52.422  1.00  0.00     0.045 C 
ENDBRANCH  12  15
ENDBRANCH   1  11
BRANCH   8  25
HETATM   25  C   UNL     1       4.478  32.976  58.398  1.00  0.00     0.270 C 
HETATM   26  N   UNL     1       4.673  33.946  57.452  1.00  0.00    -0.365 N 
HETATM   27  H   UNL     1       5.608  34.085  57.086  1.00  0.00     0.159 HD
HETATM   28  H   UNL     1       3.894  34.501  57.139  1.00  0.00     0.159 HD
HETATM   29  O   UNL     1       3.367  32.768  58.871  1.00  0.00    -0.266 OA
ENDBRANCH   8  25
TORSDOF 3
ENDMDL
MODEL 10
REMARK VINA RESULT:      -8.0      4.013      5.422
REMARK  3 active torsions:
REMARK  status: ('A' for Active; 'I' for Inactive)
REMARK    1  A    between atoms: C_8  and  C_9 
REMARK       I    between atoms: C_9  and  N_10 
REMARK    2  A    between atoms: N_10  and  C_11 
REMARK    3  A    between atoms: C_18  and  C_19 
REMARK       I    between atoms: C_19  and  N_20 
ROOT
HETATM    1  C   UNL     1       5.473  28.912  55.942  1.00  0.00     0.035 A 
HETATM    2  C   UNL     1       4.992  29.451  54.742  1.00  0.00     0.046 A 
HETATM    3  C   UNL     1       3.979  30.435  54.775  1.00  0.00     0.030 A 
HETATM    4  C   UNL     1       3.485  30.847  56.007  1.00  0.00     0.063 A 
HETATM    5  N   UNL     1       2.533  31.786  55.720  1.00  0.00    -0.277 N 
HETATM    6  H   UNL     1       1.962  32.302  56.380  1.00  0.00     0.189 HD
HETATM    7  N   UNL     1       2.363  32.024  54.410  1.00  0.00    -0.168 NA
HETATM    8  C   UNL     1       3.250  31.197  53.812  1.00  0.00     0.156 A 
HETATM    9  C   UNL     1       3.943  30.336  57.221  1.00  0.00     0.034 A 
HETATM   10  C   UNL     1       4.947  29.362  57.161  1.00  0.00     0.032 A 
ENDROOT
BRANCH   1  11
HETATM   11  N   UNL     1       6.477  27.923  56.015  1.00  0.00    -0.327 N 
HETATM   12  C   UNL     1       6.347  26.561  55.791  1.00  0.00     0.231 C 
HETATM   13  O   UNL     1       5.318  25.977  55.463  1.00  0.00    -0.272 OA
HETATM   14  H   UNL     1       7.389  28.239  56.324  1.00  0.00     0.169 HD
BRANCH  12  15
HETATM   15  C   UNL     1       7.654  25.777  55.933  1.00  0.00     0.116 C 
HETATM   16  C   UNL     1       7.803  24.640  54.940  1.00  0.00    -0.012 A 
HETATM   17  C   UNL     1       7.520  24.833  53.578  1.00  0.00     0.011 A 
HETATM   18  C   UNL     1       8.261  23.386  55.363  1.00  0.00     0.075 A 
HETATM   19  C   UNL     1       7.643  23.778  52.672  1.00  0.00     0.001 A 
HETATM   20  C   UNL     1       8.060  22.524  53.114  1.00  0.00     0.003 A 
HETATM   21  C   UNL     1       8.369  22.329  54.459  1.00  0.00     0.037 A 
HETATM   22  O   UNL     1       8.597  23.102  56.659  1.00  0.00    -0.351 OA
HETATM   23  C   UNL     1       8.905  24.257  57.443  1.00  0.00     0.176 C 
HETATM   24  C   UNL     1       7.783  25.274  57.373  1.00  0.00     0.045 C 
ENDBRANCH  12  15
ENDBRANCH   1  11
BRANCH   8  25
HETATM   25  C   UNL     1       3.382  31.154  52.348  1.00  0.00     0.270 C 
HETATM   26  N   UNL     1       2.189  31.207  51.679  1.00  0.00    -0.365 N 
HETATM   27  H   UNL     1       1.333  31.269  52.219  1.00  0.00     0.159 HD
HETATM   28  H   UNL     1       2.180  31.182  50.673  1.00  0.00     0.159 HD
HETATM   29  O   UNL     1       4.444  31.079  51.742  1.00  0.00    -0.266 OA
ENDBRANCH   8  25
TORSDOF 3
ENDMDL
