MODEL 1
REMARK VINA RESULT:     -10.4      0.000      0.000
REMARK  6 active torsions:
REMARK  status: ('A' for Active; 'I' for Inactive)
REMARK    1  A    between atoms: C_4  and  C_5 
REMARK    2  A    between atoms: C_9  and  C_10 
REMARK       I    between atoms: C_10  and  N_11 
REMARK    3  A    between atoms: N_11  and  C_12 
REMARK    4  A    between atoms: C_12  and  C_13 
REMARK    5  A    between atoms: C_13  and  N_14 
REMARK    6  A    between atoms: C_13  and  C_18 
ROOT
HETATM    1  C   UNL     1       7.535  30.038  58.580  1.00  0.00     0.092 A 
HETATM    2  N   UNL     1       6.404  30.620  58.124  1.00  0.00    -0.246 NA
HETATM    3  C   UNL     1       5.644  29.972  57.229  1.00  0.00     0.069 A 
HETATM    4  C   UNL     1       5.958  28.689  56.737  1.00  0.00     0.008 A 
HETATM    5  C   UNL     1       7.120  28.087  57.280  1.00  0.00     0.046 A 
HETATM    6  C   UNL     1       7.925  28.774  58.189  1.00  0.00     0.052 A 
HETATM    7  C   UNL     1       4.503  30.613  56.766  1.00  0.00     0.032 A 
HETATM    8  C   UNL     1       3.667  30.035  55.811  1.00  0.00     0.002 A 
HETATM    9  C   UNL     1       3.984  28.792  55.284  1.00  0.00     0.001 A 
HETATM   10  C   UNL     1       5.124  28.125  55.735  1.00  0.00     0.015 A 
ENDROOT
BRANCH   5  11
HETATM   11  C   UNL     1       7.575  26.717  56.940  1.00  0.00     0.252 C 
HETATM   12  N   UNL     1       7.273  26.243  55.685  1.00  0.00    -0.355 N 
HETATM   13  H   UNL     1       6.792  26.883  55.055  1.00  0.00     0.162 HD
HETATM   14  O   UNL     1       8.077  25.993  57.793  1.00  0.00    -0.268 OA
BRANCH  12  15
HETATM   15  C   UNL     1       7.876  25.058  55.061  1.00  0.00     0.161 C 
BRANCH  15  16
HETATM   16  C   UNL     1       6.947  23.973  54.406  1.00  0.00     0.237 C 
BRANCH  16  17
HETATM   17  N   UNL     1       6.415  24.428  53.046  1.00  0.00    -0.069 N 
HETATM   18  H   UNL     1       6.419  23.540  52.511  1.00  0.00     0.279 HD
HETATM   19  C   UNL     1       5.028  24.974  53.023  1.00  0.00     0.270 C 
HETATM   20  C   UNL     1       7.375  25.297  52.289  1.00  0.00     0.270 C 
ENDBRANCH  16  17
BRANCH  16  21
HETATM   21  C   UNL     1       7.551  22.576  54.389  1.00  0.00    -0.026 A 
HETATM   22  C   UNL     1       7.748  21.899  55.608  1.00  0.00     0.009 A 
HETATM   23  C   UNL     1       8.271  20.605  55.636  1.00  0.00     0.001 A 
HETATM   24  C   UNL     1       8.613  19.967  54.449  1.00  0.00     0.000 A 
HETATM   25  C   UNL     1       8.428  20.619  53.233  1.00  0.00     0.001 A 
HETATM   26  C   UNL     1       7.897  21.912  53.200  1.00  0.00     0.009 A 
ENDBRANCH  16  21
ENDBRANCH  15  16
ENDBRANCH  12  15
ENDBRANCH   5  11
BRANCH   1  27
HETATM   27  C   UNL     1       8.309  30.847  59.512  1.00  0.00     0.104 A 
HETATM   28  O   UNL     1       7.773  31.038  60.756  1.00  0.00    -0.313 OA
HETATM   29  C   UNL     1       8.649  31.812  61.460  1.00  0.00     0.050 A 
HETATM   30  C   UNL     1       8.271  32.156  62.845  1.00  0.00     0.076 C 
HETATM   31  C   UNL     1       9.744  32.116  60.682  1.00  0.00     0.035 A 
HETATM   32  C   UNL     1       9.522  31.499  59.427  1.00  0.00     0.042 A 
ENDBRANCH   1  27
TORSDOF 6
ENDMDL
MODEL 2
REMARK VINA RESULT:     -10.2      1.124      2.676
REMARK  6 active torsions:
REMARK  status: ('A' for Active; 'I' for Inactive)
REMARK    1  A    between atoms: C_4  and  C_5 
REMARK    2  A    between atoms: C_9  and  C_10 
REMARK       I    between atoms: C_10  and  N_11 
REMARK    3  A    between atoms: N_11  and  C_12 
REMARK    4  A    between atoms: C_12  and  C_13 
REMARK    5  A    between atoms: C_13  and  N_14 
REMARK    6  A    between atoms: C_13  and  C_18 
ROOT
HETATM    1  C   UNL     1       7.444  29.912  58.100  1.00  0.00     0.092 A 
HETATM    2  N   UNL     1       6.543  30.612  57.377  1.00  0.00    -0.246 NA
HETATM    3  C   UNL     1       5.782  29.973  56.474  1.00  0.00     0.069 A 
HETATM    4  C   UNL     1       5.864  28.585  56.242  1.00  0.00     0.008 A 
HETATM    5  C   UNL     1       6.780  27.876  57.059  1.00  0.00     0.046 A 
HETATM    6  C   UNL     1       7.591  28.546  57.976  1.00  0.00     0.052 A 
HETATM    7  C   UNL     1       4.885  30.731  55.735  1.00  0.00     0.032 A 
HETATM    8  C   UNL     1       4.075  30.163  54.750  1.00  0.00     0.002 A 
HETATM    9  C   UNL     1       4.173  28.807  54.479  1.00  0.00     0.001 A 
HETATM   10  C   UNL     1       5.065  28.023  55.211  1.00  0.00     0.015 A 
ENDROOT
BRANCH   5  11
HETATM   11  C   UNL     1       6.958  26.404  57.012  1.00  0.00     0.252 C 
HETATM   12  N   UNL     1       7.917  25.910  56.158  1.00  0.00    -0.355 N 
HETATM   13  H   UNL     1       8.472  26.592  55.645  1.00  0.00     0.162 HD
HETATM   14  O   UNL     1       6.187  25.659  57.608  1.00  0.00    -0.268 OA
BRANCH  12  15
HETATM   15  C   UNL     1       8.445  24.539  56.181  1.00  0.00     0.161 C 
BRANCH  15  16
HETATM   16  C   UNL     1       8.268  23.622  54.918  1.00  0.00     0.237 C 
BRANCH  16  17
HETATM   17  N   UNL     1       7.885  22.193  55.304  1.00  0.00    -0.069 N 
HETATM   18  H   UNL     1       6.855  22.269  55.399  1.00  0.00     0.279 HD
HETATM   19  C   UNL     1       8.178  21.131  54.300  1.00  0.00     0.270 C 
HETATM   20  C   UNL     1       8.334  21.805  56.681  1.00  0.00     0.270 C 
ENDBRANCH  16  17
BRANCH  16  21
HETATM   21  C   UNL     1       7.376  24.224  53.842  1.00  0.00    -0.026 A 
HETATM   22  C   UNL     1       5.990  24.322  54.075  1.00  0.00     0.009 A 
HETATM   23  C   UNL     1       5.141  24.895  53.127  1.00  0.00     0.001 A 
HETATM   24  C   UNL     1       5.657  25.375  51.928  1.00  0.00     0.000 A 
HETATM   25  C   UNL     1       7.023  25.285  51.677  1.00  0.00     0.001 A 
HETATM   26  C   UNL     1       7.879  24.719  52.627  1.00  0.00     0.009 A 
ENDBRANCH  16  21
ENDBRANCH  15  16
ENDBRANCH  12  15
ENDBRANCH   5  11
BRANCH   1  27
HETATM   27  C   UNL     1       8.249  30.709  59.015  1.00  0.00     0.104 A 
HETATM   28  O   UNL     1       7.796  30.815  60.303  1.00  0.00    -0.313 OA
HETATM   29  C   UNL     1       8.687  31.593  60.982  1.00  0.00     0.050 A 
HETATM   30  C   UNL     1       8.396  31.851  62.406  1.00  0.00     0.076 C 
HETATM   31  C   UNL     1       9.709  31.984  60.146  1.00  0.00     0.035 A 
HETATM   32  C   UNL     1       9.424  31.420  58.880  1.00  0.00     0.042 A 
ENDBRANCH   1  27
TORSDOF 6
ENDMDL
MODEL 3
REMARK VINA RESULT:     -10.2      2.413      4.154
REMARK  6 active torsions:
REMARK  status: ('A' for Active; 'I' for Inactive)
REMARK    1  A    between atoms: C_4  and  C_5 
REMARK    2  A    between atoms: C_9  and  C_10 
REMARK       I    between atoms: C_10  and  N_11 
REMARK    3  A    between atoms: N_11  and  C_12 
REMARK    4  A    between atoms: C_12  and  C_13 
REMARK    5  A    between atoms: C_13  and  N_14 
REMARK    6  A    between atoms: C_13  and  C_18 
ROOT
HETATM    1  C   UNL     1       8.236  28.804  57.181  1.00  0.00     0.092 A 
HETATM    2  N   UNL     1       8.674  27.584  57.562  1.00  0.00    -0.246 NA
HETATM    3  C   UNL     1       8.050  26.487  57.107  1.00  0.00     0.069 A 
HETATM    4  C   UNL     1       6.950  26.537  56.226  1.00  0.00     0.008 A 
HETATM    5  C   UNL     1       6.556  27.831  55.804  1.00  0.00     0.046 A 
HETATM    6  C   UNL     1       7.187  28.971  56.302  1.00  0.00     0.052 A 
HETATM    7  C   UNL     1       8.514  25.253  57.540  1.00  0.00     0.032 A 
HETATM    8  C   UNL     1       7.911  24.058  57.148  1.00  0.00     0.002 A 
HETATM    9  C   UNL     1       6.801  24.090  56.317  1.00  0.00     0.001 A 
HETATM   10  C   UNL     1       6.317  25.318  55.865  1.00  0.00     0.015 A 
ENDROOT
BRANCH   5  11
HETATM   11  C   UNL     1       5.467  28.083  54.828  1.00  0.00     0.252 C 
HETATM   12  N   UNL     1       5.831  28.330  53.524  1.00  0.00    -0.355 N 
HETATM   13  H   UNL     1       6.824  28.280  53.306  1.00  0.00     0.162 HD
HETATM   14  O   UNL     1       4.305  28.203  55.202  1.00  0.00    -0.268 OA
BRANCH  12  15
HETATM   15  C   UNL     1       4.918  28.308  52.374  1.00  0.00     0.161 C 
BRANCH  15  16
HETATM   16  C   UNL     1       4.989  27.115  51.354  1.00  0.00     0.237 C 
BRANCH  16  17
HETATM   17  N   UNL     1       5.398  27.586  49.958  1.00  0.00    -0.069 N 
HETATM   18  H   UNL     1       6.383  27.267  49.909  1.00  0.00     0.279 HD
HETATM   19  C   UNL     1       4.661  26.985  48.810  1.00  0.00     0.270 C 
HETATM   20  C   UNL     1       5.507  29.077  49.838  1.00  0.00     0.270 C 
ENDBRANCH  16  17
BRANCH  16  21
HETATM   21  C   UNL     1       5.792  25.924  51.857  1.00  0.00    -0.026 A 
HETATM   22  C   UNL     1       7.198  25.992  51.847  1.00  0.00     0.009 A 
HETATM   23  C   UNL     1       7.973  24.935  52.328  1.00  0.00     0.001 A 
HETATM   24  C   UNL     1       7.357  23.789  52.820  1.00  0.00     0.000 A 
HETATM   25  C   UNL     1       5.968  23.700  52.835  1.00  0.00     0.001 A 
HETATM   26  C   UNL     1       5.189  24.760  52.363  1.00  0.00     0.009 A 
ENDBRANCH  16  21
ENDBRANCH  15  16
ENDBRANCH  12  15
ENDBRANCH   5  11
BRANCH   1  27
HETATM   27  C   UNL     1       8.954  29.926  57.770  1.00  0.00     0.104 A 
HETATM   28  O   UNL     1       8.343  30.571  58.812  1.00  0.00    -0.313 OA
HETATM   29  C   UNL     1       9.176  31.575  59.210  1.00  0.00     0.050 A 
HETATM   30  C   UNL     1       8.715  32.418  60.331  1.00  0.00     0.076 C 
HETATM   31  C   UNL     1      10.316  31.579  58.438  1.00  0.00     0.035 A 
HETATM   32  C   UNL     1      10.171  30.522  57.509  1.00  0.00     0.042 A 
ENDBRANCH   1  27
TORSDOF 6
ENDMDL
MODEL 4
REMARK VINA RESULT:      -9.7      3.442      6.774
REMARK  6 active torsions:
REMARK  status: ('A' for Active; 'I' for Inactive)
REMARK    1  A    between atoms: C_4  and  C_5 
REMARK    2  A    between atoms: C_9  and  C_10 
REMARK       I    between atoms: C_10  and  N_11 
REMARK    3  A    between atoms: N_11  and  C_12 
REMARK    4  A    between atoms: C_12  and  C_13 
REMARK    5  A    between atoms: C_13  and  N_14 
REMARK    6  A    between atoms: C_13  and  C_18 
ROOT
HETATM    1  C   UNL     1       7.608  26.579  56.033  1.00  0.00     0.092 A 
HETATM    2  N   UNL     1       7.919  25.469  56.737  1.00  0.00    -0.246 NA
HETATM    3  C   UNL     1       7.930  24.278  56.119  1.00  0.00     0.069 A 
HETATM    4  C   UNL     1       7.641  24.119  54.748  1.00  0.00     0.008 A 
HETATM    5  C   UNL     1       7.375  25.312  54.031  1.00  0.00     0.046 A 
HETATM    6  C   UNL     1       7.335  26.546  54.681  1.00  0.00     0.052 A 
HETATM    7  C   UNL     1       8.232  23.158  56.880  1.00  0.00     0.032 A 
HETATM    8  C   UNL     1       8.235  21.873  56.336  1.00  0.00     0.002 A 
HETATM    9  C   UNL     1       7.912  21.694  55.000  1.00  0.00     0.001 A 
HETATM   10  C   UNL     1       7.608  22.804  54.211  1.00  0.00     0.015 A 
ENDROOT
BRANCH   5  11
HETATM   11  C   UNL     1       7.118  25.357  52.571  1.00  0.00     0.252 C 
HETATM   12  N   UNL     1       5.833  25.631  52.163  1.00  0.00    -0.355 N 
HETATM   13  H   UNL     1       5.151  25.828  52.892  1.00  0.00     0.162 HD
HETATM   14  O   UNL     1       7.986  25.026  51.770  1.00  0.00    -0.268 OA
BRANCH  12  15
HETATM   15  C   UNL     1       5.441  26.007  50.798  1.00  0.00     0.161 C 
BRANCH  15  16
HETATM   16  C   UNL     1       4.582  27.302  50.570  1.00  0.00     0.237 C 
BRANCH  16  17
HETATM   17  N   UNL     1       5.444  28.565  50.583  1.00  0.00    -0.069 N 
HETATM   18  H   UNL     1       6.332  28.209  50.983  1.00  0.00     0.279 HD
HETATM   19  C   UNL     1       5.747  29.177  49.259  1.00  0.00     0.270 C 
HETATM   20  C   UNL     1       4.995  29.586  51.586  1.00  0.00     0.270 C 
ENDBRANCH  16  17
BRANCH  16  21
HETATM   21  C   UNL     1       3.644  27.215  49.374  1.00  0.00    -0.026 A 
HETATM   22  C   UNL     1       3.881  26.239  48.387  1.00  0.00     0.009 A 
HETATM   23  C   UNL     1       3.029  26.104  47.290  1.00  0.00     0.001 A 
HETATM   24  C   UNL     1       1.930  26.946  47.155  1.00  0.00     0.000 A 
HETATM   25  C   UNL     1       1.680  27.920  48.117  1.00  0.00     0.001 A 
HETATM   26  C   UNL     1       2.526  28.052  49.222  1.00  0.00     0.009 A 
ENDBRANCH  16  21
ENDBRANCH  15  16
ENDBRANCH  12  15
ENDBRANCH   5  11
BRANCH   1  27
HETATM   27  C   UNL     1       7.580  27.811  56.810  1.00  0.00     0.104 A 
HETATM   28  O   UNL     1       8.786  28.397  57.082  1.00  0.00    -0.313 OA
HETATM   29  C   UNL     1       8.534  29.523  57.810  1.00  0.00     0.050 A 
HETATM   30  C   UNL     1       9.703  30.323  58.226  1.00  0.00     0.076 C 
HETATM   31  C   UNL     1       7.179  29.669  58.003  1.00  0.00     0.035 A 
HETATM   32  C   UNL     1       6.565  28.565  57.365  1.00  0.00     0.042 A 
ENDBRANCH   1  27
TORSDOF 6
ENDMDL
MODEL 5
REMARK VINA RESULT:      -9.7      1.935      8.643
REMARK  6 active torsions:
REMARK  status: ('A' for Active; 'I' for Inactive)
REMARK    1  A    between atoms: C_4  and  C_5 
REMARK    2  A    between atoms: C_9  and  C_10 
REMARK       I    between atoms: C_10  and  N_11 
REMARK    3  A    between atoms: N_11  and  C_12 
REMARK    4  A    between atoms: C_12  and  C_13 
REMARK    5  A    between atoms: C_13  and  N_14 
REMARK    6  A    between atoms: C_13  and  C_18 
ROOT
HETATM    1  C   UNL     1       6.818  23.959  53.894  1.00  0.00     0.092 A 
HETATM    2  N   UNL     1       6.523  24.418  52.659  1.00  0.00    -0.246 NA
HETATM    3  C   UNL     1       5.864  25.580  52.527  1.00  0.00     0.069 A 
HETATM    4  C   UNL     1       5.466  26.368  53.626  1.00  0.00     0.008 A 
HETATM    5  C   UNL     1       5.843  25.883  54.902  1.00  0.00     0.046 A 
HETATM    6  C   UNL     1       6.502  24.661  55.039  1.00  0.00     0.052 A 
HETATM    7  C   UNL     1       5.558  26.006  51.242  1.00  0.00     0.032 A 
HETATM    8  C   UNL     1       4.847  27.183  51.004  1.00  0.00     0.002 A 
HETATM    9  C   UNL     1       4.410  27.948  52.075  1.00  0.00     0.001 A 
HETATM   10  C   UNL     1       4.707  27.543  53.376  1.00  0.00     0.015 A 
ENDROOT
BRANCH   5  11
HETATM   11  C   UNL     1       5.576  26.604  56.171  1.00  0.00     0.252 C 
HETATM   12  N   UNL     1       6.330  27.724  56.433  1.00  0.00    -0.355 N 
HETATM   13  H   UNL     1       6.995  28.010  55.716  1.00  0.00     0.162 HD
HETATM   14  O   UNL     1       4.811  26.138  57.009  1.00  0.00    -0.268 OA
BRANCH  12  15
HETATM   15  C   UNL     1       6.026  28.726  57.463  1.00  0.00     0.161 C 
BRANCH  15  16
HETATM   16  C   UNL     1       6.377  30.235  57.200  1.00  0.00     0.237 C 
BRANCH  16  17
HETATM   17  N   UNL     1       5.119  31.088  57.025  1.00  0.00    -0.069 N 
HETATM   18  H   UNL     1       5.297  31.864  57.689  1.00  0.00     0.279 HD
HETATM   19  C   UNL     1       4.897  31.678  55.675  1.00  0.00     0.270 C 
HETATM   20  C   UNL     1       3.879  30.441  57.568  1.00  0.00     0.270 C 
ENDBRANCH  16  17
BRANCH  16  21
HETATM   21  C   UNL     1       7.375  30.816  58.191  1.00  0.00    -0.026 A 
HETATM   22  C   UNL     1       6.934  31.766  59.133  1.00  0.00     0.009 A 
HETATM   23  C   UNL     1       7.809  32.300  60.080  1.00  0.00     0.001 A 
HETATM   24  C   UNL     1       9.142  31.902  60.099  1.00  0.00     0.000 A 
HETATM   25  C   UNL     1       9.599  30.967  59.175  1.00  0.00     0.001 A 
HETATM   26  C   UNL     1       8.724  30.423  58.231  1.00  0.00     0.009 A 
ENDBRANCH  16  21
ENDBRANCH  15  16
ENDBRANCH  12  15
ENDBRANCH   5  11
BRANCH   1  27
HETATM   27  C   UNL     1       7.492  22.669  53.925  1.00  0.00     0.104 A 
HETATM   28  O   UNL     1       7.819  22.172  55.158  1.00  0.00    -0.313 OA
HETATM   29  C   UNL     1       8.433  20.969  54.961  1.00  0.00     0.050 A 
HETATM   30  C   UNL     1       8.883  20.245  56.166  1.00  0.00     0.076 C 
HETATM   31  C   UNL     1       8.500  20.687  53.615  1.00  0.00     0.035 A 
HETATM   32  C   UNL     1       7.900  21.783  52.949  1.00  0.00     0.042 A 
ENDBRANCH   1  27
TORSDOF 6
ENDMDL
MODEL 6
REMARK VINA RESULT:      -9.7      1.721      8.689
REMARK  6 active torsions:
REMARK  status: ('A' for Active; 'I' for Inactive)
REMARK    1  A    between atoms: C_4  and  C_5 
REMARK    2  A    between atoms: C_9  and  C_10 
REMARK       I    between atoms: C_10  and  N_11 
REMARK    3  A    between atoms: N_11  and  C_12 
REMARK    4  A    between atoms: C_12  and  C_13 
REMARK    5  A    between atoms: C_13  and  N_14 
REMARK    6  A    between atoms: C_13  and  C_18 
ROOT
HETATM    1  C   UNL     1       7.056  24.514  54.621  1.00  0.00     0.092 A 
HETATM    2  N   UNL     1       6.188  24.916  53.666  1.00  0.00    -0.246 NA
HETATM    3  C   UNL     1       5.554  26.090  53.804  1.00  0.00     0.069 A 
HETATM    4  C   UNL     1       5.754  26.950  54.903  1.00  0.00     0.008 A 
HETATM    5  C   UNL     1       6.713  26.522  55.854  1.00  0.00     0.046 A 
HETATM    6  C   UNL     1       7.350  25.287  55.725  1.00  0.00     0.052 A 
HETATM    7  C   UNL     1       4.653  26.457  52.814  1.00  0.00     0.032 A 
HETATM    8  C   UNL     1       3.920  27.643  52.884  1.00  0.00     0.002 A 
HETATM    9  C   UNL     1       4.073  28.479  53.980  1.00  0.00     0.001 A 
HETATM   10  C   UNL     1       4.975  28.134  54.987  1.00  0.00     0.015 A 
ENDROOT
BRANCH   5  11
HETATM   11  C   UNL     1       7.111  27.319  57.040  1.00  0.00     0.252 C 
HETATM   12  N   UNL     1       7.027  28.688  56.940  1.00  0.00    -0.355 N 
HETATM   13  H   UNL     1       6.654  29.064  56.070  1.00  0.00     0.162 HD
HETATM   14  O   UNL     1       7.624  26.780  58.016  1.00  0.00    -0.268 OA
BRANCH  12  15
HETATM   15  C   UNL     1       7.087  29.624  58.070  1.00  0.00     0.161 C 
BRANCH  15  16
HETATM   16  C   UNL     1       8.470  29.920  58.756  1.00  0.00     0.237 C 
BRANCH  16  17
HETATM   17  N   UNL     1       9.506  30.422  57.749  1.00  0.00    -0.069 N 
HETATM   18  H   UNL     1       8.902  30.766  56.980  1.00  0.00     0.279 HD
HETATM   19  C   UNL     1      10.374  31.549  58.194  1.00  0.00     0.270 C 
HETATM   20  C   UNL     1      10.297  29.322  57.106  1.00  0.00     0.270 C 
ENDBRANCH  16  17
BRANCH  16  21
HETATM   21  C   UNL     1       8.364  30.783  60.005  1.00  0.00    -0.026 A 
HETATM   22  C   UNL     1       9.132  30.448  61.137  1.00  0.00     0.009 A 
HETATM   23  C   UNL     1       9.089  31.229  62.292  1.00  0.00     0.001 A 
HETATM   24  C   UNL     1       8.273  32.355  62.341  1.00  0.00     0.000 A 
HETATM   25  C   UNL     1       7.503  32.701  61.235  1.00  0.00     0.001 A 
HETATM   26  C   UNL     1       7.550  31.926  60.072  1.00  0.00     0.009 A 
ENDBRANCH  16  21
ENDBRANCH  15  16
ENDBRANCH  12  15
ENDBRANCH   5  11
BRANCH   1  27
HETATM   27  C   UNL     1       7.653  23.205  54.396  1.00  0.00     0.104 A 
HETATM   28  O   UNL     1       7.957  22.466  55.508  1.00  0.00    -0.313 OA
HETATM   29  C   UNL     1       8.498  21.290  55.077  1.00  0.00     0.050 A 
HETATM   30  C   UNL     1       8.912  20.327  56.116  1.00  0.00     0.076 C 
HETATM   31  C   UNL     1       8.540  21.264  53.701  1.00  0.00     0.035 A 
HETATM   32  C   UNL     1       8.002  22.498  53.264  1.00  0.00     0.042 A 
ENDBRANCH   1  27
TORSDOF 6
ENDMDL
MODEL 7
REMARK VINA RESULT:      -9.7      2.368      9.092
REMARK  6 active torsions:
REMARK  status: ('A' for Active; 'I' for Inactive)
REMARK    1  A    between atoms: C_4  and  C_5 
REMARK    2  A    between atoms: C_9  and  C_10 
REMARK       I    between atoms: C_10  and  N_11 
REMARK    3  A    between atoms: N_11  and  C_12 
REMARK    4  A    between atoms: C_12  and  C_13 
REMARK    5  A    between atoms: C_13  and  N_14 
REMARK    6  A    between atoms: C_13  and  C_18 
ROOT
HETATM    1  C   UNL     1       6.251  25.836  52.665  1.00  0.00     0.092 A 
HETATM    2  N   UNL     1       6.808  24.649  52.338  1.00  0.00    -0.246 NA
HETATM    3  C   UNL     1       7.485  23.959  53.269  1.00  0.00     0.069 A 
HETATM    4  C   UNL     1       7.640  24.407  54.597  1.00  0.00     0.008 A 
HETATM    5  C   UNL     1       6.994  25.627  54.917  1.00  0.00     0.046 A 
HETATM    6  C   UNL     1       6.316  26.357  53.940  1.00  0.00     0.052 A 
HETATM    7  C   UNL     1       8.062  22.756  52.889  1.00  0.00     0.032 A 
HETATM    8  C   UNL     1       8.813  21.984  53.776  1.00  0.00     0.002 A 
HETATM    9  C   UNL     1       9.012  22.430  55.074  1.00  0.00     0.001 A 
HETATM   10  C   UNL     1       8.439  23.635  55.482  1.00  0.00     0.015 A 
ENDROOT
BRANCH   5  11
HETATM   11  C   UNL     1       6.985  26.223  56.275  1.00  0.00     0.252 C 
HETATM   12  N   UNL     1       7.606  27.440  56.436  1.00  0.00    -0.355 N 
HETATM   13  H   UNL     1       7.996  27.872  55.600  1.00  0.00     0.162 HD
HETATM   14  O   UNL     1       6.560  25.590  57.236  1.00  0.00    -0.268 OA
BRANCH  12  15
HETATM   15  C   UNL     1       7.454  28.319  57.603  1.00  0.00     0.161 C 
BRANCH  15  16
HETATM   16  C   UNL     1       7.193  29.854  57.385  1.00  0.00     0.237 C 
BRANCH  16  17
HETATM   17  N   UNL     1       5.710  30.150  57.159  1.00  0.00    -0.069 N 
HETATM   18  H   UNL     1       5.496  30.773  57.959  1.00  0.00     0.279 HD
HETATM   19  C   UNL     1       5.359  30.873  55.904  1.00  0.00     0.270 C 
HETATM   20  C   UNL     1       4.821  28.965  57.393  1.00  0.00     0.270 C 
ENDBRANCH  16  17
BRANCH  16  21
HETATM   21  C   UNL     1       7.841  30.743  58.437  1.00  0.00    -0.026 A 
HETATM   22  C   UNL     1       9.245  30.833  58.488  1.00  0.00     0.009 A 
HETATM   23  C   UNL     1       9.879  31.660  59.417  1.00  0.00     0.001 A 
HETATM   24  C   UNL     1       9.123  32.406  60.315  1.00  0.00     0.000 A 
HETATM   25  C   UNL     1       7.733  32.328  60.283  1.00  0.00     0.001 A 
HETATM   26  C   UNL     1       7.094  31.508  59.349  1.00  0.00     0.009 A 
ENDBRANCH  16  21
ENDBRANCH  15  16
ENDBRANCH  12  15
ENDBRANCH   5  11
BRANCH   1  27
HETATM   27  C   UNL     1       5.581  26.522  51.569  1.00  0.00     0.104 A 
HETATM   28  O   UNL     1       4.994  25.736  50.615  1.00  0.00    -0.313 OA
HETATM   29  C   UNL     1       4.430  26.569  49.694  1.00  0.00     0.050 A 
HETATM   30  C   UNL     1       3.737  25.934  48.556  1.00  0.00     0.076 C 
HETATM   31  C   UNL     1       4.645  27.882  50.049  1.00  0.00     0.035 A 
HETATM   32  C   UNL     1       5.390  27.852  51.252  1.00  0.00     0.042 A 
ENDBRANCH   1  27
TORSDOF 6
ENDMDL
MODEL 8
REMARK VINA RESULT:      -9.6      2.474      3.775
REMARK  6 active torsions:
REMARK  status: ('A' for Active; 'I' for Inactive)
REMARK    1  A    between atoms: C_4  and  C_5 
REMARK    2  A    between atoms: C_9  and  C_10 
REMARK       I    between atoms: C_10  and  N_11 
REMARK    3  A    between atoms: N_11  and  C_12 
REMARK    4  A    between atoms: C_12  and  C_13 
REMARK    5  A    between atoms: C_13  and  N_14 
REMARK    6  A    between atoms: C_13  and  C_18 
ROOT
HETATM    1  C   UNL     1       6.998  31.647  59.178  1.00  0.00     0.092 A 
HETATM    2  N   UNL     1       8.333  31.809  59.054  1.00  0.00    -0.246 NA
HETATM    3  C   UNL     1       9.028  30.981  58.260  1.00  0.00     0.069 A 
HETATM    4  C   UNL     1       8.429  29.938  57.524  1.00  0.00     0.008 A 
HETATM    5  C   UNL     1       7.020  29.835  57.633  1.00  0.00     0.046 A 
HETATM    6  C   UNL     1       6.304  30.678  58.483  1.00  0.00     0.052 A 
HETATM    7  C   UNL     1      10.401  31.165  58.178  1.00  0.00     0.032 A 
HETATM    8  C   UNL     1      11.213  30.334  57.405  1.00  0.00     0.002 A 
HETATM    9  C   UNL     1      10.647  29.277  56.708  1.00  0.00     0.001 A 
HETATM   10  C   UNL     1       9.268  29.073  56.772  1.00  0.00     0.015 A 
ENDROOT
BRANCH   5  11
HETATM   11  C   UNL     1       6.205  28.849  56.884  1.00  0.00     0.252 C 
HETATM   12  N   UNL     1       6.521  27.519  57.038  1.00  0.00    -0.355 N 
HETATM   13  H   UNL     1       7.269  27.296  57.692  1.00  0.00     0.162 HD
HETATM   14  O   UNL     1       5.377  29.217  56.058  1.00  0.00    -0.268 OA
BRANCH  12  15
HETATM   15  C   UNL     1       5.668  26.394  56.629  1.00  0.00     0.161 C 
BRANCH  15  16
HETATM   16  C   UNL     1       5.787  25.825  55.170  1.00  0.00     0.237 C 
BRANCH  16  17
HETATM   17  N   UNL     1       5.924  26.943  54.135  1.00  0.00    -0.069 N 
HETATM   18  H   UNL     1       5.613  27.770  54.676  1.00  0.00     0.279 HD
HETATM   19  C   UNL     1       7.298  27.214  53.625  1.00  0.00     0.270 C 
HETATM   20  C   UNL     1       4.919  26.855  53.024  1.00  0.00     0.270 C 
ENDBRANCH  16  17
BRANCH  16  21
HETATM   21  C   UNL     1       6.830  24.726  55.022  1.00  0.00    -0.026 A 
HETATM   22  C   UNL     1       7.823  24.585  56.010  1.00  0.00     0.009 A 
HETATM   23  C   UNL     1       8.780  23.572  55.930  1.00  0.00     0.001 A 
HETATM   24  C   UNL     1       8.765  22.685  54.859  1.00  0.00     0.000 A 
HETATM   25  C   UNL     1       7.794  22.808  53.870  1.00  0.00     0.001 A 
HETATM   26  C   UNL     1       6.829  23.816  53.951  1.00  0.00     0.009 A 
ENDBRANCH  16  21
ENDBRANCH  15  16
ENDBRANCH  12  15
ENDBRANCH   5  11
BRANCH   1  27
HETATM   27  C   UNL     1       6.350  32.569  60.100  1.00  0.00     0.104 A 
HETATM   28  O   UNL     1       5.206  33.180  59.660  1.00  0.00    -0.313 OA
HETATM   29  C   UNL     1       4.768  33.990  60.666  1.00  0.00     0.050 A 
HETATM   30  C   UNL     1       3.536  34.763  60.410  1.00  0.00     0.076 C 
HETATM   31  C   UNL     1       5.614  33.903  61.748  1.00  0.00     0.035 A 
HETATM   32  C   UNL     1       6.635  32.993  61.382  1.00  0.00     0.042 A 
ENDBRANCH   1  27
TORSDOF 6
ENDMDL
MODEL 9
REMARK VINA RESULT:      -9.6      4.285      8.561
REMARK  6 active torsions:
REMARK  status: ('A' for Active; 'I' for Inactive)
REMARK    1  A    between atoms: C_4  and  C_5 
REMARK    2  A    between atoms: C_9  and  C_10 
REMARK       I    between atoms: C_10  and  N_11 
REMARK    3  A    between atoms: N_11  and  C_12 
REMARK    4  A    between atoms: C_12  and  C_13 
REMARK    5  A    between atoms: C_13  and  N_14 
REMARK    6  A    between atoms: C_13  and  C_18 
ROOT
HETATM    1  C   UNL     1       6.798  23.846  53.970  1.00  0.00     0.092 A 
HETATM    2  N   UNL     1       6.535  24.373  55.186  1.00  0.00    -0.246 NA
HETATM    3  C   UNL     1       5.909  25.557  55.270  1.00  0.00     0.069 A 
HETATM    4  C   UNL     1       5.492  26.290  54.140  1.00  0.00     0.008 A 
HETATM    5  C   UNL     1       5.734  25.679  52.885  1.00  0.00     0.046 A 
HETATM    6  C   UNL     1       6.411  24.462  52.798  1.00  0.00     0.052 A 
HETATM    7  C   UNL     1       5.679  26.077  56.536  1.00  0.00     0.032 A 
HETATM    8  C   UNL     1       5.065  27.315  56.726  1.00  0.00     0.002 A 
HETATM    9  C   UNL     1       4.687  28.069  55.625  1.00  0.00     0.001 A 
HETATM   10  C   UNL     1       4.905  27.568  54.342  1.00  0.00     0.015 A 
ENDROOT
BRANCH   5  11
HETATM   11  C   UNL     1       5.307  26.261  51.589  1.00  0.00     0.252 C 
HETATM   12  N   UNL     1       5.480  27.615  51.416  1.00  0.00    -0.355 N 
HETATM   13  H   UNL     1       5.931  28.123  52.175  1.00  0.00     0.162 HD
HETATM   14  O   UNL     1       4.701  25.584  50.766  1.00  0.00    -0.268 OA
BRANCH  12  15
HETATM   15  C   UNL     1       5.403  28.320  50.129  1.00  0.00     0.161 C 
BRANCH  15  16
HETATM   16  C   UNL     1       4.061  29.024  49.714  1.00  0.00     0.237 C 
BRANCH  16  17
HETATM   17  N   UNL     1       4.303  30.442  49.194  1.00  0.00    -0.069 N 
HETATM   18  H   UNL     1       4.213  30.309  48.170  1.00  0.00     0.279 HD
HETATM   19  C   UNL     1       3.319  31.481  49.612  1.00  0.00     0.270 C 
HETATM   20  C   UNL     1       5.719  30.908  49.362  1.00  0.00     0.270 C 
ENDBRANCH  16  17
BRANCH  16  21
HETATM   21  C   UNL     1       3.181  28.181  48.802  1.00  0.00    -0.026 A 
HETATM   22  C   UNL     1       3.787  27.314  47.873  1.00  0.00     0.009 A 
HETATM   23  C   UNL     1       3.018  26.500  47.040  1.00  0.00     0.001 A 
HETATM   24  C   UNL     1       1.630  26.543  47.114  1.00  0.00     0.000 A 
HETATM   25  C   UNL     1       1.010  27.397  48.024  1.00  0.00     0.001 A 
HETATM   26  C   UNL     1       1.777  28.206  48.866  1.00  0.00     0.009 A 
ENDBRANCH  16  21
ENDBRANCH  15  16
ENDBRANCH  12  15
ENDBRANCH   5  11
BRANCH   1  27
HETATM   27  C   UNL     1       7.521  22.583  53.991  1.00  0.00     0.104 A 
HETATM   28  O   UNL     1       7.874  22.094  55.220  1.00  0.00    -0.313 OA
HETATM   29  C   UNL     1       8.533  20.917  55.014  1.00  0.00     0.050 A 
HETATM   30  C   UNL     1       9.018  20.206  56.213  1.00  0.00     0.076 C 
HETATM   31  C   UNL     1       8.604  20.644  53.666  1.00  0.00     0.035 A 
HETATM   32  C   UNL     1       7.958  21.718  53.009  1.00  0.00     0.042 A 
ENDBRANCH   1  27
TORSDOF 6
ENDMDL
MODEL 10
REMARK VINA RESULT:      -9.5      4.580      7.294
REMARK  6 active torsions:
REMARK  status: ('A' for Active; 'I' for Inactive)
REMARK    1  A    between atoms: C_4  and  C_5 
REMARK    2  A    between atoms: C_9  and  C_10 
REMARK       I    between atoms: C_10  and  N_11 
REMARK    3  A    between atoms: N_11  and  C_12 
REMARK    4  A    between atoms: C_12  and  C_13 
REMARK    5  A    between atoms: C_13  and  N_14 
REMARK    6  A    between atoms: C_13  and  C_18 
ROOT
HETATM    1  C   UNL     1       4.937  29.485  49.858  1.00  0.00     0.092 A 
HETATM    2  N   UNL     1       4.113  29.194  48.828  1.00  0.00    -0.246 NA
HETATM    3  C   UNL     1       3.798  27.915  48.576  1.00  0.00     0.069 A 
HETATM    4  C   UNL     1       4.277  26.837  49.349  1.00  0.00     0.008 A 
HETATM    5  C   UNL     1       5.091  27.185  50.455  1.00  0.00     0.046 A 
HETATM    6  C   UNL     1       5.442  28.514  50.697  1.00  0.00     0.052 A 
HETATM    7  C   UNL     1       2.968  27.655  47.494  1.00  0.00     0.032 A 
HETATM    8  C   UNL     1       2.611  26.355  47.133  1.00  0.00     0.002 A 
HETATM    9  C   UNL     1       3.107  25.281  47.856  1.00  0.00     0.001 A 
HETATM   10  C   UNL     1       3.941  25.516  48.950  1.00  0.00     0.015 A 
ENDROOT
BRANCH   5  11
HETATM   11  C   UNL     1       5.632  26.200  51.423  1.00  0.00     0.252 C 
HETATM   12  N   UNL     1       5.082  26.184  52.684  1.00  0.00    -0.355 N 
HETATM   13  H   UNL     1       4.307  26.822  52.856  1.00  0.00     0.162 HD
HETATM   14  O   UNL     1       6.620  25.528  51.148  1.00  0.00    -0.268 OA
BRANCH  12  15
HETATM   15  C   UNL     1       5.264  25.113  53.672  1.00  0.00     0.161 C 
BRANCH  15  16
HETATM   16  C   UNL     1       6.663  24.930  54.364  1.00  0.00     0.237 C 
BRANCH  16  17
HETATM   17  N   UNL     1       6.681  25.528  55.772  1.00  0.00    -0.069 N 
HETATM   18  H   UNL     1       7.136  24.772  56.316  1.00  0.00     0.279 HD
HETATM   19  C   UNL     1       7.480  26.773  55.955  1.00  0.00     0.270 C 
HETATM   20  C   UNL     1       5.320  25.635  56.394  1.00  0.00     0.270 C 
ENDBRANCH  16  17
BRANCH  16  21
HETATM   21  C   UNL     1       7.200  23.507  54.298  1.00  0.00    -0.026 A 
HETATM   22  C   UNL     1       7.378  22.785  55.494  1.00  0.00     0.009 A 
HETATM   23  C   UNL     1       7.839  21.468  55.476  1.00  0.00     0.001 A 
HETATM   24  C   UNL     1       8.137  20.850  54.266  1.00  0.00     0.000 A 
HETATM   25  C   UNL     1       7.971  21.548  53.073  1.00  0.00     0.001 A 
HETATM   26  C   UNL     1       7.501  22.865  53.085  1.00  0.00     0.009 A 
ENDBRANCH  16  21
ENDBRANCH  15  16
ENDBRANCH  12  15
ENDBRANCH   5  11
BRANCH   1  27
HETATM   27  C   UNL     1       5.251  30.898  50.013  1.00  0.00     0.104 A 
HETATM   28  O   UNL     1       4.837  31.500  51.172  1.00  0.00    -0.313 OA
HETATM   29  C   UNL     1       5.230  32.805  51.113  1.00  0.00     0.050 A 
HETATM   30  C   UNL     1       4.882  33.658  52.266  1.00  0.00     0.076 C 
HETATM   31  C   UNL     1       5.895  33.047  49.932  1.00  0.00     0.035 A 
HETATM   32  C   UNL     1       5.904  31.822  49.222  1.00  0.00     0.042 A 
ENDBRANCH   1  27
TORSDOF 6
ENDMDL
