MODEL 1
REMARK VINA RESULT:      -9.8      0.000      0.000
REMARK  5 active torsions:
REMARK  status: ('A' for Active; 'I' for Inactive)
REMARK    1  A    between atoms: C_6  and  O_7 
REMARK    2  A    between atoms: O_7  and  C_8 
REMARK    3  A    between atoms: C_8  and  C_9 
REMARK       I    between atoms: C_9  and  N_10 
REMARK    4  A    between atoms: N_10  and  N_11 
REMARK    5  A    between atoms: C_12  and  C_13 
ROOT
HETATM    1  C   UNL     1       6.016  26.850  56.374  1.00  0.00     0.261 C 
HETATM    2  N   UNL     1       7.063  27.698  56.695  1.00  0.00    -0.246 N 
HETATM    3  O   UNL     1       4.921  26.837  56.939  1.00  0.00    -0.269 OA
HETATM    4  H   UNL     1       7.953  27.623  56.210  1.00  0.00     0.192 HD
ENDROOT
BRANCH   2   5
HETATM    5  N   UNL     1       6.844  28.654  57.637  1.00  0.00    -0.184 NA
HETATM    6  C   UNL     1       7.418  29.801  57.494  1.00  0.00     0.153 C 
BRANCH   6   7
HETATM    7  C   UNL     1       7.143  30.837  58.477  1.00  0.00     0.018 A 
HETATM    8  C   UNL     1       7.823  31.084  59.721  1.00  0.00     0.004 A 
HETATM    9  C   UNL     1       7.195  32.165  60.337  1.00  0.00     0.043 A 
HETATM   10  C   UNL     1       8.914  30.484  60.389  1.00  0.00     0.014 A 
HETATM   11  C   UNL     1       7.596  32.673  61.580  1.00  0.00     0.030 A 
HETATM   12  N   UNL     1       6.183  32.570  59.503  1.00  0.00    -0.358 N 
HETATM   13  C   UNL     1       8.678  32.057  62.217  1.00  0.00     0.002 A 
HETATM   14  C   UNL     1       9.331  30.977  61.631  1.00  0.00     0.001 A 
HETATM   15  H   UNL     1       5.561  33.341  59.705  1.00  0.00     0.166 HD
HETATM   16  C   UNL     1       6.128  31.781  58.379  1.00  0.00     0.018 A 
HETATM   17  C   UNL     1       5.104  32.017  57.328  1.00  0.00     0.069 C 
ENDBRANCH   6   7
ENDBRANCH   2   5
BRANCH   1  18
HETATM   18  C   UNL     1       6.268  25.963  55.163  1.00  0.00     0.280 C 
BRANCH  18  19
HETATM   19  O   UNL     1       7.642  25.863  54.776  1.00  0.00    -0.340 OA
BRANCH  19  20
HETATM   20  C   UNL     1       7.916  24.575  54.373  1.00  0.00     0.092 A 
HETATM   21  C   UNL     1       8.373  23.648  55.320  1.00  0.00     0.045 A 
HETATM   22  C   UNL     1       8.581  22.314  54.958  1.00  0.00     0.028 A 
HETATM   23 BR   UNL     1       8.685  24.150  57.123  1.00  0.00    -0.048 Br
HETATM   24  C   UNL     1       8.355  21.898  53.641  1.00  0.00    -0.060 A 
HETATM   25  C   UNL     1       8.494  20.452  53.263  1.00  0.00     0.048 C 
HETATM   26  C   UNL     1       7.934  22.838  52.690  1.00  0.00     0.016 A 
HETATM   27  C   UNL     1       7.742  24.187  53.033  1.00  0.00    -0.027 A 
HETATM   28  C   UNL     1       7.300  25.149  51.967  1.00  0.00     0.051 C 
ENDBRANCH  19  20
ENDBRANCH  18  19
ENDBRANCH   1  18
TORSDOF 5
ENDMDL
MODEL 2
REMARK VINA RESULT:      -9.5      2.555      9.035
REMARK  5 active torsions:
REMARK  status: ('A' for Active; 'I' for Inactive)
REMARK    1  A    between atoms: C_6  and  O_7 
REMARK    2  A    between atoms: O_7  and  C_8 
REMARK    3  A    between atoms: C_8  and  C_9 
REMARK       I    between atoms: C_9  and  N_10 
REMARK    4  A    between atoms: N_10  and  N_11 
REMARK    5  A    between atoms: C_12  and  C_13 
ROOT
HETATM    1  C   UNL     1       5.578  27.313  56.615  1.00  0.00     0.261 C 
HETATM    2  N   UNL     1       6.411  27.250  55.511  1.00  0.00    -0.246 N 
HETATM    3  O   UNL     1       4.880  26.385  57.026  1.00  0.00    -0.269 OA
HETATM    4  H   UNL     1       6.927  28.071  55.208  1.00  0.00     0.192 HD
ENDROOT
BRANCH   2   5
HETATM    5  N   UNL     1       6.549  26.051  54.884  1.00  0.00    -0.184 NA
HETATM    6  C   UNL     1       7.666  25.416  55.012  1.00  0.00     0.153 C 
BRANCH   6   7
HETATM    7  C   UNL     1       7.793  24.111  54.380  1.00  0.00     0.018 A 
HETATM    8  C   UNL     1       7.994  22.834  55.013  1.00  0.00     0.004 A 
HETATM    9  C   UNL     1       8.079  21.874  54.006  1.00  0.00     0.043 A 
HETATM   10  C   UNL     1       8.121  22.402  56.352  1.00  0.00     0.014 A 
HETATM   11  C   UNL     1       8.285  20.513  54.266  1.00  0.00     0.030 A 
HETATM   12  N   UNL     1       7.925  22.532  52.811  1.00  0.00    -0.358 N 
HETATM   13  C   UNL     1       8.408  20.116  55.601  1.00  0.00     0.002 A 
HETATM   14  C   UNL     1       8.326  21.046  56.633  1.00  0.00     0.001 A 
HETATM   15  H   UNL     1       7.945  22.074  51.910  1.00  0.00     0.166 HD
HETATM   16  C   UNL     1       7.757  23.881  53.011  1.00  0.00     0.018 A 
HETATM   17  C   UNL     1       7.581  24.808  51.862  1.00  0.00     0.069 C 
ENDBRANCH   6   7
ENDBRANCH   2   5
BRANCH   1  18
HETATM   18  C   UNL     1       5.651  28.623  57.389  1.00  0.00     0.280 C 
BRANCH  18  19
HETATM   19  O   UNL     1       6.449  29.635  56.769  1.00  0.00    -0.340 OA
BRANCH  19  20
HETATM   20  C   UNL     1       7.245  30.241  57.716  1.00  0.00     0.092 A 
HETATM   21  C   UNL     1       6.725  31.308  58.461  1.00  0.00     0.045 A 
HETATM   22  C   UNL     1       7.480  31.888  59.484  1.00  0.00     0.028 A 
HETATM   23 BR   UNL     1       4.977  31.975  58.144  1.00  0.00    -0.048 Br
HETATM   24  C   UNL     1       8.771  31.422  59.758  1.00  0.00    -0.060 A 
HETATM   25  C   UNL     1       9.555  31.980  60.909  1.00  0.00     0.048 C 
HETATM   26  C   UNL     1       9.299  30.379  58.985  1.00  0.00     0.016 A 
HETATM   27  C   UNL     1       8.561  29.800  57.938  1.00  0.00    -0.027 A 
HETATM   28  C   UNL     1       9.186  28.693  57.138  1.00  0.00     0.051 C 
ENDBRANCH  19  20
ENDBRANCH  18  19
ENDBRANCH   1  18
TORSDOF 5
ENDMDL
MODEL 3
REMARK VINA RESULT:      -9.5      1.594      2.180
REMARK  5 active torsions:
REMARK  status: ('A' for Active; 'I' for Inactive)
REMARK    1  A    between atoms: C_6  and  O_7 
REMARK    2  A    between atoms: O_7  and  C_8 
REMARK    3  A    between atoms: C_8  and  C_9 
REMARK       I    between atoms: C_9  and  N_10 
REMARK    4  A    between atoms: N_10  and  N_11 
REMARK    5  A    between atoms: C_12  and  C_13 
ROOT
HETATM    1  C   UNL     1       8.038  26.299  57.459  1.00  0.00     0.261 C 
HETATM    2  N   UNL     1       8.228  27.614  57.066  1.00  0.00    -0.246 N 
HETATM    3  O   UNL     1       7.734  25.940  58.597  1.00  0.00    -0.269 OA
HETATM    4  H   UNL     1       8.518  27.830  56.118  1.00  0.00     0.192 HD
ENDROOT
BRANCH   2   5
HETATM    5  N   UNL     1       7.969  28.593  57.973  1.00  0.00    -0.184 NA
HETATM    6  C   UNL     1       7.583  29.746  57.539  1.00  0.00     0.153 C 
BRANCH   6   7
HETATM    7  C   UNL     1       7.260  30.777  58.513  1.00  0.00     0.018 A 
HETATM    8  C   UNL     1       7.910  31.049  59.767  1.00  0.00     0.004 A 
HETATM    9  C   UNL     1       7.239  32.113  60.368  1.00  0.00     0.043 A 
HETATM   10  C   UNL     1       9.007  30.485  60.457  1.00  0.00     0.014 A 
HETATM   11  C   UNL     1       7.602  32.637  61.615  1.00  0.00     0.030 A 
HETATM   12  N   UNL     1       6.229  32.483  59.514  1.00  0.00    -0.358 N 
HETATM   13  C   UNL     1       8.691  32.057  62.274  1.00  0.00     0.002 A 
HETATM   14  C   UNL     1       9.386  30.995  61.704  1.00  0.00     0.001 A 
HETATM   15  H   UNL     1       5.581  33.236  59.703  1.00  0.00     0.166 HD
HETATM   16  C   UNL     1       6.219  31.689  58.392  1.00  0.00     0.018 A 
HETATM   17  C   UNL     1       5.206  31.890  57.323  1.00  0.00     0.069 C 
ENDBRANCH   6   7
ENDBRANCH   2   5
BRANCH   1  18
HETATM   18  C   UNL     1       8.132  25.281  56.330  1.00  0.00     0.280 C 
BRANCH  18  19
HETATM   19  O   UNL     1       7.042  24.358  56.270  1.00  0.00    -0.340 OA
BRANCH  19  20
HETATM   20  C   UNL     1       7.353  23.330  55.407  1.00  0.00     0.092 A 
HETATM   21  C   UNL     1       7.053  23.470  54.046  1.00  0.00     0.045 A 
HETATM   22  C   UNL     1       7.431  22.479  53.135  1.00  0.00     0.028 A 
HETATM   23 BR   UNL     1       6.168  25.012  53.382  1.00  0.00    -0.048 Br
HETATM   24  C   UNL     1       8.093  21.329  53.580  1.00  0.00    -0.060 A 
HETATM   25  C   UNL     1       8.578  20.301  52.600  1.00  0.00     0.048 C 
HETATM   26  C   UNL     1       8.357  21.179  54.948  1.00  0.00     0.016 A 
HETATM   27  C   UNL     1       7.964  22.155  55.879  1.00  0.00    -0.027 A 
HETATM   28  C   UNL     1       8.265  21.931  57.333  1.00  0.00     0.051 C 
ENDBRANCH  19  20
ENDBRANCH  18  19
ENDBRANCH   1  18
TORSDOF 5
ENDMDL
MODEL 4
REMARK VINA RESULT:      -9.3      2.146      9.220
REMARK  5 active torsions:
REMARK  status: ('A' for Active; 'I' for Inactive)
REMARK    1  A    between atoms: C_6  and  O_7 
REMARK    2  A    between atoms: O_7  and  C_8 
REMARK    3  A    between atoms: C_8  and  C_9 
REMARK       I    between atoms: C_9  and  N_10 
REMARK    4  A    between atoms: N_10  and  N_11 
REMARK    5  A    between atoms: C_12  and  C_13 
ROOT
HETATM    1  C   UNL     1       6.262  28.152  56.072  1.00  0.00     0.261 C 
HETATM    2  N   UNL     1       6.474  26.887  56.594  1.00  0.00    -0.246 N 
HETATM    3  O   UNL     1       6.240  28.426  54.871  1.00  0.00    -0.269 OA
HETATM    4  H   UNL     1       6.518  26.745  57.598  1.00  0.00     0.192 HD
ENDROOT
BRANCH   2   5
HETATM    5  N   UNL     1       6.572  25.847  55.723  1.00  0.00    -0.184 NA
HETATM    6  C   UNL     1       7.732  25.315  55.529  1.00  0.00     0.153 C 
BRANCH   6   7
HETATM    7  C   UNL     1       7.825  24.171  54.634  1.00  0.00     0.018 A 
HETATM    8  C   UNL     1       8.013  22.787  54.978  1.00  0.00     0.004 A 
HETATM    9  C   UNL     1       8.064  22.060  53.790  1.00  0.00     0.043 A 
HETATM   10  C   UNL     1       8.153  22.079  56.193  1.00  0.00     0.014 A 
HETATM   11  C   UNL     1       8.249  20.672  53.752  1.00  0.00     0.030 A 
HETATM   12  N   UNL     1       7.904  22.958  52.764  1.00  0.00    -0.358 N 
HETATM   13  C   UNL     1       8.386  20.000  54.971  1.00  0.00     0.002 A 
HETATM   14  C   UNL     1       8.338  20.692  56.177  1.00  0.00     0.001 A 
HETATM   15  H   UNL     1       7.900  22.700  51.786  1.00  0.00     0.166 HD
HETATM   16  C   UNL     1       7.763  24.237  53.247  1.00  0.00     0.018 A 
HETATM   17  C   UNL     1       7.586  25.388  52.324  1.00  0.00     0.069 C 
ENDBRANCH   6   7
ENDBRANCH   2   5
BRANCH   1  18
HETATM   18  C   UNL     1       5.941  29.219  57.111  1.00  0.00     0.280 C 
BRANCH  18  19
HETATM   19  O   UNL     1       6.659  30.444  56.945  1.00  0.00    -0.340 OA
BRANCH  19  20
HETATM   20  C   UNL     1       7.317  30.756  58.114  1.00  0.00     0.092 A 
HETATM   21  C   UNL     1       8.624  30.289  58.307  1.00  0.00     0.045 A 
HETATM   22  C   UNL     1       9.344  30.657  59.446  1.00  0.00     0.028 A 
HETATM   23 BR   UNL     1       9.476  29.182  57.022  1.00  0.00    -0.048 Br
HETATM   24  C   UNL     1       8.758  31.479  60.416  1.00  0.00    -0.060 A 
HETATM   25  C   UNL     1       9.552  31.949  61.599  1.00  0.00     0.048 C 
HETATM   26  C   UNL     1       7.438  31.913  60.235  1.00  0.00     0.016 A 
HETATM   27  C   UNL     1       6.692  31.533  59.105  1.00  0.00    -0.027 A 
HETATM   28  C   UNL     1       5.278  32.021  58.975  1.00  0.00     0.051 C 
ENDBRANCH  19  20
ENDBRANCH  18  19
ENDBRANCH   1  18
TORSDOF 5
ENDMDL
MODEL 5
REMARK VINA RESULT:      -9.0      5.614      9.513
REMARK  5 active torsions:
REMARK  status: ('A' for Active; 'I' for Inactive)
REMARK    1  A    between atoms: C_6  and  O_7 
REMARK    2  A    between atoms: O_7  and  C_8 
REMARK    3  A    between atoms: C_8  and  C_9 
REMARK       I    between atoms: C_9  and  N_10 
REMARK    4  A    between atoms: N_10  and  N_11 
REMARK    5  A    between atoms: C_12  and  C_13 
ROOT
HETATM    1  C   UNL     1       5.194  26.140  50.924  1.00  0.00     0.261 C 
HETATM    2  N   UNL     1       6.228  26.347  51.822  1.00  0.00    -0.246 N 
HETATM    3  O   UNL     1       4.497  25.125  50.872  1.00  0.00    -0.269 OA
HETATM    4  H   UNL     1       6.785  27.195  51.778  1.00  0.00     0.192 HD
ENDROOT
BRANCH   2   5
HETATM    5  N   UNL     1       6.435  25.408  52.783  1.00  0.00    -0.184 NA
HETATM    6  C   UNL     1       7.625  25.275  53.266  1.00  0.00     0.153 C 
BRANCH   6   7
HETATM    7  C   UNL     1       7.833  24.303  54.328  1.00  0.00     0.018 A 
HETATM    8  C   UNL     1       8.013  22.880  54.208  1.00  0.00     0.004 A 
HETATM    9  C   UNL     1       8.153  22.363  55.494  1.00  0.00     0.043 A 
HETATM   10  C   UNL     1       8.063  21.977  53.122  1.00  0.00     0.014 A 
HETATM   11  C   UNL     1       8.337  20.998  55.751  1.00  0.00     0.030 A 
HETATM   12  N   UNL     1       8.074  23.422  56.363  1.00  0.00    -0.358 N 
HETATM   13  C   UNL     1       8.380  20.129  54.656  1.00  0.00     0.002 A 
HETATM   14  C   UNL     1       8.245  20.610  53.357  1.00  0.00     0.001 A 
HETATM   15  H   UNL     1       8.145  23.332  57.368  1.00  0.00     0.166 HD
HETATM   16  C   UNL     1       7.876  24.601  55.685  1.00  0.00     0.018 A 
HETATM   17  C   UNL     1       7.747  25.890  56.413  1.00  0.00     0.069 C 
ENDBRANCH   6   7
ENDBRANCH   2   5
BRANCH   1  18
HETATM   18  C   UNL     1       4.885  27.332  50.028  1.00  0.00     0.280 C 
BRANCH  18  19
HETATM   19  O   UNL     1       4.905  27.044  48.628  1.00  0.00    -0.340 OA
BRANCH  19  20
HETATM   20  C   UNL     1       3.690  27.376  48.070  1.00  0.00     0.092 A 
HETATM   21  C   UNL     1       3.389  28.726  47.848  1.00  0.00     0.045 A 
HETATM   22  C   UNL     1       2.199  29.087  47.209  1.00  0.00     0.028 A 
HETATM   23 BR   UNL     1       4.588  30.104  48.362  1.00  0.00    -0.048 Br
HETATM   24  C   UNL     1       1.289  28.103  46.805  1.00  0.00    -0.060 A 
HETATM   25  C   UNL     1       0.051  28.476  46.043  1.00  0.00     0.048 C 
HETATM   26  C   UNL     1       1.580  26.757  47.063  1.00  0.00     0.016 A 
HETATM   27  C   UNL     1       2.761  26.379  47.724  1.00  0.00    -0.027 A 
HETATM   28  C   UNL     1       3.011  24.920  47.982  1.00  0.00     0.051 C 
ENDBRANCH  19  20
ENDBRANCH  18  19
ENDBRANCH   1  18
TORSDOF 5
ENDMDL
MODEL 6
REMARK VINA RESULT:      -8.9      2.833      9.583
REMARK  5 active torsions:
REMARK  status: ('A' for Active; 'I' for Inactive)
REMARK    1  A    between atoms: C_6  and  O_7 
REMARK    2  A    between atoms: O_7  and  C_8 
REMARK    3  A    between atoms: C_8  and  C_9 
REMARK       I    between atoms: C_9  and  N_10 
REMARK    4  A    between atoms: N_10  and  N_11 
REMARK    5  A    between atoms: C_12  and  C_13 
ROOT
HETATM    1  C   UNL     1       6.879  29.778  57.403  1.00  0.00     0.261 C 
HETATM    2  N   UNL     1       7.432  28.665  58.015  1.00  0.00    -0.246 N 
HETATM    3  O   UNL     1       6.851  29.973  56.187  1.00  0.00    -0.269 OA
HETATM    4  H   UNL     1       7.453  28.593  59.028  1.00  0.00     0.192 HD
ENDROOT
BRANCH   2   5
HETATM    5  N   UNL     1       7.895  27.664  57.220  1.00  0.00    -0.184 NA
HETATM    6  C   UNL     1       7.083  26.717  56.889  1.00  0.00     0.153 C 
BRANCH   6   7
HETATM    7  C   UNL     1       7.568  25.673  55.999  1.00  0.00     0.018 A 
HETATM    8  C   UNL     1       7.395  25.570  54.574  1.00  0.00     0.004 A 
HETATM    9  C   UNL     1       8.012  24.391  54.159  1.00  0.00     0.043 A 
HETATM   10  C   UNL     1       6.763  26.367  53.593  1.00  0.00     0.014 A 
HETATM   11  C   UNL     1       8.027  23.967  52.823  1.00  0.00     0.030 A 
HETATM   12  N   UNL     1       8.549  23.803  55.277  1.00  0.00    -0.358 N 
HETATM   13  C   UNL     1       7.392  24.777  51.876  1.00  0.00     0.002 A 
HETATM   14  C   UNL     1       6.767  25.962  52.254  1.00  0.00     0.001 A 
HETATM   15  H   UNL     1       9.057  22.930  55.265  1.00  0.00     0.166 HD
HETATM   16  C   UNL     1       8.290  24.555  56.399  1.00  0.00     0.018 A 
HETATM   17  C   UNL     1       8.761  24.117  57.738  1.00  0.00     0.069 C 
ENDBRANCH   6   7
ENDBRANCH   2   5
BRANCH   1  18
HETATM   18  C   UNL     1       6.185  30.744  58.354  1.00  0.00     0.280 C 
BRANCH  18  19
HETATM   19  O   UNL     1       6.800  32.031  58.446  1.00  0.00    -0.340 OA
BRANCH  19  20
HETATM   20  C   UNL     1       7.109  32.303  59.761  1.00  0.00     0.092 A 
HETATM   21  C   UNL     1       6.113  32.816  60.602  1.00  0.00     0.045 A 
HETATM   22  C   UNL     1       6.374  33.025  61.959  1.00  0.00     0.028 A 
HETATM   23 BR   UNL     1       4.373  33.206  59.951  1.00  0.00    -0.048 Br
HETATM   24  C   UNL     1       7.641  32.743  62.484  1.00  0.00    -0.060 A 
HETATM   25  C   UNL     1       7.905  32.882  63.955  1.00  0.00     0.048 C 
HETATM   26  C   UNL     1       8.643  32.265  61.629  1.00  0.00     0.016 A 
HETATM   27  C   UNL     1       8.403  32.071  60.258  1.00  0.00    -0.027 A 
HETATM   28  C   UNL     1       9.521  31.567  59.392  1.00  0.00     0.051 C 
ENDBRANCH  19  20
ENDBRANCH  18  19
ENDBRANCH   1  18
TORSDOF 5
ENDMDL
MODEL 7
REMARK VINA RESULT:      -8.9      2.604      9.671
REMARK  5 active torsions:
REMARK  status: ('A' for Active; 'I' for Inactive)
REMARK    1  A    between atoms: C_6  and  O_7 
REMARK    2  A    between atoms: O_7  and  C_8 
REMARK    3  A    between atoms: C_8  and  C_9 
REMARK       I    between atoms: C_9  and  N_10 
REMARK    4  A    between atoms: N_10  and  N_11 
REMARK    5  A    between atoms: C_12  and  C_13 
ROOT
HETATM    1  C   UNL     1       8.427  28.785  57.622  1.00  0.00     0.261 C 
HETATM    2  N   UNL     1       7.607  27.669  57.582  1.00  0.00    -0.246 N 
HETATM    3  O   UNL     1       9.250  29.087  56.756  1.00  0.00    -0.269 OA
HETATM    4  H   UNL     1       6.980  27.464  58.354  1.00  0.00     0.192 HD
ENDROOT
BRANCH   2   5
HETATM    5  N   UNL     1       7.637  26.895  56.464  1.00  0.00    -0.184 NA
HETATM    6  C   UNL     1       6.825  25.895  56.386  1.00  0.00     0.153 C 
BRANCH   6   7
HETATM    7  C   UNL     1       6.826  25.099  55.169  1.00  0.00     0.018 A 
HETATM    8  C   UNL     1       7.616  23.933  54.871  1.00  0.00     0.004 A 
HETATM    9  C   UNL     1       7.294  23.526  53.577  1.00  0.00     0.043 A 
HETATM   10  C   UNL     1       8.585  23.186  55.578  1.00  0.00     0.014 A 
HETATM   11  C   UNL     1       7.889  22.419  52.956  1.00  0.00     0.030 A 
HETATM   12  N   UNL     1       6.342  24.395  53.108  1.00  0.00    -0.358 N 
HETATM   13  C   UNL     1       8.845  21.701  53.682  1.00  0.00     0.002 A 
HETATM   14  C   UNL     1       9.190  22.077  54.976  1.00  0.00     0.001 A 
HETATM   15  H   UNL     1       5.927  24.333  52.188  1.00  0.00     0.166 HD
HETATM   16  C   UNL     1       6.048  25.355  54.047  1.00  0.00     0.018 A 
HETATM   17  C   UNL     1       5.050  26.419  53.766  1.00  0.00     0.069 C 
ENDBRANCH   6   7
ENDBRANCH   2   5
BRANCH   1  18
HETATM   18  C   UNL     1       8.172  29.715  58.800  1.00  0.00     0.280 C 
BRANCH  18  19
HETATM   19  O   UNL     1       8.302  31.107  58.497  1.00  0.00    -0.340 OA
BRANCH  19  20
HETATM   20  C   UNL     1       7.606  31.849  59.425  1.00  0.00     0.092 A 
HETATM   21  C   UNL     1       6.270  32.184  59.167  1.00  0.00     0.045 A 
HETATM   22  C   UNL     1       5.516  32.866  60.126  1.00  0.00     0.028 A 
HETATM   23 BR   UNL     1       5.426  31.696  57.539  1.00  0.00    -0.048 Br
HETATM   24  C   UNL     1       6.096  33.238  61.345  1.00  0.00    -0.060 A 
HETATM   25  C   UNL     1       5.270  33.893  62.413  1.00  0.00     0.048 C 
HETATM   26  C   UNL     1       7.442  32.932  61.581  1.00  0.00     0.016 A 
HETATM   27  C   UNL     1       8.220  32.267  60.618  1.00  0.00    -0.027 A 
HETATM   28  C   UNL     1       9.662  31.978  60.927  1.00  0.00     0.051 C 
ENDBRANCH  19  20
ENDBRANCH  18  19
ENDBRANCH   1  18
TORSDOF 5
ENDMDL
MODEL 8
REMARK VINA RESULT:      -8.9      2.729      9.487
REMARK  5 active torsions:
REMARK  status: ('A' for Active; 'I' for Inactive)
REMARK    1  A    between atoms: C_6  and  O_7 
REMARK    2  A    between atoms: O_7  and  C_8 
REMARK    3  A    between atoms: C_8  and  C_9 
REMARK       I    between atoms: C_9  and  N_10 
REMARK    4  A    between atoms: N_10  and  N_11 
REMARK    5  A    between atoms: C_12  and  C_13 
ROOT
HETATM    1  C   UNL     1       6.599  29.524  56.900  1.00  0.00     0.261 C 
HETATM    2  N   UNL     1       7.007  28.227  57.168  1.00  0.00    -0.246 N 
HETATM    3  O   UNL     1       6.435  29.993  55.773  1.00  0.00    -0.269 OA
HETATM    4  H   UNL     1       7.159  27.923  58.125  1.00  0.00     0.192 HD
ENDROOT
BRANCH   2   5
HETATM    5  N   UNL     1       7.145  27.374  56.119  1.00  0.00    -0.184 NA
HETATM    6  C   UNL     1       6.379  26.336  56.065  1.00  0.00     0.153 C 
BRANCH   6   7
HETATM    7  C   UNL     1       6.497  25.451  54.916  1.00  0.00     0.018 A 
HETATM    8  C   UNL     1       7.368  24.317  54.754  1.00  0.00     0.004 A 
HETATM    9  C   UNL     1       7.146  23.794  53.481  1.00  0.00     0.043 A 
HETATM   10  C   UNL     1       8.336  23.687  55.569  1.00  0.00     0.014 A 
HETATM   11  C   UNL     1       7.838  22.682  52.983  1.00  0.00     0.030 A 
HETATM   12  N   UNL     1       6.174  24.565  52.894  1.00  0.00    -0.358 N 
HETATM   13  C   UNL     1       8.790  22.081  53.813  1.00  0.00     0.002 A 
HETATM   14  C   UNL     1       9.037  22.575  55.090  1.00  0.00     0.001 A 
HETATM   15  H   UNL     1       5.817  24.407  51.962  1.00  0.00     0.166 HD
HETATM   16  C   UNL     1       5.771  25.573  53.737  1.00  0.00     0.018 A 
HETATM   17  C   UNL     1       4.732  26.549  53.319  1.00  0.00     0.069 C 
ENDBRANCH   6   7
ENDBRANCH   2   5
BRANCH   1  18
HETATM   18  C   UNL     1       6.252  30.345  58.135  1.00  0.00     0.280 C 
BRANCH  18  19
HETATM   19  O   UNL     1       6.825  31.655  58.157  1.00  0.00    -0.340 OA
BRANCH  19  20
HETATM   20  C   UNL     1       7.156  31.994  59.451  1.00  0.00     0.092 A 
HETATM   21  C   UNL     1       6.173  32.544  60.283  1.00  0.00     0.045 A 
HETATM   22  C   UNL     1       6.458  32.821  61.624  1.00  0.00     0.028 A 
HETATM   23 BR   UNL     1       4.421  32.896  59.645  1.00  0.00    -0.048 Br
HETATM   24  C   UNL     1       7.734  32.570  62.139  1.00  0.00    -0.060 A 
HETATM   25  C   UNL     1       8.024  32.783  63.596  1.00  0.00     0.048 C 
HETATM   26  C   UNL     1       8.723  32.053  61.292  1.00  0.00     0.016 A 
HETATM   27  C   UNL     1       8.459  31.791  59.936  1.00  0.00    -0.027 A 
HETATM   28  C   UNL     1       9.565  31.248  59.076  1.00  0.00     0.051 C 
ENDBRANCH  19  20
ENDBRANCH  18  19
ENDBRANCH   1  18
TORSDOF 5
ENDMDL
MODEL 9
REMARK VINA RESULT:      -8.7      1.845      2.356
REMARK  5 active torsions:
REMARK  status: ('A' for Active; 'I' for Inactive)
REMARK    1  A    between atoms: C_6  and  O_7 
REMARK    2  A    between atoms: O_7  and  C_8 
REMARK    3  A    between atoms: C_8  and  C_9 
REMARK       I    between atoms: C_9  and  N_10 
REMARK    4  A    between atoms: N_10  and  N_11 
REMARK    5  A    between atoms: C_12  and  C_13 
ROOT
HETATM    1  C   UNL     1       7.643  28.600  55.387  1.00  0.00     0.261 C 
HETATM    2  N   UNL     1       6.619  29.476  55.709  1.00  0.00    -0.246 N 
HETATM    3  O   UNL     1       8.764  28.608  55.897  1.00  0.00    -0.269 OA
HETATM    4  H   UNL     1       5.732  29.434  55.216  1.00  0.00     0.192 HD
ENDROOT
BRANCH   2   5
HETATM    5  N   UNL     1       6.825  30.350  56.729  1.00  0.00    -0.184 NA
HETATM    6  C   UNL     1       5.902  30.483  57.622  1.00  0.00     0.153 C 
BRANCH   6   7
HETATM    7  C   UNL     1       6.146  31.383  58.739  1.00  0.00     0.018 A 
HETATM    8  C   UNL     1       7.231  31.352  59.684  1.00  0.00     0.004 A 
HETATM    9  C   UNL     1       7.033  32.395  60.586  1.00  0.00     0.043 A 
HETATM   10  C   UNL     1       8.365  30.527  59.863  1.00  0.00     0.014 A 
HETATM   11  C   UNL     1       7.902  32.654  61.655  1.00  0.00     0.030 A 
HETATM   12  N   UNL     1       5.885  33.043  60.205  1.00  0.00    -0.358 N 
HETATM   13  C   UNL     1       9.014  31.820  61.807  1.00  0.00     0.002 A 
HETATM   14  C   UNL     1       9.245  30.770  60.923  1.00  0.00     0.001 A 
HETATM   15  H   UNL     1       5.504  33.845  60.689  1.00  0.00     0.166 HD
HETATM   16  C   UNL     1       5.330  32.448  59.097  1.00  0.00     0.018 A 
HETATM   17  C   UNL     1       4.070  32.966  58.502  1.00  0.00     0.069 C 
ENDBRANCH   6   7
ENDBRANCH   2   5
BRANCH   1  18
HETATM   18  C   UNL     1       7.256  27.513  54.393  1.00  0.00     0.280 C 
BRANCH  18  19
HETATM   19  O   UNL     1       6.404  26.496  54.928  1.00  0.00    -0.340 OA
BRANCH  19  20
HETATM   20  C   UNL     1       6.929  25.255  54.640  1.00  0.00     0.092 A 
HETATM   21  C   UNL     1       6.572  24.626  53.440  1.00  0.00     0.045 A 
HETATM   22  C   UNL     1       7.151  23.405  53.084  1.00  0.00     0.028 A 
HETATM   23 BR   UNL     1       5.331  25.417  52.241  1.00  0.00    -0.048 Br
HETATM   24  C   UNL     1       8.077  22.790  53.934  1.00  0.00    -0.060 A 
HETATM   25  C   UNL     1       8.767  21.523  53.521  1.00  0.00     0.048 C 
HETATM   26  C   UNL     1       8.402  23.406  55.150  1.00  0.00     0.016 A 
HETATM   27  C   UNL     1       7.811  24.623  55.533  1.00  0.00    -0.027 A 
HETATM   28  C   UNL     1       8.192  25.228  56.854  1.00  0.00     0.051 C 
ENDBRANCH  19  20
ENDBRANCH  18  19
ENDBRANCH   1  18
TORSDOF 5
ENDMDL
MODEL 10
REMARK VINA RESULT:      -8.7      2.769      9.414
REMARK  5 active torsions:
REMARK  status: ('A' for Active; 'I' for Inactive)
REMARK    1  A    between atoms: C_6  and  O_7 
REMARK    2  A    between atoms: O_7  and  C_8 
REMARK    3  A    between atoms: C_8  and  C_9 
REMARK       I    between atoms: C_9  and  N_10 
REMARK    4  A    between atoms: N_10  and  N_11 
REMARK    5  A    between atoms: C_12  and  C_13 
ROOT
HETATM    1  C   UNL     1       6.544  27.119  56.593  1.00  0.00     0.261 C 
HETATM    2  N   UNL     1       6.939  26.072  57.410  1.00  0.00    -0.246 N 
HETATM    3  O   UNL     1       6.377  27.040  55.376  1.00  0.00    -0.269 OA
HETATM    4  H   UNL     1       7.094  26.223  58.402  1.00  0.00     0.192 HD
ENDROOT
BRANCH   2   5
HETATM    5  N   UNL     1       7.061  24.839  56.850  1.00  0.00    -0.184 NA
HETATM    6  C   UNL     1       8.112  24.141  57.123  1.00  0.00     0.153 C 
BRANCH   6   7
HETATM    7  C   UNL     1       8.217  22.803  56.561  1.00  0.00     0.018 A 
HETATM    8  C   UNL     1       8.136  22.411  55.179  1.00  0.00     0.004 A 
HETATM    9  C   UNL     1       8.269  21.025  55.126  1.00  0.00     0.043 A 
HETATM   10  C   UNL     1       7.954  23.106  53.962  1.00  0.00     0.014 A 
HETATM   11  C   UNL     1       8.227  20.301  53.927  1.00  0.00     0.030 A 
HETATM   12  N   UNL     1       8.435  20.588  56.416  1.00  0.00    -0.358 N 
HETATM   13  C   UNL     1       8.044  21.016  52.739  1.00  0.00     0.002 A 
HETATM   14  C   UNL     1       7.909  22.401  52.754  1.00  0.00     0.001 A 
HETATM   15  H   UNL     1       8.556  19.617  56.670  1.00  0.00     0.166 HD
HETATM   16  C   UNL     1       8.402  21.640  57.299  1.00  0.00     0.018 A 
HETATM   17  C   UNL     1       8.550  21.417  58.761  1.00  0.00     0.069 C 
ENDBRANCH   6   7
ENDBRANCH   2   5
BRANCH   1  18
HETATM   18  C   UNL     1       6.214  28.408  57.334  1.00  0.00     0.280 C 
BRANCH  18  19
HETATM   19  O   UNL     1       6.816  29.582  56.781  1.00  0.00    -0.340 OA
BRANCH  19  20
HETATM   20  C   UNL     1       7.535  30.237  57.756  1.00  0.00     0.092 A 
HETATM   21  C   UNL     1       6.883  31.173  58.569  1.00  0.00     0.045 A 
HETATM   22  C   UNL     1       7.567  31.793  59.619  1.00  0.00     0.028 A 
HETATM   23 BR   UNL     1       5.054  31.606  58.308  1.00  0.00    -0.048 Br
HETATM   24  C   UNL     1       8.915  31.497  59.854  1.00  0.00    -0.060 A 
HETATM   25  C   UNL     1       9.633  32.092  61.030  1.00  0.00     0.048 C 
HETATM   26  C   UNL     1       9.570  30.587  59.014  1.00  0.00     0.016 A 
HETATM   27  C   UNL     1       8.903  29.973  57.940  1.00  0.00    -0.027 A 
HETATM   28  C   UNL     1       9.664  29.015  57.069  1.00  0.00     0.051 C 
ENDBRANCH  19  20
ENDBRANCH  18  19
ENDBRANCH   1  18
TORSDOF 5
ENDMDL
