MODEL 1
REMARK VINA RESULT:      -8.0      0.000      0.000
REMARK  5 active torsions:
REMARK  status: ('A' for Active; 'I' for Inactive)
REMARK    1  A    between atoms: C_2  and  N_3 
REMARK    2  A    between atoms: N_3  and  C_6 
REMARK    3  A    between atoms: C_6  and  C_7 
REMARK    4  A    between atoms: C_8  and  N_9 
REMARK       I    between atoms: N_9  and  C_10 
REMARK    5  A    between atoms: C_10  and  C_11 
ROOT
HETATM    1  N   UNL     1       7.148  23.786  55.751  1.00  0.00    -0.326 N 
HETATM    2  C   UNL     1       7.807  24.578  56.669  1.00  0.00     0.231 C 
HETATM    3  O   UNL     1       8.996  24.460  56.954  1.00  0.00    -0.272 OA
HETATM    4  H   UNL     1       6.146  23.956  55.706  1.00  0.00     0.169 HD
ENDROOT
BRANCH   1   5
HETATM    5  C   UNL     1       7.580  22.674  54.980  1.00  0.00     0.042 A 
HETATM    6  C   UNL     1       7.960  22.616  53.620  1.00  0.00    -0.006 A 
HETATM    7  C   UNL     1       8.416  21.374  53.100  1.00  0.00     0.011 A 
HETATM    8  C   UNL     1       8.470  20.220  53.876  1.00  0.00     0.001 A 
HETATM    9  C   UNL     1       8.068  20.271  55.196  1.00  0.00     0.002 A 
HETATM   10  C   UNL     1       7.629  21.480  55.736  1.00  0.00     0.030 A 
BRANCH   6  11
HETATM   11  C   UNL     1       7.909  23.736  52.611  1.00  0.00     0.273 C 
BRANCH  11  12
HETATM   12  N   UNL     1       6.562  24.360  52.516  1.00  0.00    -0.072 N 
HETATM   13  H   UNL     1       6.071  24.313  53.414  1.00  0.00     0.277 HD
HETATM   14  H   UNL     1       6.054  23.726  51.869  1.00  0.00     0.277 HD
BRANCH  12  15
HETATM   15  C   UNL     1       6.516  25.714  51.915  1.00  0.00     0.228 C 
HETATM   16  C   UNL     1       5.236  25.849  51.115  1.00  0.00     0.034 C 
ENDBRANCH  12  15
ENDBRANCH  11  12
ENDBRANCH   6  11
ENDBRANCH   1   5
BRANCH   2  17
HETATM   17  C   UNL     1       6.889  25.562  57.412  1.00  0.00     0.122 C 
HETATM   18  C   UNL     1       7.283  26.987  57.087  1.00  0.00    -0.028 A 
HETATM   19  C   UNL     1       6.536  27.564  56.052  1.00  0.00     0.007 A 
HETATM   20  C   UNL     1       8.328  27.698  57.671  1.00  0.00     0.009 A 
HETATM   21  C   UNL     1       6.831  28.828  55.568  1.00  0.00     0.019 A 
HETATM   22  S   UNL     1       5.226  26.514  55.498  1.00  0.00    -0.128 SA
HETATM   23  C   UNL     1       7.886  29.536  56.145  1.00  0.00     0.001 A 
HETATM   24  C   UNL     1       8.624  28.976  57.196  1.00  0.00     0.001 A 
HETATM   25  C   UNL     1       5.431  25.414  56.937  1.00  0.00     0.098 C 
ENDBRANCH   2  17
TORSDOF 5
ENDMDL
MODEL 2
REMARK VINA RESULT:      -7.9      2.085      4.312
REMARK  5 active torsions:
REMARK  status: ('A' for Active; 'I' for Inactive)
REMARK    1  A    between atoms: C_2  and  N_3 
REMARK    2  A    between atoms: N_3  and  C_6 
REMARK    3  A    between atoms: C_6  and  C_7 
REMARK    4  A    between atoms: C_8  and  N_9 
REMARK       I    between atoms: N_9  and  C_10 
REMARK    5  A    between atoms: C_10  and  C_11 
ROOT
HETATM    1  N   UNL     1       7.860  24.640  53.893  1.00  0.00    -0.326 N 
HETATM    2  C   UNL     1       6.781  25.488  53.754  1.00  0.00     0.231 C 
HETATM    3  O   UNL     1       5.611  25.148  53.910  1.00  0.00    -0.272 OA
HETATM    4  H   UNL     1       8.749  25.060  53.636  1.00  0.00     0.169 HD
ENDROOT
BRANCH   1   5
HETATM    5  C   UNL     1       7.938  23.248  54.171  1.00  0.00     0.042 A 
HETATM    6  C   UNL     1       7.941  22.580  55.416  1.00  0.00    -0.006 A 
HETATM    7  C   UNL     1       7.968  21.159  55.416  1.00  0.00     0.011 A 
HETATM    8  C   UNL     1       8.021  20.416  54.240  1.00  0.00     0.001 A 
HETATM    9  C   UNL     1       8.051  21.073  53.026  1.00  0.00     0.002 A 
HETATM   10  C   UNL     1       8.012  22.467  52.995  1.00  0.00     0.030 A 
BRANCH   6  11
HETATM   11  C   UNL     1       7.953  23.206  56.787  1.00  0.00     0.273 C 
BRANCH  11  12
HETATM   12  N   UNL     1       8.946  24.307  56.906  1.00  0.00    -0.072 N 
HETATM   13  H   UNL     1       9.487  24.409  56.041  1.00  0.00     0.277 HD
HETATM   14  H   UNL     1       9.606  23.953  57.625  1.00  0.00     0.277 HD
BRANCH  12  15
HETATM   15  C   UNL     1       8.422  25.602  57.403  1.00  0.00     0.228 C 
HETATM   16  C   UNL     1       6.907  25.553  57.391  1.00  0.00     0.034 C 
ENDBRANCH  12  15
ENDBRANCH  11  12
ENDBRANCH   6  11
ENDBRANCH   1   5
BRANCH   2  17
HETATM   17  C   UNL     1       7.157  26.895  53.261  1.00  0.00     0.122 C 
HETATM   18  C   UNL     1       5.953  27.565  52.634  1.00  0.00    -0.028 A 
HETATM   19  C   UNL     1       5.248  28.404  53.505  1.00  0.00     0.007 A 
HETATM   20  C   UNL     1       5.488  27.358  51.337  1.00  0.00     0.009 A 
HETATM   21  C   UNL     1       4.069  29.020  53.117  1.00  0.00     0.019 A 
HETATM   22  S   UNL     1       6.044  28.570  55.075  1.00  0.00    -0.128 SA
HETATM   23  C   UNL     1       3.596  28.803  51.823  1.00  0.00     0.001 A 
HETATM   24  C   UNL     1       4.306  27.983  50.936  1.00  0.00     0.001 A 
HETATM   25  C   UNL     1       7.568  27.796  54.441  1.00  0.00     0.098 C 
ENDBRANCH   2  17
TORSDOF 5
ENDMDL
MODEL 3
REMARK VINA RESULT:      -7.8      2.214      6.043
REMARK  5 active torsions:
REMARK  status: ('A' for Active; 'I' for Inactive)
REMARK    1  A    between atoms: C_2  and  N_3 
REMARK    2  A    between atoms: N_3  and  C_6 
REMARK    3  A    between atoms: C_6  and  C_7 
REMARK    4  A    between atoms: C_8  and  N_9 
REMARK       I    between atoms: N_9  and  C_10 
REMARK    5  A    between atoms: C_10  and  C_11 
ROOT
HETATM    1  N   UNL     1       6.946  26.398  55.114  1.00  0.00    -0.326 N 
HETATM    2  C   UNL     1       6.893  25.022  55.209  1.00  0.00     0.231 C 
HETATM    3  O   UNL     1       5.913  24.396  55.601  1.00  0.00    -0.272 OA
HETATM    4  H   UNL     1       7.863  26.758  54.862  1.00  0.00     0.169 HD
ENDROOT
BRANCH   1   5
HETATM    5  C   UNL     1       6.005  27.406  55.458  1.00  0.00     0.042 A 
HETATM    6  C   UNL     1       4.881  27.870  54.737  1.00  0.00    -0.006 A 
HETATM    7  C   UNL     1       4.057  28.859  55.339  1.00  0.00     0.011 A 
HETATM    8  C   UNL     1       4.338  29.398  56.591  1.00  0.00     0.001 A 
HETATM    9  C   UNL     1       5.455  28.966  57.280  1.00  0.00     0.002 A 
HETATM   10  C   UNL     1       6.274  27.987  56.718  1.00  0.00     0.030 A 
BRANCH   6  11
HETATM   11  C   UNL     1       4.453  27.457  53.352  1.00  0.00     0.273 C 
BRANCH  11  12
HETATM   12  N   UNL     1       4.160  26.002  53.253  1.00  0.00    -0.072 N 
HETATM   13  H   UNL     1       3.150  25.829  53.251  1.00  0.00     0.277 HD
HETATM   14  H   UNL     1       4.521  25.627  54.152  1.00  0.00     0.277 HD
BRANCH  12  15
HETATM   15  C   UNL     1       4.863  25.271  52.171  1.00  0.00     0.228 C 
HETATM   16  C   UNL     1       5.892  26.193  51.548  1.00  0.00     0.034 C 
ENDBRANCH  12  15
ENDBRANCH  11  12
ENDBRANCH   6  11
ENDBRANCH   1   5
BRANCH   2  17
HETATM   17  C   UNL     1       8.228  24.328  54.894  1.00  0.00     0.122 C 
HETATM   18  C   UNL     1       8.226  22.922  55.455  1.00  0.00    -0.028 A 
HETATM   19  C   UNL     1       7.859  21.938  54.528  1.00  0.00     0.007 A 
HETATM   20  C   UNL     1       8.486  22.571  56.778  1.00  0.00     0.009 A 
HETATM   21  C   UNL     1       7.717  20.611  54.903  1.00  0.00     0.019 A 
HETATM   22  S   UNL     1       7.634  22.592  52.902  1.00  0.00    -0.128 SA
HETATM   23  C   UNL     1       7.965  20.261  56.231  1.00  0.00     0.001 A 
HETATM   24  C   UNL     1       8.355  21.235  57.160  1.00  0.00     0.001 A 
HETATM   25  C   UNL     1       8.416  24.169  53.373  1.00  0.00     0.098 C 
ENDBRANCH   2  17
TORSDOF 5
ENDMDL
MODEL 4
REMARK VINA RESULT:      -7.8      3.243      7.579
REMARK  5 active torsions:
REMARK  status: ('A' for Active; 'I' for Inactive)
REMARK    1  A    between atoms: C_2  and  N_3 
REMARK    2  A    between atoms: N_3  and  C_6 
REMARK    3  A    between atoms: C_6  and  C_7 
REMARK    4  A    between atoms: C_8  and  N_9 
REMARK       I    between atoms: N_9  and  C_10 
REMARK    5  A    between atoms: C_10  and  C_11 
ROOT
HETATM    1  N   UNL     1       8.049  28.184  56.550  1.00  0.00    -0.326 N 
HETATM    2  C   UNL     1       7.737  27.877  55.241  1.00  0.00     0.231 C 
HETATM    3  O   UNL     1       8.230  28.437  54.266  1.00  0.00    -0.272 OA
HETATM    4  H   UNL     1       7.481  27.692  57.234  1.00  0.00     0.169 HD
ENDROOT
BRANCH   1   5
HETATM    5  C   UNL     1       8.900  29.174  57.112  1.00  0.00     0.042 A 
HETATM    6  C   UNL     1       8.591  30.218  58.013  1.00  0.00    -0.006 A 
HETATM    7  C   UNL     1       9.651  31.045  58.474  1.00  0.00     0.011 A 
HETATM    8  C   UNL     1      10.964  30.877  58.045  1.00  0.00     0.001 A 
HETATM    9  C   UNL     1      11.258  29.877  57.139  1.00  0.00     0.002 A 
HETATM   10  C   UNL     1      10.239  29.042  56.680  1.00  0.00     0.030 A 
BRANCH   6  11
HETATM   11  C   UNL     1       7.229  30.596  58.538  1.00  0.00     0.273 C 
BRANCH  11  12
HETATM   12  N   UNL     1       7.223  30.816  60.009  1.00  0.00    -0.072 N 
HETATM   13  H   UNL     1       8.121  30.548  60.424  1.00  0.00     0.277 HD
HETATM   14  H   UNL     1       6.526  30.124  60.348  1.00  0.00     0.277 HD
BRANCH  12  15
HETATM   15  C   UNL     1       6.762  32.149  60.464  1.00  0.00     0.228 C 
HETATM   16  C   UNL     1       7.748  32.685  61.482  1.00  0.00     0.034 C 
ENDBRANCH  12  15
ENDBRANCH  11  12
ENDBRANCH   6  11
ENDBRANCH   1   5
BRANCH   2  17
HETATM   17  C   UNL     1       6.612  26.841  55.098  1.00  0.00     0.122 C 
HETATM   18  C   UNL     1       7.068  25.696  54.219  1.00  0.00    -0.028 A 
HETATM   19  C   UNL     1       7.562  24.594  54.928  1.00  0.00     0.007 A 
HETATM   20  C   UNL     1       7.090  25.696  52.827  1.00  0.00     0.009 A 
HETATM   21  C   UNL     1       8.106  23.501  54.273  1.00  0.00     0.019 A 
HETATM   22  S   UNL     1       7.384  24.780  56.677  1.00  0.00    -0.128 SA
HETATM   23  C   UNL     1       8.140  23.505  52.879  1.00  0.00     0.001 A 
HETATM   24  C   UNL     1       7.628  24.594  52.160  1.00  0.00     0.001 A 
HETATM   25  C   UNL     1       6.273  26.210  56.462  1.00  0.00     0.098 C 
ENDBRANCH   2  17
TORSDOF 5
ENDMDL
MODEL 5
REMARK VINA RESULT:      -7.7      2.121      3.832
REMARK  5 active torsions:
REMARK  status: ('A' for Active; 'I' for Inactive)
REMARK    1  A    between atoms: C_2  and  N_3 
REMARK    2  A    between atoms: N_3  and  C_6 
REMARK    3  A    between atoms: C_6  and  C_7 
REMARK    4  A    between atoms: C_8  and  N_9 
REMARK       I    between atoms: N_9  and  C_10 
REMARK    5  A    between atoms: C_10  and  C_11 
ROOT
HETATM    1  N   UNL     1       7.638  25.624  54.133  1.00  0.00    -0.326 N 
HETATM    2  C   UNL     1       6.405  26.235  54.038  1.00  0.00     0.231 C 
HETATM    3  O   UNL     1       5.335  25.632  54.030  1.00  0.00    -0.272 OA
HETATM    4  H   UNL     1       8.423  26.262  54.029  1.00  0.00     0.169 HD
ENDROOT
BRANCH   1   5
HETATM    5  C   UNL     1       8.013  24.254  54.187  1.00  0.00     0.042 A 
HETATM    6  C   UNL     1       8.524  23.504  55.270  1.00  0.00    -0.006 A 
HETATM    7  C   UNL     1       8.763  22.117  55.075  1.00  0.00     0.011 A 
HETATM    8  C   UNL     1       8.540  21.489  53.852  1.00  0.00     0.001 A 
HETATM    9  C   UNL     1       8.071  22.232  52.786  1.00  0.00     0.002 A 
HETATM   10  C   UNL     1       7.815  23.592  52.953  1.00  0.00     0.030 A 
BRANCH   6  11
HETATM   11  C   UNL     1       8.888  24.015  56.641  1.00  0.00     0.273 C 
BRANCH  11  12
HETATM   12  N   UNL     1       7.702  24.190  57.521  1.00  0.00    -0.072 N 
HETATM   13  H   UNL     1       7.855  23.754  58.436  1.00  0.00     0.277 HD
HETATM   14  H   UNL     1       6.971  23.626  57.046  1.00  0.00     0.277 HD
BRANCH  12  15
HETATM   15  C   UNL     1       7.175  25.571  57.632  1.00  0.00     0.228 C 
HETATM   16  C   UNL     1       5.680  25.544  57.381  1.00  0.00     0.034 C 
ENDBRANCH  12  15
ENDBRANCH  11  12
ENDBRANCH   6  11
ENDBRANCH   1   5
BRANCH   2  17
HETATM   17  C   UNL     1       6.481  27.754  53.816  1.00  0.00     0.122 C 
HETATM   18  C   UNL     1       5.726  28.478  54.910  1.00  0.00    -0.028 A 
HETATM   19  C   UNL     1       6.533  28.912  55.969  1.00  0.00     0.007 A 
HETATM   20  C   UNL     1       4.347  28.669  54.961  1.00  0.00     0.009 A 
HETATM   21  C   UNL     1       5.986  29.508  57.095  1.00  0.00     0.019 A 
HETATM   22  S   UNL     1       8.251  28.623  55.673  1.00  0.00    -0.128 SA
HETATM   23  C   UNL     1       4.603  29.688  57.151  1.00  0.00     0.001 A 
HETATM   24  C   UNL     1       3.791  29.278  56.086  1.00  0.00     0.001 A 
HETATM   25  C   UNL     1       7.937  28.249  53.917  1.00  0.00     0.098 C 
ENDBRANCH   2  17
TORSDOF 5
ENDMDL
MODEL 6
REMARK VINA RESULT:      -7.7      3.363      6.775
REMARK  5 active torsions:
REMARK  status: ('A' for Active; 'I' for Inactive)
REMARK    1  A    between atoms: C_2  and  N_3 
REMARK    2  A    between atoms: N_3  and  C_6 
REMARK    3  A    between atoms: C_6  and  C_7 
REMARK    4  A    between atoms: C_8  and  N_9 
REMARK       I    between atoms: N_9  and  C_10 
REMARK    5  A    between atoms: C_10  and  C_11 
ROOT
HETATM    1  N   UNL     1       6.552  26.248  51.699  1.00  0.00    -0.326 N 
HETATM    2  C   UNL     1       5.416  26.204  50.919  1.00  0.00     0.231 C 
HETATM    3  O   UNL     1       4.535  25.356  51.031  1.00  0.00    -0.272 OA
HETATM    4  H   UNL     1       7.222  26.957  51.412  1.00  0.00     0.169 HD
ENDROOT
BRANCH   1   5
HETATM    5  C   UNL     1       7.030  25.385  52.723  1.00  0.00     0.042 A 
HETATM    6  C   UNL     1       6.938  25.519  54.127  1.00  0.00    -0.006 A 
HETATM    7  C   UNL     1       7.452  24.471  54.938  1.00  0.00     0.011 A 
HETATM    8  C   UNL     1       8.063  23.344  54.396  1.00  0.00     0.001 A 
HETATM    9  C   UNL     1       8.180  23.230  53.024  1.00  0.00     0.002 A 
HETATM   10  C   UNL     1       7.674  24.238  52.204  1.00  0.00     0.030 A 
BRANCH   6  11
HETATM   11  C   UNL     1       6.374  26.686  54.896  1.00  0.00     0.273 C 
BRANCH  11  12
HETATM   12  N   UNL     1       4.899  26.812  54.746  1.00  0.00    -0.072 N 
HETATM   13  H   UNL     1       4.422  26.621  55.633  1.00  0.00     0.277 HD
HETATM   14  H   UNL     1       4.659  26.027  54.109  1.00  0.00     0.277 HD
BRANCH  12  15
HETATM   15  C   UNL     1       4.417  28.054  54.098  1.00  0.00     0.228 C 
HETATM   16  C   UNL     1       4.061  29.060  55.175  1.00  0.00     0.034 C 
ENDBRANCH  12  15
ENDBRANCH  11  12
ENDBRANCH   6  11
ENDBRANCH   1   5
BRANCH   2  17
HETATM   17  C   UNL     1       5.395  27.251  49.794  1.00  0.00     0.122 C 
HETATM   18  C   UNL     1       4.184  27.041  48.911  1.00  0.00    -0.028 A 
HETATM   19  C   UNL     1       3.087  27.844  49.246  1.00  0.00     0.007 A 
HETATM   20  C   UNL     1       4.074  26.104  47.886  1.00  0.00     0.009 A 
HETATM   21  C   UNL     1       1.870  27.709  48.598  1.00  0.00     0.019 A 
HETATM   22  S   UNL     1       3.462  28.999  50.530  1.00  0.00    -0.128 SA
HETATM   23  C   UNL     1       1.755  26.762  47.579  1.00  0.00     0.001 A 
HETATM   24  C   UNL     1       2.854  25.970  47.221  1.00  0.00     0.001 A 
HETATM   25  C   UNL     1       5.248  28.672  50.371  1.00  0.00     0.098 C 
ENDBRANCH   2  17
TORSDOF 5
ENDMDL
MODEL 7
REMARK VINA RESULT:      -7.5      2.805      7.192
REMARK  5 active torsions:
REMARK  status: ('A' for Active; 'I' for Inactive)
REMARK    1  A    between atoms: C_2  and  N_3 
REMARK    2  A    between atoms: N_3  and  C_6 
REMARK    3  A    between atoms: C_6  and  C_7 
REMARK    4  A    between atoms: C_8  and  N_9 
REMARK       I    between atoms: N_9  and  C_10 
REMARK    5  A    between atoms: C_10  and  C_11 
ROOT
HETATM    1  N   UNL     1       5.745  27.903  57.028  1.00  0.00    -0.326 N 
HETATM    2  C   UNL     1       6.142  27.288  55.858  1.00  0.00     0.231 C 
HETATM    3  O   UNL     1       6.795  27.839  54.976  1.00  0.00    -0.272 OA
HETATM    4  H   UNL     1       5.132  27.333  57.605  1.00  0.00     0.169 HD
ENDROOT
BRANCH   1   5
HETATM    5  C   UNL     1       5.903  29.236  57.495  1.00  0.00     0.042 A 
HETATM    6  C   UNL     1       7.077  29.917  57.890  1.00  0.00    -0.006 A 
HETATM    7  C   UNL     1       6.968  31.283  58.265  1.00  0.00     0.011 A 
HETATM    8  C   UNL     1       5.748  31.954  58.283  1.00  0.00     0.001 A 
HETATM    9  C   UNL     1       4.598  31.277  57.928  1.00  0.00     0.002 A 
HETATM   10  C   UNL     1       4.677  29.938  57.543  1.00  0.00     0.030 A 
BRANCH   6  11
HETATM   11  C   UNL     1       8.469  29.348  57.996  1.00  0.00     0.273 C 
BRANCH  11  12
HETATM   12  N   UNL     1       9.098  29.120  56.668  1.00  0.00    -0.072 N 
HETATM   13  H   UNL     1       8.443  29.335  55.909  1.00  0.00     0.277 HD
HETATM   14  H   UNL     1       9.242  28.091  56.648  1.00  0.00     0.277 HD
BRANCH  12  15
HETATM   15  C   UNL     1      10.427  29.743  56.464  1.00  0.00     0.228 C 
HETATM   16  C   UNL     1      10.676  30.736  57.581  1.00  0.00     0.034 C 
ENDBRANCH  12  15
ENDBRANCH  11  12
ENDBRANCH   6  11
ENDBRANCH   1   5
BRANCH   2  17
HETATM   17  C   UNL     1       5.588  25.864  55.687  1.00  0.00     0.122 C 
HETATM   18  C   UNL     1       6.292  25.167  54.543  1.00  0.00    -0.028 A 
HETATM   19  C   UNL     1       7.366  24.360  54.941  1.00  0.00     0.007 A 
HETATM   20  C   UNL     1       6.000  25.321  53.190  1.00  0.00     0.009 A 
HETATM   21  C   UNL     1       8.174  23.726  54.011  1.00  0.00     0.019 A 
HETATM   22  S   UNL     1       7.520  24.259  56.699  1.00  0.00    -0.128 SA
HETATM   23  C   UNL     1       7.890  23.890  52.655  1.00  0.00     0.001 A 
HETATM   24  C   UNL     1       6.804  24.676  52.249  1.00  0.00     0.001 A 
HETATM   25  C   UNL     1       5.877  25.011  56.937  1.00  0.00     0.098 C 
ENDBRANCH   2  17
TORSDOF 5
ENDMDL
MODEL 8
REMARK VINA RESULT:      -7.4      3.149      6.816
REMARK  5 active torsions:
REMARK  status: ('A' for Active; 'I' for Inactive)
REMARK    1  A    between atoms: C_2  and  N_3 
REMARK    2  A    between atoms: N_3  and  C_6 
REMARK    3  A    between atoms: C_6  and  C_7 
REMARK    4  A    between atoms: C_8  and  N_9 
REMARK       I    between atoms: N_9  and  C_10 
REMARK    5  A    between atoms: C_10  and  C_11 
ROOT
HETATM    1  N   UNL     1       5.875  26.572  52.487  1.00  0.00    -0.326 N 
HETATM    2  C   UNL     1       5.217  26.225  51.325  1.00  0.00     0.231 C 
HETATM    3  O   UNL     1       4.636  25.157  51.155  1.00  0.00    -0.272 OA
HETATM    4  H   UNL     1       6.382  27.451  52.426  1.00  0.00     0.169 HD
ENDROOT
BRANCH   1   5
HETATM    5  C   UNL     1       6.108  25.856  53.692  1.00  0.00     0.042 A 
HETATM    6  C   UNL     1       6.866  24.683  53.908  1.00  0.00    -0.006 A 
HETATM    7  C   UNL     1       6.990  24.197  55.238  1.00  0.00     0.011 A 
HETATM    8  C   UNL     1       6.369  24.819  56.317  1.00  0.00     0.001 A 
HETATM    9  C   UNL     1       5.601  25.947  56.099  1.00  0.00     0.002 A 
HETATM   10  C   UNL     1       5.473  26.453  54.805  1.00  0.00     0.030 A 
BRANCH   6  11
HETATM   11  C   UNL     1       7.555  23.838  52.867  1.00  0.00     0.273 C 
BRANCH  11  12
HETATM   12  N   UNL     1       8.286  22.685  53.457  1.00  0.00    -0.072 N 
HETATM   13  H   UNL     1       8.445  22.825  54.460  1.00  0.00     0.277 HD
HETATM   14  H   UNL     1       9.218  22.737  53.002  1.00  0.00     0.277 HD
BRANCH  12  15
HETATM   15  C   UNL     1       7.734  21.343  53.153  1.00  0.00     0.228 C 
HETATM   16  C   UNL     1       8.871  20.341  53.133  1.00  0.00     0.034 C 
ENDBRANCH  12  15
ENDBRANCH  11  12
ENDBRANCH   6  11
ENDBRANCH   1   5
BRANCH   2  17
HETATM   17  C   UNL     1       5.374  27.252  50.193  1.00  0.00     0.122 C 
HETATM   18  C   UNL     1       4.254  27.092  49.187  1.00  0.00    -0.028 A 
HETATM   19  C   UNL     1       3.173  27.959  49.395  1.00  0.00     0.007 A 
HETATM   20  C   UNL     1       4.202  26.145  48.168  1.00  0.00     0.009 A 
HETATM   21  C   UNL     1       2.026  27.879  48.621  1.00  0.00     0.019 A 
HETATM   22  S   UNL     1       3.474  29.114  50.698  1.00  0.00    -0.128 SA
HETATM   23  C   UNL     1       1.968  26.922  47.607  1.00  0.00     0.001 A 
HETATM   24  C   UNL     1       3.054  26.066  47.378  1.00  0.00     0.001 A 
HETATM   25  C   UNL     1       5.246  28.688  50.735  1.00  0.00     0.098 C 
ENDBRANCH   2  17
TORSDOF 5
ENDMDL
MODEL 9
REMARK VINA RESULT:      -7.4      1.643      2.273
REMARK  5 active torsions:
REMARK  status: ('A' for Active; 'I' for Inactive)
REMARK    1  A    between atoms: C_2  and  N_3 
REMARK    2  A    between atoms: N_3  and  C_6 
REMARK    3  A    between atoms: C_6  and  C_7 
REMARK    4  A    between atoms: C_8  and  N_9 
REMARK       I    between atoms: N_9  and  C_10 
REMARK    5  A    between atoms: C_10  and  C_11 
ROOT
HETATM    1  N   UNL     1       8.208  24.626  55.691  1.00  0.00    -0.326 N 
HETATM    2  C   UNL     1       7.326  25.459  56.347  1.00  0.00     0.231 C 
HETATM    3  O   UNL     1       6.274  25.084  56.858  1.00  0.00    -0.272 OA
HETATM    4  H   UNL     1       8.981  25.113  55.245  1.00  0.00     0.169 HD
ENDROOT
BRANCH   1   5
HETATM    5  C   UNL     1       8.150  23.238  55.387  1.00  0.00     0.042 A 
HETATM    6  C   UNL     1       8.048  22.597  54.132  1.00  0.00    -0.006 A 
HETATM    7  C   UNL     1       8.070  21.176  54.099  1.00  0.00     0.011 A 
HETATM    8  C   UNL     1       8.158  20.407  55.256  1.00  0.00     0.001 A 
HETATM    9  C   UNL     1       8.225  21.037  56.483  1.00  0.00     0.002 A 
HETATM   10  C   UNL     1       8.218  22.430  56.545  1.00  0.00     0.030 A 
BRANCH   6  11
HETATM   11  C   UNL     1       7.881  23.252  52.784  1.00  0.00     0.273 C 
BRANCH  11  12
HETATM   12  N   UNL     1       7.134  24.536  52.860  1.00  0.00    -0.072 N 
HETATM   13  H   UNL     1       7.660  25.294  52.414  1.00  0.00     0.277 HD
HETATM   14  H   UNL     1       7.125  24.743  53.878  1.00  0.00     0.277 HD
BRANCH  12  15
HETATM   15  C   UNL     1       5.720  24.490  52.418  1.00  0.00     0.228 C 
HETATM   16  C   UNL     1       4.838  24.965  53.556  1.00  0.00     0.034 C 
ENDBRANCH  12  15
ENDBRANCH  11  12
ENDBRANCH   6  11
ENDBRANCH   1   5
BRANCH   2  17
HETATM   17  C   UNL     1       7.711  26.945  56.281  1.00  0.00     0.122 C 
HETATM   18  C   UNL     1       6.986  27.621  55.137  1.00  0.00    -0.028 A 
HETATM   19  C   UNL     1       5.804  28.271  55.515  1.00  0.00     0.007 A 
HETATM   20  C   UNL     1       7.361  27.581  53.796  1.00  0.00     0.009 A 
HETATM   21  C   UNL     1       4.972  28.858  54.575  1.00  0.00     0.019 A 
HETATM   22  S   UNL     1       5.551  28.250  57.264  1.00  0.00    -0.128 SA
HETATM   23  C   UNL     1       5.341  28.808  53.231  1.00  0.00     0.001 A 
HETATM   24  C   UNL     1       6.533  28.180  52.846  1.00  0.00     0.001 A 
HETATM   25  C   UNL     1       7.259  27.684  57.555  1.00  0.00     0.098 C 
ENDBRANCH   2  17
TORSDOF 5
ENDMDL
MODEL 10
REMARK VINA RESULT:      -7.4      2.532      6.451
REMARK  5 active torsions:
REMARK  status: ('A' for Active; 'I' for Inactive)
REMARK    1  A    between atoms: C_2  and  N_3 
REMARK    2  A    between atoms: N_3  and  C_6 
REMARK    3  A    between atoms: C_6  and  C_7 
REMARK    4  A    between atoms: C_8  and  N_9 
REMARK       I    between atoms: N_9  and  C_10 
REMARK    5  A    between atoms: C_10  and  C_11 
ROOT
HETATM    1  N   UNL     1       6.631  26.287  54.129  1.00  0.00    -0.326 N 
HETATM    2  C   UNL     1       6.827  25.173  54.920  1.00  0.00     0.231 C 
HETATM    3  O   UNL     1       6.063  24.820  55.814  1.00  0.00    -0.272 OA
HETATM    4  H   UNL     1       7.406  26.488  53.502  1.00  0.00     0.169 HD
ENDROOT
BRANCH   1   5
HETATM    5  C   UNL     1       5.626  27.292  54.144  1.00  0.00     0.042 A 
HETATM    6  C   UNL     1       5.498  28.423  54.982  1.00  0.00    -0.006 A 
HETATM    7  C   UNL     1       4.418  29.316  54.746  1.00  0.00     0.011 A 
HETATM    8  C   UNL     1       3.477  29.097  53.744  1.00  0.00     0.001 A 
HETATM    9  C   UNL     1       3.587  27.974  52.947  1.00  0.00     0.002 A 
HETATM   10  C   UNL     1       4.644  27.086  53.148  1.00  0.00     0.030 A 
BRANCH   6  11
HETATM   11  C   UNL     1       6.373  28.794  56.152  1.00  0.00     0.273 C 
BRANCH  11  12
HETATM   12  N   UNL     1       7.644  29.443  55.734  1.00  0.00    -0.072 N 
HETATM   13  H   UNL     1       7.540  30.462  55.693  1.00  0.00     0.277 HD
HETATM   14  H   UNL     1       7.762  29.121  54.754  1.00  0.00     0.277 HD
BRANCH  12  15
HETATM   15  C   UNL     1       8.859  29.026  56.473  1.00  0.00     0.228 C 
HETATM   16  C   UNL     1       8.597  27.684  57.126  1.00  0.00     0.034 C 
ENDBRANCH  12  15
ENDBRANCH  11  12
ENDBRANCH   6  11
ENDBRANCH   1   5
BRANCH   2  17
HETATM   17  C   UNL     1       8.165  24.461  54.668  1.00  0.00     0.122 C 
HETATM   18  C   UNL     1       8.177  23.116  55.362  1.00  0.00    -0.028 A 
HETATM   19  C   UNL     1       7.814  22.045  54.536  1.00  0.00     0.007 A 
HETATM   20  C   UNL     1       8.444  22.897  56.711  1.00  0.00     0.009 A 
HETATM   21  C   UNL     1       7.684  20.760  55.038  1.00  0.00     0.019 A 
HETATM   22  S   UNL     1       7.579  22.537  52.855  1.00  0.00    -0.128 SA
HETATM   23  C   UNL     1       7.939  20.541  56.392  1.00  0.00     0.001 A 
HETATM   24  C   UNL     1       8.324  21.603  57.221  1.00  0.00     0.001 A 
HETATM   25  C   UNL     1       8.350  24.158  53.169  1.00  0.00     0.098 C 
ENDBRANCH   2  17
TORSDOF 5
ENDMDL
