MODEL 1
REMARK VINA RESULT:      -8.7      0.000      0.000
REMARK  3 active torsions:
REMARK  status: ('A' for Active; 'I' for Inactive)
REMARK    1  A    between atoms: C_6  and  C_7 
REMARK       I    between atoms: C_7  and  N_8 
REMARK    2  A    between atoms: N_8  and  C_9 
REMARK    3  A    between atoms: C_11  and  C_12 
REMARK       I    between atoms: C_12  and  N_13 
ROOT
HETATM    1  C   UNL     1       6.697  25.259  55.557  1.00  0.00     0.258 C 
HETATM    2  N   UNL     1       7.488  26.377  55.380  1.00  0.00    -0.307 N 
HETATM    3  O   UNL     1       5.631  25.167  56.150  1.00  0.00    -0.267 OA
HETATM    4  H   UNL     1       8.329  26.274  54.832  1.00  0.00     0.170 HD
ENDROOT
BRANCH   2   5
HETATM    5  C   UNL     1       7.215  27.643  55.910  1.00  0.00     0.131 A 
HETATM    6  N   UNL     1       7.983  28.144  56.886  1.00  0.00    -0.226 NA
HETATM    7  C   UNL     1       7.679  29.380  57.362  1.00  0.00     0.126 A 
HETATM    8  C   UNL     1       6.629  30.151  56.891  1.00  0.00     0.037 A 
HETATM    9  C   UNL     1       5.843  29.619  55.878  1.00  0.00     0.006 A 
HETATM   10  C   UNL     1       6.135  28.347  55.383  1.00  0.00     0.050 A 
BRANCH   7  11
HETATM   11  C   UNL     1       8.561  29.884  58.459  1.00  0.00     0.268 C 
HETATM   12  N   UNL     1       7.927  30.095  59.654  1.00  0.00    -0.365 N 
HETATM   13  H   UNL     1       6.930  29.893  59.725  1.00  0.00     0.159 HD
HETATM   14  H   UNL     1       8.438  30.431  60.454  1.00  0.00     0.159 HD
HETATM   15  O   UNL     1       9.757  30.096  58.304  1.00  0.00    -0.266 OA
ENDBRANCH   7  11
ENDBRANCH   2   5
BRANCH   1  16
HETATM   16  C   UNL     1       7.257  24.046  54.901  1.00  0.00     0.044 A 
HETATM   17  C   UNL     1       6.944  23.763  53.555  1.00  0.00    -0.045 A 
HETATM   18  C   UNL     1       7.437  22.581  52.981  1.00  0.00     0.014 A 
HETATM   19  C   UNL     1       6.093  24.678  52.716  1.00  0.00     0.049 C 
HETATM   20  C   UNL     1       8.250  21.707  53.714  1.00  0.00    -0.061 A 
HETATM   21  C   UNL     1       8.811  20.475  53.065  1.00  0.00     0.048 C 
HETATM   22  C   UNL     1       8.593  22.031  55.032  1.00  0.00     0.014 A 
HETATM   23  C   UNL     1       8.095  23.191  55.645  1.00  0.00    -0.045 A 
HETATM   24  C   UNL     1       8.495  23.506  57.060  1.00  0.00     0.049 C 
ENDBRANCH   1  16
TORSDOF 3
ENDMDL
MODEL 2
REMARK VINA RESULT:      -8.7      1.814      2.192
REMARK  3 active torsions:
REMARK  status: ('A' for Active; 'I' for Inactive)
REMARK    1  A    between atoms: C_6  and  C_7 
REMARK       I    between atoms: C_7  and  N_8 
REMARK    2  A    between atoms: N_8  and  C_9 
REMARK    3  A    between atoms: C_11  and  C_12 
REMARK       I    between atoms: C_12  and  N_13 
ROOT
HETATM    1  C   UNL     1       6.732  24.968  55.860  1.00  0.00     0.258 C 
HETATM    2  N   UNL     1       7.594  26.047  55.847  1.00  0.00    -0.307 N 
HETATM    3  O   UNL     1       5.644  24.871  56.409  1.00  0.00    -0.267 OA
HETATM    4  H   UNL     1       8.446  25.961  55.313  1.00  0.00     0.170 HD
ENDROOT
BRANCH   2   5
HETATM    5  C   UNL     1       7.379  27.252  56.526  1.00  0.00     0.131 A 
HETATM    6  N   UNL     1       6.170  27.828  56.510  1.00  0.00    -0.226 NA
HETATM    7  C   UNL     1       6.013  28.993  57.191  1.00  0.00     0.126 A 
HETATM    8  C   UNL     1       7.025  29.613  57.904  1.00  0.00     0.037 A 
HETATM    9  C   UNL     1       8.273  29.003  57.913  1.00  0.00     0.006 A 
HETATM   10  C   UNL     1       8.455  27.809  57.213  1.00  0.00     0.050 A 
BRANCH   7  11
HETATM   11  C   UNL     1       4.647  29.597  57.127  1.00  0.00     0.268 C 
HETATM   12  N   UNL     1       4.178  30.083  58.318  1.00  0.00    -0.365 N 
HETATM   13  H   UNL     1       4.771  30.017  59.145  1.00  0.00     0.159 HD
HETATM   14  H   UNL     1       3.268  30.513  58.375  1.00  0.00     0.159 HD
HETATM   15  O   UNL     1       3.993  29.651  56.093  1.00  0.00    -0.266 OA
ENDBRANCH   7  11
ENDBRANCH   2   5
BRANCH   1  16
HETATM   16  C   UNL     1       7.241  23.814  55.070  1.00  0.00     0.044 A 
HETATM   17  C   UNL     1       6.957  23.723  53.691  1.00  0.00    -0.045 A 
HETATM   18  C   UNL     1       7.397  22.593  52.985  1.00  0.00     0.014 A 
HETATM   19  C   UNL     1       6.192  24.788  52.953  1.00  0.00     0.049 C 
HETATM   20  C   UNL     1       8.131  21.584  53.621  1.00  0.00    -0.061 A 
HETATM   21  C   UNL     1       8.640  20.410  52.836  1.00  0.00     0.048 C 
HETATM   22  C   UNL     1       8.448  21.718  54.978  1.00  0.00     0.014 A 
HETATM   23  C   UNL     1       8.001  22.821  55.720  1.00  0.00    -0.045 A 
HETATM   24  C   UNL     1       8.370  22.930  57.174  1.00  0.00     0.049 C 
ENDBRANCH   1  16
TORSDOF 3
ENDMDL
MODEL 3
REMARK VINA RESULT:      -8.7      0.087      1.901
REMARK  3 active torsions:
REMARK  status: ('A' for Active; 'I' for Inactive)
REMARK    1  A    between atoms: C_6  and  C_7 
REMARK       I    between atoms: C_7  and  N_8 
REMARK    2  A    between atoms: N_8  and  C_9 
REMARK    3  A    between atoms: C_11  and  C_12 
REMARK       I    between atoms: C_12  and  N_13 
ROOT
HETATM    1  C   UNL     1       6.698  25.230  55.627  1.00  0.00     0.258 C 
HETATM    2  N   UNL     1       7.471  26.349  55.389  1.00  0.00    -0.307 N 
HETATM    3  O   UNL     1       5.663  25.145  56.275  1.00  0.00    -0.267 OA
HETATM    4  H   UNL     1       8.285  26.240  54.802  1.00  0.00     0.170 HD
ENDROOT
BRANCH   2   5
HETATM    5  C   UNL     1       7.216  27.624  55.907  1.00  0.00     0.131 A 
HETATM    6  N   UNL     1       7.992  28.124  56.878  1.00  0.00    -0.226 NA
HETATM    7  C   UNL     1       7.705  29.368  57.341  1.00  0.00     0.126 A 
HETATM    8  C   UNL     1       6.667  30.150  56.863  1.00  0.00     0.037 A 
HETATM    9  C   UNL     1       5.873  29.619  55.855  1.00  0.00     0.006 A 
HETATM   10  C   UNL     1       6.147  28.338  55.372  1.00  0.00     0.050 A 
BRANCH   7  11
HETATM   11  C   UNL     1       8.595  29.870  58.434  1.00  0.00     0.268 C 
HETATM   12  N   UNL     1       7.970  30.070  59.635  1.00  0.00    -0.365 N 
HETATM   13  H   UNL     1       6.975  29.862  59.715  1.00  0.00     0.159 HD
HETATM   14  H   UNL     1       8.488  30.404  60.433  1.00  0.00     0.159 HD
HETATM   15  O   UNL     1       9.788  30.090  58.269  1.00  0.00    -0.266 OA
ENDBRANCH   7  11
ENDBRANCH   2   5
BRANCH   1  16
HETATM   16  C   UNL     1       7.232  24.008  54.969  1.00  0.00     0.044 A 
HETATM   17  C   UNL     1       8.082  23.136  55.682  1.00  0.00    -0.045 A 
HETATM   18  C   UNL     1       8.620  22.024  55.017  1.00  0.00     0.014 A 
HETATM   19  C   UNL     1       8.439  23.361  57.126  1.00  0.00     0.049 C 
HETATM   20  C   UNL     1       8.302  21.759  53.679  1.00  0.00    -0.061 A 
HETATM   21  C   UNL     1       8.844  20.534  53.002  1.00  0.00     0.048 C 
HETATM   22  C   UNL     1       7.415  22.606  53.003  1.00  0.00     0.014 A 
HETATM   23  C   UNL     1       6.881  23.742  53.629  1.00  0.00    -0.045 A 
HETATM   24  C   UNL     1       5.926  24.622  52.870  1.00  0.00     0.049 C 
ENDBRANCH   1  16
TORSDOF 3
ENDMDL
MODEL 4
REMARK VINA RESULT:      -8.6      2.635      3.029
REMARK  3 active torsions:
REMARK  status: ('A' for Active; 'I' for Inactive)
REMARK    1  A    between atoms: C_6  and  C_7 
REMARK       I    between atoms: C_7  and  N_8 
REMARK    2  A    between atoms: N_8  and  C_9 
REMARK    3  A    between atoms: C_11  and  C_12 
REMARK       I    between atoms: C_12  and  N_13 
ROOT
HETATM    1  C   UNL     1       6.792  26.241  54.445  1.00  0.00     0.258 C 
HETATM    2  N   UNL     1       5.431  26.456  54.369  1.00  0.00    -0.307 N 
HETATM    3  O   UNL     1       7.685  27.064  54.599  1.00  0.00    -0.267 OA
HETATM    4  H   UNL     1       4.834  25.648  54.268  1.00  0.00     0.170 HD
ENDROOT
BRANCH   2   5
HETATM    5  C   UNL     1       4.814  27.711  54.414  1.00  0.00     0.131 A 
HETATM    6  N   UNL     1       4.582  28.305  55.593  1.00  0.00    -0.226 NA
HETATM    7  C   UNL     1       3.986  29.526  55.581  1.00  0.00     0.126 A 
HETATM    8  C   UNL     1       3.614  30.193  54.426  1.00  0.00     0.037 A 
HETATM    9  C   UNL     1       3.863  29.566  53.212  1.00  0.00     0.006 A 
HETATM   10  C   UNL     1       4.467  28.307  53.205  1.00  0.00     0.050 A 
BRANCH   7  11
HETATM   11  C   UNL     1       3.740  30.136  56.924  1.00  0.00     0.268 C 
HETATM   12  N   UNL     1       4.434  29.557  57.953  1.00  0.00    -0.365 N 
HETATM   13  H   UNL     1       5.063  28.781  57.748  1.00  0.00     0.159 HD
HETATM   14  H   UNL     1       4.336  29.901  58.895  1.00  0.00     0.159 HD
HETATM   15  O   UNL     1       2.975  31.076  57.095  1.00  0.00    -0.266 OA
ENDBRANCH   7  11
ENDBRANCH   2   5
BRANCH   1  16
HETATM   16  C   UNL     1       7.157  24.802  54.338  1.00  0.00     0.044 A 
HETATM   17  C   UNL     1       7.461  24.242  53.080  1.00  0.00    -0.045 A 
HETATM   18  C   UNL     1       7.742  22.870  53.002  1.00  0.00     0.014 A 
HETATM   19  C   UNL     1       7.487  25.061  51.818  1.00  0.00     0.049 C 
HETATM   20  C   UNL     1       7.751  22.068  54.150  1.00  0.00    -0.061 A 
HETATM   21  C   UNL     1       8.107  20.613  54.053  1.00  0.00     0.048 C 
HETATM   22  C   UNL     1       7.498  22.652  55.397  1.00  0.00     0.014 A 
HETATM   23  C   UNL     1       7.187  24.015  55.508  1.00  0.00    -0.045 A 
HETATM   24  C   UNL     1       6.930  24.605  56.868  1.00  0.00     0.049 C 
ENDBRANCH   1  16
TORSDOF 3
ENDMDL
MODEL 5
REMARK VINA RESULT:      -8.6      1.700      2.972
REMARK  3 active torsions:
REMARK  status: ('A' for Active; 'I' for Inactive)
REMARK    1  A    between atoms: C_6  and  C_7 
REMARK       I    between atoms: C_7  and  N_8 
REMARK    2  A    between atoms: N_8  and  C_9 
REMARK    3  A    between atoms: C_11  and  C_12 
REMARK       I    between atoms: C_12  and  N_13 
ROOT
HETATM    1  C   UNL     1       6.704  25.120  55.766  1.00  0.00     0.258 C 
HETATM    2  N   UNL     1       7.540  26.213  55.649  1.00  0.00    -0.307 N 
HETATM    3  O   UNL     1       5.636  25.039  56.358  1.00  0.00    -0.267 OA
HETATM    4  H   UNL     1       8.375  26.107  55.093  1.00  0.00     0.170 HD
ENDROOT
BRANCH   2   5
HETATM    5  C   UNL     1       7.321  27.457  56.251  1.00  0.00     0.131 A 
HETATM    6  N   UNL     1       6.472  28.333  55.698  1.00  0.00    -0.226 NA
HETATM    7  C   UNL     1       6.290  29.524  56.325  1.00  0.00     0.126 A 
HETATM    8  C   UNL     1       6.923  29.880  57.504  1.00  0.00     0.037 A 
HETATM    9  C   UNL     1       7.798  28.961  58.068  1.00  0.00     0.006 A 
HETATM   10  C   UNL     1       8.004  27.735  57.432  1.00  0.00     0.050 A 
BRANCH   7  11
HETATM   11  C   UNL     1       5.342  30.467  55.656  1.00  0.00     0.268 C 
HETATM   12  N   UNL     1       4.988  30.116  54.381  1.00  0.00    -0.365 N 
HETATM   13  H   UNL     1       5.369  29.258  53.982  1.00  0.00     0.159 HD
HETATM   14  H   UNL     1       4.351  30.688  53.849  1.00  0.00     0.159 HD
HETATM   15  O   UNL     1       4.917  31.478  56.200  1.00  0.00    -0.266 OA
ENDBRANCH   7  11
ENDBRANCH   2   5
BRANCH   1  16
HETATM   16  C   UNL     1       7.212  23.925  55.040  1.00  0.00     0.044 A 
HETATM   17  C   UNL     1       8.038  22.994  55.704  1.00  0.00    -0.045 A 
HETATM   18  C   UNL     1       8.551  21.908  54.977  1.00  0.00     0.014 A 
HETATM   19  C   UNL     1       8.395  23.127  57.159  1.00  0.00     0.049 C 
HETATM   20  C   UNL     1       8.231  21.728  53.626  1.00  0.00    -0.061 A 
HETATM   21  C   UNL     1       8.747  20.531  52.881  1.00  0.00     0.048 C 
HETATM   22  C   UNL     1       7.368  22.634  52.998  1.00  0.00     0.014 A 
HETATM   23  C   UNL     1       6.859  23.744  53.687  1.00  0.00    -0.045 A 
HETATM   24  C   UNL     1       5.928  24.689  52.977  1.00  0.00     0.049 C 
ENDBRANCH   1  16
TORSDOF 3
ENDMDL
MODEL 6
REMARK VINA RESULT:      -8.5      2.643      3.489
REMARK  3 active torsions:
REMARK  status: ('A' for Active; 'I' for Inactive)
REMARK    1  A    between atoms: C_6  and  C_7 
REMARK       I    between atoms: C_7  and  N_8 
REMARK    2  A    between atoms: N_8  and  C_9 
REMARK    3  A    between atoms: C_11  and  C_12 
REMARK       I    between atoms: C_12  and  N_13 
ROOT
HETATM    1  C   UNL     1       6.774  26.229  54.433  1.00  0.00     0.258 C 
HETATM    2  N   UNL     1       5.423  26.485  54.306  1.00  0.00    -0.307 N 
HETATM    3  O   UNL     1       7.683  27.021  54.641  1.00  0.00    -0.267 OA
HETATM    4  H   UNL     1       4.808  25.698  54.164  1.00  0.00     0.170 HD
ENDROOT
BRANCH   2   5
HETATM    5  C   UNL     1       4.842  27.757  54.353  1.00  0.00     0.131 A 
HETATM    6  N   UNL     1       4.567  28.328  55.533  1.00  0.00    -0.226 NA
HETATM    7  C   UNL     1       4.008  29.566  55.524  1.00  0.00     0.126 A 
HETATM    8  C   UNL     1       3.715  30.272  54.369  1.00  0.00     0.037 A 
HETATM    9  C   UNL     1       4.007  29.668  53.153  1.00  0.00     0.006 A 
HETATM   10  C   UNL     1       4.574  28.392  53.143  1.00  0.00     0.050 A 
BRANCH   7  11
HETATM   11  C   UNL     1       3.710  30.149  56.868  1.00  0.00     0.268 C 
HETATM   12  N   UNL     1       4.459  29.638  57.894  1.00  0.00    -0.365 N 
HETATM   13  H   UNL     1       5.157  28.925  57.686  1.00  0.00     0.159 HD
HETATM   14  H   UNL     1       4.333  29.971  58.837  1.00  0.00     0.159 HD
HETATM   15  O   UNL     1       2.861  31.014  57.043  1.00  0.00    -0.266 OA
ENDBRANCH   7  11
ENDBRANCH   2   5
BRANCH   1  16
HETATM   16  C   UNL     1       7.102  24.782  54.310  1.00  0.00     0.044 A 
HETATM   17  C   UNL     1       7.115  23.962  55.458  1.00  0.00    -0.045 A 
HETATM   18  C   UNL     1       7.487  22.616  55.321  1.00  0.00     0.014 A 
HETATM   19  C   UNL     1       6.755  24.481  56.824  1.00  0.00     0.049 C 
HETATM   20  C   UNL     1       7.810  22.080  54.069  1.00  0.00    -0.061 A 
HETATM   21  C   UNL     1       8.152  20.624  53.936  1.00  0.00     0.048 C 
HETATM   22  C   UNL     1       7.740  22.896  52.934  1.00  0.00     0.014 A 
HETATM   23  C   UNL     1       7.399  24.253  53.038  1.00  0.00    -0.045 A 
HETATM   24  C   UNL     1       7.328  25.093  51.793  1.00  0.00     0.049 C 
ENDBRANCH   1  16
TORSDOF 3
ENDMDL
MODEL 7
REMARK VINA RESULT:      -8.3      4.233      9.305
REMARK  3 active torsions:
REMARK  status: ('A' for Active; 'I' for Inactive)
REMARK    1  A    between atoms: C_6  and  C_7 
REMARK       I    between atoms: C_7  and  N_8 
REMARK    2  A    between atoms: N_8  and  C_9 
REMARK    3  A    between atoms: C_11  and  C_12 
REMARK       I    between atoms: C_12  and  N_13 
ROOT
HETATM    1  C   UNL     1       7.860  31.664  59.713  1.00  0.00     0.258 C 
HETATM    2  N   UNL     1       7.325  30.412  59.483  1.00  0.00    -0.307 N 
HETATM    3  O   UNL     1       8.494  32.374  58.944  1.00  0.00    -0.267 OA
HETATM    4  H   UNL     1       6.802  29.981  60.230  1.00  0.00     0.170 HD
ENDROOT
BRANCH   2   5
HETATM    5  C   UNL     1       7.461  29.690  58.291  1.00  0.00     0.131 A 
HETATM    6  N   UNL     1       6.374  29.309  57.607  1.00  0.00    -0.226 NA
HETATM    7  C   UNL     1       6.560  28.616  56.454  1.00  0.00     0.126 A 
HETATM    8  C   UNL     1       7.805  28.289  55.943  1.00  0.00     0.037 A 
HETATM    9  C   UNL     1       8.923  28.692  56.661  1.00  0.00     0.006 A 
HETATM   10  C   UNL     1       8.750  29.398  57.854  1.00  0.00     0.050 A 
BRANCH   7  11
HETATM   11  C   UNL     1       5.313  28.205  55.740  1.00  0.00     0.268 C 
HETATM   12  N   UNL     1       4.326  27.708  56.549  1.00  0.00    -0.365 N 
HETATM   13  H   UNL     1       4.490  27.660  57.554  1.00  0.00     0.159 HD
HETATM   14  H   UNL     1       3.446  27.408  56.159  1.00  0.00     0.159 HD
HETATM   15  O   UNL     1       5.181  28.299  54.526  1.00  0.00    -0.266 OA
ENDBRANCH   7  11
ENDBRANCH   2   5
BRANCH   1  16
HETATM   16  C   UNL     1       7.577  32.169  61.084  1.00  0.00     0.044 A 
HETATM   17  C   UNL     1       6.421  32.940  61.328  1.00  0.00    -0.045 A 
HETATM   18  C   UNL     1       6.212  33.454  62.617  1.00  0.00     0.014 A 
HETATM   19  C   UNL     1       5.409  33.238  60.254  1.00  0.00     0.049 C 
HETATM   20  C   UNL     1       7.113  33.187  63.655  1.00  0.00    -0.061 A 
HETATM   21  C   UNL     1       6.843  33.701  65.040  1.00  0.00     0.048 C 
HETATM   22  C   UNL     1       8.227  32.377  63.406  1.00  0.00     0.014 A 
HETATM   23  C   UNL     1       8.481  31.870  62.124  1.00  0.00    -0.045 A 
HETATM   24  C   UNL     1       9.685  30.996  61.900  1.00  0.00     0.049 C 
ENDBRANCH   1  16
TORSDOF 3
ENDMDL
MODEL 8
REMARK VINA RESULT:      -8.1      2.882      3.765
REMARK  3 active torsions:
REMARK  status: ('A' for Active; 'I' for Inactive)
REMARK    1  A    between atoms: C_6  and  C_7 
REMARK       I    between atoms: C_7  and  N_8 
REMARK    2  A    between atoms: N_8  and  C_9 
REMARK    3  A    between atoms: C_11  and  C_12 
REMARK       I    between atoms: C_12  and  N_13 
ROOT
HETATM    1  C   UNL     1       6.961  26.085  54.544  1.00  0.00     0.258 C 
HETATM    2  N   UNL     1       5.600  26.308  54.598  1.00  0.00    -0.307 N 
HETATM    3  O   UNL     1       7.870  26.897  54.654  1.00  0.00    -0.267 OA
HETATM    4  H   UNL     1       4.990  25.509  54.516  1.00  0.00     0.170 HD
ENDROOT
BRANCH   2   5
HETATM    5  C   UNL     1       4.999  27.563  54.752  1.00  0.00     0.131 A 
HETATM    6  N   UNL     1       4.734  28.319  53.678  1.00  0.00    -0.226 NA
HETATM    7  C   UNL     1       4.145  29.526  53.882  1.00  0.00     0.126 A 
HETATM    8  C   UNL     1       3.797  30.015  55.130  1.00  0.00     0.037 A 
HETATM    9  C   UNL     1       4.077  29.220  56.234  1.00  0.00     0.006 A 
HETATM   10  C   UNL     1       4.689  27.980  56.044  1.00  0.00     0.050 A 
BRANCH   7  11
HETATM   11  C   UNL     1       3.884  30.332  52.649  1.00  0.00     0.268 C 
HETATM   12  N   UNL     1       2.679  30.980  52.632  1.00  0.00    -0.365 N 
HETATM   13  H   UNL     1       2.058  30.888  53.435  1.00  0.00     0.159 HD
HETATM   14  H   UNL     1       2.414  31.551  51.845  1.00  0.00     0.159 HD
HETATM   15  O   UNL     1       4.683  30.405  51.724  1.00  0.00    -0.266 OA
ENDBRANCH   7  11
ENDBRANCH   2   5
BRANCH   1  16
HETATM   16  C   UNL     1       7.304  24.651  54.344  1.00  0.00     0.044 A 
HETATM   17  C   UNL     1       7.524  24.153  53.043  1.00  0.00    -0.045 A 
HETATM   18  C   UNL     1       7.786  22.784  52.880  1.00  0.00     0.014 A 
HETATM   19  C   UNL     1       7.481  25.034  51.824  1.00  0.00     0.049 C 
HETATM   20  C   UNL     1       7.857  21.926  53.984  1.00  0.00    -0.061 A 
HETATM   21  C   UNL     1       8.191  20.475  53.793  1.00  0.00     0.048 C 
HETATM   22  C   UNL     1       7.687  22.448  55.272  1.00  0.00     0.014 A 
HETATM   23  C   UNL     1       7.398  23.806  55.469  1.00  0.00    -0.045 A 
HETATM   24  C   UNL     1       7.230  24.329  56.870  1.00  0.00     0.049 C 
ENDBRANCH   1  16
TORSDOF 3
ENDMDL
MODEL 9
REMARK VINA RESULT:      -8.1      2.701      6.958
REMARK  3 active torsions:
REMARK  status: ('A' for Active; 'I' for Inactive)
REMARK    1  A    between atoms: C_6  and  C_7 
REMARK       I    between atoms: C_7  and  N_8 
REMARK    2  A    between atoms: N_8  and  C_9 
REMARK    3  A    between atoms: C_11  and  C_12 
REMARK       I    between atoms: C_12  and  N_13 
ROOT
HETATM    1  C   UNL     1       6.804  26.204  54.808  1.00  0.00     0.258 C 
HETATM    2  N   UNL     1       6.344  24.926  55.057  1.00  0.00    -0.307 N 
HETATM    3  O   UNL     1       7.817  26.546  54.214  1.00  0.00    -0.267 OA
HETATM    4  H   UNL     1       5.465  24.830  55.541  1.00  0.00     0.170 HD
ENDROOT
BRANCH   2   5
HETATM    5  C   UNL     1       7.011  23.750  54.693  1.00  0.00     0.131 A 
HETATM    6  N   UNL     1       7.485  22.926  55.636  1.00  0.00    -0.226 NA
HETATM    7  C   UNL     1       8.119  21.795  55.230  1.00  0.00     0.126 A 
HETATM    8  C   UNL     1       8.295  21.443  53.903  1.00  0.00     0.037 A 
HETATM    9  C   UNL     1       7.796  22.306  52.936  1.00  0.00     0.006 A 
HETATM   10  C   UNL     1       7.149  23.478  53.335  1.00  0.00     0.050 A 
BRANCH   7  11
HETATM   11  C   UNL     1       8.640  20.919  56.325  1.00  0.00     0.268 C 
HETATM   12  N   UNL     1       9.500  19.937  55.914  1.00  0.00    -0.365 N 
HETATM   13  H   UNL     1       9.735  19.870  54.924  1.00  0.00     0.159 HD
HETATM   14  H   UNL     1       9.906  19.298  56.580  1.00  0.00     0.159 HD
HETATM   15  O   UNL     1       8.320  21.064  57.498  1.00  0.00    -0.266 OA
ENDBRANCH   7  11
ENDBRANCH   2   5
BRANCH   1  16
HETATM   16  C   UNL     1       5.896  27.257  55.338  1.00  0.00     0.044 A 
HETATM   17  C   UNL     1       4.824  27.727  54.551  1.00  0.00    -0.045 A 
HETATM   18  C   UNL     1       4.021  28.763  55.053  1.00  0.00     0.014 A 
HETATM   19  C   UNL     1       4.515  27.163  53.191  1.00  0.00     0.049 C 
HETATM   20  C   UNL     1       4.254  29.307  56.322  1.00  0.00    -0.061 A 
HETATM   21  C   UNL     1       3.351  30.377  56.863  1.00  0.00     0.048 C 
HETATM   22  C   UNL     1       5.291  28.792  57.110  1.00  0.00     0.014 A 
HETATM   23  C   UNL     1       6.129  27.775  56.629  1.00  0.00    -0.045 A 
HETATM   24  C   UNL     1       7.226  27.245  57.510  1.00  0.00     0.049 C 
ENDBRANCH   1  16
TORSDOF 3
ENDMDL
MODEL 10
REMARK VINA RESULT:      -8.0      4.132      6.591
REMARK  3 active torsions:
REMARK  status: ('A' for Active; 'I' for Inactive)
REMARK    1  A    between atoms: C_6  and  C_7 
REMARK       I    between atoms: C_7  and  N_8 
REMARK    2  A    between atoms: N_8  and  C_9 
REMARK    3  A    between atoms: C_11  and  C_12 
REMARK       I    between atoms: C_12  and  N_13 
ROOT
HETATM    1  C   UNL     1       5.363  25.577  53.217  1.00  0.00     0.258 C 
HETATM    2  N   UNL     1       5.757  26.700  52.516  1.00  0.00    -0.307 N 
HETATM    3  O   UNL     1       4.398  24.853  53.013  1.00  0.00    -0.267 OA
HETATM    4  H   UNL     1       6.605  27.162  52.810  1.00  0.00     0.170 HD
ENDROOT
BRANCH   2   5
HETATM    5  C   UNL     1       5.065  27.251  51.432  1.00  0.00     0.131 A 
HETATM    6  N   UNL     1       5.260  26.775  50.195  1.00  0.00    -0.226 NA
HETATM    7  C   UNL     1       4.559  27.340  49.179  1.00  0.00     0.126 A 
HETATM    8  C   UNL     1       3.652  28.372  49.348  1.00  0.00     0.037 A 
HETATM    9  C   UNL     1       3.458  28.855  50.636  1.00  0.00     0.006 A 
HETATM   10  C   UNL     1       4.176  28.291  51.692  1.00  0.00     0.050 A 
BRANCH   7  11
HETATM   11  C   UNL     1       4.827  26.778  47.820  1.00  0.00     0.268 C 
HETATM   12  N   UNL     1       5.951  27.265  47.209  1.00  0.00    -0.365 N 
HETATM   13  H   UNL     1       6.524  27.949  47.703  1.00  0.00     0.159 HD
HETATM   14  H   UNL     1       6.217  26.944  46.291  1.00  0.00     0.159 HD
HETATM   15  O   UNL     1       4.098  25.950  47.289  1.00  0.00    -0.266 OA
ENDBRANCH   7  11
ENDBRANCH   2   5
BRANCH   1  16
HETATM   16  C   UNL     1       6.282  25.245  54.339  1.00  0.00     0.044 A 
HETATM   17  C   UNL     1       6.153  25.909  55.577  1.00  0.00    -0.045 A 
HETATM   18  C   UNL     1       7.071  25.619  56.597  1.00  0.00     0.014 A 
HETATM   19  C   UNL     1       5.072  26.922  55.839  1.00  0.00     0.049 C 
HETATM   20  C   UNL     1       8.082  24.668  56.410  1.00  0.00    -0.061 A 
HETATM   21  C   UNL     1       9.022  24.333  57.533  1.00  0.00     0.048 C 
HETATM   22  C   UNL     1       8.162  23.982  55.193  1.00  0.00     0.014 A 
HETATM   23  C   UNL     1       7.278  24.266  54.142  1.00  0.00    -0.045 A 
HETATM   24  C   UNL     1       7.393  23.500  52.853  1.00  0.00     0.049 C 
ENDBRANCH   1  16
TORSDOF 3
ENDMDL
