MODEL 1
REMARK VINA RESULT:      -8.7      0.000      0.000
REMARK  8 active torsions:
REMARK  status: ('A' for Active; 'I' for Inactive)
REMARK    1  A    between atoms: C_3  and  C_4 
REMARK    2  A    between atoms: C_4  and  C_5 
REMARK       I    between atoms: C_5  and  N_6 
REMARK    3  A    between atoms: N_6  and  C_7 
REMARK    4  A    between atoms: C_14  and  N_15 
REMARK       I    between atoms: N_15  and  C_16 
REMARK    5  A    between atoms: C_16  and  C_17 
REMARK    6  A    between atoms: C_26  and  C_27 
REMARK    7  A    between atoms: C_27  and  O_28 
REMARK    8  A    between atoms: C_30  and  O_31 
ROOT
HETATM    1  C   UNL     1       8.549  21.865  54.082  1.00  0.00     0.216 C 
HETATM    2  C   UNL     1       8.169  21.059  55.247  1.00  0.00    -0.098 C 
HETATM    3  C   UNL     1       7.865  20.389  56.195  1.00  0.00     0.014 C 
ENDROOT
BRANCH   1   4
HETATM    4  N   UNL     1       8.348  23.266  54.344  1.00  0.00    -0.351 N 
HETATM    5  C   UNL     1       7.380  23.999  53.715  1.00  0.00     0.219 C 
HETATM    6  O   UNL     1       6.587  23.531  52.901  1.00  0.00    -0.274 OA
HETATM    7  H   UNL     1       9.109  23.757  54.818  1.00  0.00     0.163 HD
BRANCH   5   8
HETATM    8  C   UNL     1       7.317  25.463  54.121  1.00  0.00     0.114 C 
BRANCH   8   9
HETATM    9  C   UNL     1       5.997  25.811  54.843  1.00  0.00     0.056 C 
HETATM   10  C   UNL     1       6.067  26.210  56.404  1.00  0.00    -0.030 C 
HETATM   11  C   UNL     1       4.908  25.390  57.076  1.00  0.00     0.016 C 
HETATM   12  C   UNL     1       5.789  27.748  56.738  1.00  0.00     0.012 C 
HETATM   13  C   UNL     1       7.353  25.746  57.141  1.00  0.00     0.013 C 
HETATM   14  C   UNL     1       4.510  28.271  56.035  1.00  0.00     0.055 C 
HETATM   15  C   UNL     1       7.041  28.716  56.637  1.00  0.00     0.008 C 
HETATM   16  C   UNL     1       4.520  27.894  54.603  1.00  0.00     0.012 A 
HETATM   17  C   UNL     1       5.194  26.825  54.053  1.00  0.00     0.056 A 
HETATM   18  S   UNL     1       3.693  28.770  53.400  1.00  0.00    -0.055 SA
HETATM   19  N   UNL     1       5.125  26.760  52.672  1.00  0.00    -0.227 NA
HETATM   20  C   UNL     1       4.372  27.733  52.226  1.00  0.00     0.174 A 
HETATM   21  C   UNL     1       6.688  30.094  57.271  1.00  0.00     0.020 C 
HETATM   22  C   UNL     1       8.217  28.108  57.456  1.00  0.00     0.128 C 
HETATM   23  C   UNL     1       8.553  26.685  57.021  1.00  0.00     0.033 C 
BRANCH  20  24
HETATM   24  N   UNL     1       4.067  28.080  50.946  1.00  0.00    -0.301 N 
HETATM   25  C   UNL     1       4.798  28.995  50.224  1.00  0.00     0.264 C 
HETATM   26  O   UNL     1       5.809  29.558  50.637  1.00  0.00    -0.267 OA
HETATM   27  H   UNL     1       3.225  27.691  50.548  1.00  0.00     0.171 HD
BRANCH  25  28
HETATM   28  C   UNL     1       4.249  29.289  48.899  1.00  0.00     0.072 A 
HETATM   29  S   UNL     1       2.828  28.531  48.300  1.00  0.00    -0.097 SA
HETATM   30  C   UNL     1       2.889  29.406  46.834  1.00  0.00     0.050 A 
HETATM   31  C   UNL     1       3.971  30.257  46.787  1.00  0.00     0.009 A 
HETATM   32  C   UNL     1       4.755  30.187  47.975  1.00  0.00     0.025 A 
ENDBRANCH  25  28
ENDBRANCH  20  24
BRANCH  15  33
HETATM   33  C   UNL     1       7.500  28.997  55.187  1.00  0.00     0.176 C 
BRANCH  33  34
HETATM   34  O   UNL     1       8.819  29.536  55.167  1.00  0.00    -0.400 OA
HETATM   35  H   UNL     1       8.942  29.955  54.296  1.00  0.00     0.209 HD
ENDBRANCH  33  34
ENDBRANCH  15  33
BRANCH  22  36
HETATM   36  O   UNL     1       7.890  28.062  58.850  1.00  0.00    -0.395 OA
HETATM   37  H   UNL     1       8.114  28.931  59.225  1.00  0.00     0.210 HD
ENDBRANCH  22  36
ENDBRANCH   8   9
ENDBRANCH   5   8
ENDBRANCH   1   4
TORSDOF 8
ENDMDL
MODEL 2
REMARK VINA RESULT:      -7.7      4.137      6.539
REMARK  8 active torsions:
REMARK  status: ('A' for Active; 'I' for Inactive)
REMARK    1  A    between atoms: C_3  and  C_4 
REMARK    2  A    between atoms: C_4  and  C_5 
REMARK       I    between atoms: C_5  and  N_6 
REMARK    3  A    between atoms: N_6  and  C_7 
REMARK    4  A    between atoms: C_14  and  N_15 
REMARK       I    between atoms: N_15  and  C_16 
REMARK    5  A    between atoms: C_16  and  C_17 
REMARK    6  A    between atoms: C_26  and  C_27 
REMARK    7  A    between atoms: C_27  and  O_28 
REMARK    8  A    between atoms: C_30  and  O_31 
ROOT
HETATM    1  C   UNL     1       9.503  31.739  59.267  1.00  0.00     0.216 C 
HETATM    2  C   UNL     1       9.276  31.826  60.713  1.00  0.00    -0.098 C 
HETATM    3  C   UNL     1       9.095  31.909  61.897  1.00  0.00     0.014 C 
ENDROOT
BRANCH   1   4
HETATM    4  N   UNL     1       8.643  30.748  58.674  1.00  0.00    -0.351 N 
HETATM    5  C   UNL     1       7.343  31.011  58.338  1.00  0.00     0.219 C 
HETATM    6  O   UNL     1       6.807  32.106  58.483  1.00  0.00    -0.274 OA
HETATM    7  H   UNL     1       8.947  29.775  58.747  1.00  0.00     0.163 HD
BRANCH   5   8
HETATM    8  C   UNL     1       6.591  29.843  57.721  1.00  0.00     0.114 C 
BRANCH   8   9
HETATM    9  C   UNL     1       6.961  29.630  56.238  1.00  0.00     0.056 C 
HETATM   10  C   UNL     1       7.839  28.333  55.851  1.00  0.00    -0.030 C 
HETATM   11  C   UNL     1       8.950  28.878  54.885  1.00  0.00     0.016 C 
HETATM   12  C   UNL     1       7.065  27.185  55.053  1.00  0.00     0.012 C 
HETATM   13  C   UNL     1       8.625  27.700  57.033  1.00  0.00     0.013 C 
HETATM   14  C   UNL     1       6.264  27.754  53.853  1.00  0.00     0.055 C 
HETATM   15  C   UNL     1       6.270  26.138  55.941  1.00  0.00     0.008 C 
HETATM   16  C   UNL     1       5.462  28.924  54.279  1.00  0.00     0.012 A 
HETATM   17  C   UNL     1       5.740  29.749  55.347  1.00  0.00     0.056 A 
HETATM   18  S   UNL     1       4.030  29.411  53.496  1.00  0.00    -0.055 SA
HETATM   19  N   UNL     1       4.769  30.705  55.594  1.00  0.00    -0.227 NA
HETATM   20  C   UNL     1       3.827  30.613  54.691  1.00  0.00     0.174 A 
HETATM   21  C   UNL     1       5.828  24.934  55.059  1.00  0.00     0.020 C 
HETATM   22  C   UNL     1       7.218  25.590  57.047  1.00  0.00     0.128 C 
HETATM   23  C   UNL     1       7.837  26.704  57.885  1.00  0.00     0.033 C 
BRANCH  20  24
HETATM   24  N   UNL     1       2.666  31.314  54.571  1.00  0.00    -0.301 N 
HETATM   25  C   UNL     1       2.575  32.496  53.873  1.00  0.00     0.264 C 
HETATM   26  O   UNL     1       3.506  33.015  53.261  1.00  0.00    -0.267 OA
HETATM   27  H   UNL     1       1.864  30.974  55.080  1.00  0.00     0.171 HD
BRANCH  25  28
HETATM   28  C   UNL     1       1.258  33.132  53.940  1.00  0.00     0.072 A 
HETATM   29  S   UNL     1       0.600  34.032  52.633  1.00  0.00    -0.097 SA
HETATM   30  C   UNL     1      -0.845  34.353  53.485  1.00  0.00     0.050 A 
HETATM   31  C   UNL     1      -0.836  33.796  54.744  1.00  0.00     0.009 A 
HETATM   32  C   UNL     1       0.377  33.096  55.007  1.00  0.00     0.025 A 
ENDBRANCH  25  28
ENDBRANCH  20  24
BRANCH  15  33
HETATM   33  C   UNL     1       4.986  26.713  56.587  1.00  0.00     0.176 C 
BRANCH  33  34
HETATM   34  O   UNL     1       4.314  25.717  57.352  1.00  0.00    -0.400 OA
HETATM   35  H   UNL     1       3.411  26.044  57.514  1.00  0.00     0.209 HD
ENDBRANCH  33  34
ENDBRANCH  15  33
BRANCH  22  36
HETATM   36  O   UNL     1       8.295  24.847  56.464  1.00  0.00    -0.395 OA
HETATM   37  H   UNL     1       8.875  25.487  56.018  1.00  0.00     0.210 HD
ENDBRANCH  22  36
ENDBRANCH   8   9
ENDBRANCH   5   8
ENDBRANCH   1   4
TORSDOF 8
ENDMDL
MODEL 3
REMARK VINA RESULT:      -7.7      4.298      8.199
REMARK  8 active torsions:
REMARK  status: ('A' for Active; 'I' for Inactive)
REMARK    1  A    between atoms: C_3  and  C_4 
REMARK    2  A    between atoms: C_4  and  C_5 
REMARK       I    between atoms: C_5  and  N_6 
REMARK    3  A    between atoms: N_6  and  C_7 
REMARK    4  A    between atoms: C_14  and  N_15 
REMARK       I    between atoms: N_15  and  C_16 
REMARK    5  A    between atoms: C_16  and  C_17 
REMARK    6  A    between atoms: C_26  and  C_27 
REMARK    7  A    between atoms: C_27  and  O_28 
REMARK    8  A    between atoms: C_30  and  O_31 
ROOT
HETATM    1  C   UNL     1       8.261  30.820  61.627  1.00  0.00     0.216 C 
HETATM    2  C   UNL     1       7.874  31.906  62.534  1.00  0.00    -0.098 C 
HETATM    3  C   UNL     1       7.568  32.793  63.283  1.00  0.00     0.014 C 
ENDROOT
BRANCH   1   4
HETATM    4  N   UNL     1       7.538  30.910  60.386  1.00  0.00    -0.351 N 
HETATM    5  C   UNL     1       7.874  31.800  59.403  1.00  0.00     0.219 C 
HETATM    6  O   UNL     1       8.825  32.574  59.476  1.00  0.00    -0.274 OA
HETATM    7  H   UNL     1       6.614  30.474  60.361  1.00  0.00     0.163 HD
BRANCH   5   8
HETATM    8  C   UNL     1       6.998  31.748  58.162  1.00  0.00     0.114 C 
BRANCH   8   9
HETATM    9  C   UNL     1       5.621  31.111  58.447  1.00  0.00     0.056 C 
HETATM   10  C   UNL     1       4.324  32.071  58.449  1.00  0.00    -0.030 C 
HETATM   11  C   UNL     1       3.527  31.659  59.738  1.00  0.00     0.016 C 
HETATM   12  C   UNL     1       3.325  31.886  57.217  1.00  0.00     0.012 C 
HETATM   13  C   UNL     1       4.629  33.581  58.644  1.00  0.00     0.013 C 
HETATM   14  C   UNL     1       2.974  30.394  56.974  1.00  0.00     0.055 C 
HETATM   15  C   UNL     1       3.683  32.702  55.905  1.00  0.00     0.008 C 
HETATM   16  C   UNL     1       4.207  29.574  56.958  1.00  0.00     0.012 A 
HETATM   17  C   UNL     1       5.395  29.888  57.582  1.00  0.00     0.056 A 
HETATM   18  S   UNL     1       4.335  28.095  56.123  1.00  0.00    -0.055 SA
HETATM   19  N   UNL     1       6.425  29.001  57.319  1.00  0.00    -0.227 NA
HETATM   20  C   UNL     1       5.984  28.030  56.560  1.00  0.00     0.174 A 
HETATM   21  C   UNL     1       2.480  32.657  54.918  1.00  0.00     0.020 C 
HETATM   22  C   UNL     1       3.924  34.192  56.287  1.00  0.00     0.128 C 
HETATM   23  C   UNL     1       4.986  34.348  57.371  1.00  0.00     0.033 C 
BRANCH  20  24
HETATM   24  N   UNL     1       6.652  26.974  56.023  1.00  0.00    -0.301 N 
HETATM   25  C   UNL     1       6.476  25.679  56.454  1.00  0.00     0.264 C 
HETATM   26  O   UNL     1       5.682  25.340  57.328  1.00  0.00    -0.267 OA
HETATM   27  H   UNL     1       7.354  27.175  55.326  1.00  0.00     0.171 HD
BRANCH  25  28
HETATM   28  C   UNL     1       7.355  24.706  55.803  1.00  0.00     0.072 A 
HETATM   29  S   UNL     1       8.632  23.914  56.635  1.00  0.00    -0.097 SA
HETATM   30  C   UNL     1       9.074  23.012  55.254  1.00  0.00     0.050 A 
HETATM   31  C   UNL     1       8.275  23.305  54.171  1.00  0.00     0.009 A 
HETATM   32  C   UNL     1       7.288  24.282  54.487  1.00  0.00     0.025 A 
ENDBRANCH  25  28
ENDBRANCH  20  24
BRANCH  15  33
HETATM   33  C   UNL     1       4.909  32.150  55.140  1.00  0.00     0.176 C 
BRANCH  33  34
HETATM   34  O   UNL     1       4.505  31.490  53.943  1.00  0.00    -0.400 OA
HETATM   35  H   UNL     1       3.946  30.738  54.207  1.00  0.00     0.209 HD
ENDBRANCH  33  34
ENDBRANCH  15  33
BRANCH  22  36
HETATM   36  O   UNL     1       2.718  34.787  56.782  1.00  0.00    -0.395 OA
HETATM   37  H   UNL     1       2.754  35.732  56.556  1.00  0.00     0.210 HD
ENDBRANCH  22  36
ENDBRANCH   8   9
ENDBRANCH   5   8
ENDBRANCH   1   4
TORSDOF 8
ENDMDL
MODEL 4
REMARK VINA RESULT:      -7.5      2.618      5.517
REMARK  8 active torsions:
REMARK  status: ('A' for Active; 'I' for Inactive)
REMARK    1  A    between atoms: C_3  and  C_4 
REMARK    2  A    between atoms: C_4  and  C_5 
REMARK       I    between atoms: C_5  and  N_6 
REMARK    3  A    between atoms: N_6  and  C_7 
REMARK    4  A    between atoms: C_14  and  N_15 
REMARK       I    between atoms: N_15  and  C_16 
REMARK    5  A    between atoms: C_16  and  C_17 
REMARK    6  A    between atoms: C_26  and  C_27 
REMARK    7  A    between atoms: C_27  and  O_28 
REMARK    8  A    between atoms: C_30  and  O_31 
ROOT
HETATM    1  C   UNL     1       3.235  31.841  53.458  1.00  0.00     0.216 C 
HETATM    2  C   UNL     1       2.220  32.338  54.392  1.00  0.00    -0.098 C 
HETATM    3  C   UNL     1       1.384  32.753  55.148  1.00  0.00     0.014 C 
ENDROOT
BRANCH   1   4
HETATM    4  N   UNL     1       3.744  30.566  53.888  1.00  0.00    -0.351 N 
HETATM    5  C   UNL     1       4.660  30.444  54.898  1.00  0.00     0.219 C 
HETATM    6  O   UNL     1       5.104  31.394  55.537  1.00  0.00    -0.274 OA
HETATM    7  H   UNL     1       3.601  29.777  53.254  1.00  0.00     0.163 HD
BRANCH   5   8
HETATM    8  C   UNL     1       5.080  29.018  55.215  1.00  0.00     0.114 C 
BRANCH   8   9
HETATM    9  C   UNL     1       6.352  28.600  54.447  1.00  0.00     0.056 C 
HETATM   10  C   UNL     1       7.558  27.928  55.280  1.00  0.00    -0.030 C 
HETATM   11  C   UNL     1       8.850  28.661  54.771  1.00  0.00     0.016 C 
HETATM   12  C   UNL     1       7.789  26.368  55.026  1.00  0.00     0.012 C 
HETATM   13  C   UNL     1       7.529  28.203  56.809  1.00  0.00     0.013 C 
HETATM   14  C   UNL     1       7.835  26.028  53.513  1.00  0.00     0.055 C 
HETATM   15  C   UNL     1       6.901  25.383  55.897  1.00  0.00     0.008 C 
HETATM   16  C   UNL     1       6.690  26.652  52.813  1.00  0.00     0.012 A 
HETATM   17  C   UNL     1       6.004  27.775  53.224  1.00  0.00     0.056 A 
HETATM   18  S   UNL     1       6.029  26.037  51.368  1.00  0.00    -0.055 SA
HETATM   19  N   UNL     1       4.904  28.086  52.444  1.00  0.00    -0.227 NA
HETATM   20  C   UNL     1       4.819  27.238  51.450  1.00  0.00     0.174 A 
HETATM   21  C   UNL     1       7.443  23.931  55.758  1.00  0.00     0.020 C 
HETATM   22  C   UNL     1       7.019  25.790  57.395  1.00  0.00     0.128 C 
HETATM   23  C   UNL     1       6.657  27.253  57.629  1.00  0.00     0.033 C 
BRANCH  20  24
HETATM   24  N   UNL     1       3.879  27.136  50.471  1.00  0.00    -0.301 N 
HETATM   25  C   UNL     1       4.005  27.749  49.246  1.00  0.00     0.264 C 
HETATM   26  O   UNL     1       4.981  28.408  48.896  1.00  0.00    -0.267 OA
HETATM   27  H   UNL     1       3.027  26.644  50.696  1.00  0.00     0.171 HD
BRANCH  25  28
HETATM   28  C   UNL     1       2.843  27.584  48.371  1.00  0.00     0.072 A 
HETATM   29  S   UNL     1       2.737  26.328  47.203  1.00  0.00    -0.097 SA
HETATM   30  C   UNL     1       1.180  26.822  46.705  1.00  0.00     0.050 A 
HETATM   31  C   UNL     1       0.740  27.925  47.402  1.00  0.00     0.009 A 
HETATM   32  C   UNL     1       1.700  28.365  48.359  1.00  0.00     0.025 A 
ENDBRANCH  25  28
ENDBRANCH  20  24
BRANCH  15  33
HETATM   33  C   UNL     1       5.413  25.347  55.477  1.00  0.00     0.176 C 
BRANCH  33  34
HETATM   34  O   UNL     1       4.568  25.207  56.616  1.00  0.00    -0.400 OA
HETATM   35  H   UNL     1       4.566  26.065  57.077  1.00  0.00     0.209 HD
ENDBRANCH  33  34
ENDBRANCH  15  33
BRANCH  22  36
HETATM   36  O   UNL     1       8.359  25.601  57.865  1.00  0.00    -0.395 OA
HETATM   37  H   UNL     1       8.906  25.386  57.089  1.00  0.00     0.210 HD
ENDBRANCH  22  36
ENDBRANCH   8   9
ENDBRANCH   5   8
ENDBRANCH   1   4
TORSDOF 8
ENDMDL
MODEL 5
REMARK VINA RESULT:      -7.3      3.801      7.721
REMARK  8 active torsions:
REMARK  status: ('A' for Active; 'I' for Inactive)
REMARK    1  A    between atoms: C_3  and  C_4 
REMARK    2  A    between atoms: C_4  and  C_5 
REMARK       I    between atoms: C_5  and  N_6 
REMARK    3  A    between atoms: N_6  and  C_7 
REMARK    4  A    between atoms: C_14  and  N_15 
REMARK       I    between atoms: N_15  and  C_16 
REMARK    5  A    between atoms: C_16  and  C_17 
REMARK    6  A    between atoms: C_26  and  C_27 
REMARK    7  A    between atoms: C_27  and  O_28 
REMARK    8  A    between atoms: C_30  and  O_31 
ROOT
HETATM    1  C   UNL     1       7.915  25.142  52.134  1.00  0.00     0.216 C 
HETATM    2  C   UNL     1       7.719  23.778  52.636  1.00  0.00    -0.098 C 
HETATM    3  C   UNL     1       7.567  22.664  53.056  1.00  0.00     0.014 C 
ENDROOT
BRANCH   1   4
HETATM    4  N   UNL     1       6.774  25.575  51.373  1.00  0.00    -0.351 N 
HETATM    5  C   UNL     1       6.053  26.691  51.699  1.00  0.00     0.219 C 
HETATM    6  O   UNL     1       6.326  27.430  52.642  1.00  0.00    -0.274 OA
HETATM    7  H   UNL     1       6.360  24.890  50.737  1.00  0.00     0.163 HD
BRANCH   5   8
HETATM    8  C   UNL     1       4.882  26.992  50.778  1.00  0.00     0.114 C 
BRANCH   8   9
HETATM    9  C   UNL     1       5.290  27.894  49.593  1.00  0.00     0.056 C 
HETATM   10  C   UNL     1       4.852  27.444  48.107  1.00  0.00    -0.030 C 
HETATM   11  C   UNL     1       6.145  27.632  47.237  1.00  0.00     0.016 C 
HETATM   12  C   UNL     1       3.711  28.329  47.424  1.00  0.00     0.012 C 
HETATM   13  C   UNL     1       4.496  25.939  47.959  1.00  0.00     0.013 C 
HETATM   14  C   UNL     1       4.012  29.847  47.533  1.00  0.00     0.055 C 
HETATM   15  C   UNL     1       2.217  27.925  47.774  1.00  0.00     0.008 C 
HETATM   16  C   UNL     1       4.382  30.198  48.923  1.00  0.00     0.012 A 
HETATM   17  C   UNL     1       4.924  29.341  49.857  1.00  0.00     0.056 A 
HETATM   18  S   UNL     1       4.161  31.752  49.585  1.00  0.00    -0.055 SA
HETATM   19  N   UNL     1       5.075  29.896  51.116  1.00  0.00    -0.227 NA
HETATM   20  C   UNL     1       4.700  31.150  51.089  1.00  0.00     0.174 A 
HETATM   21  C   UNL     1       1.238  28.668  46.818  1.00  0.00     0.020 C 
HETATM   22  C   UNL     1       2.038  26.397  47.538  1.00  0.00     0.128 C 
HETATM   23  C   UNL     1       3.057  25.568  48.314  1.00  0.00     0.033 C 
BRANCH  20  24
HETATM   24  N   UNL     1       4.635  32.061  52.098  1.00  0.00    -0.301 N 
HETATM   25  C   UNL     1       3.940  31.837  53.265  1.00  0.00     0.264 C 
HETATM   26  O   UNL     1       3.348  30.794  53.531  1.00  0.00    -0.267 OA
HETATM   27  H   UNL     1       5.063  32.960  51.940  1.00  0.00     0.171 HD
BRANCH  25  28
HETATM   28  C   UNL     1       3.926  32.977  54.182  1.00  0.00     0.072 A 
HETATM   29  S   UNL     1       4.419  32.848  55.823  1.00  0.00    -0.097 SA
HETATM   30  C   UNL     1       4.139  34.507  56.115  1.00  0.00     0.050 A 
HETATM   31  C   UNL     1       3.674  35.157  54.994  1.00  0.00     0.009 A 
HETATM   32  C   UNL     1       3.548  34.275  53.882  1.00  0.00     0.025 A 
ENDBRANCH  25  28
ENDBRANCH  20  24
BRANCH  15  33
HETATM   33  C   UNL     1       1.793  28.288  49.217  1.00  0.00     0.176 C 
BRANCH  33  34
HETATM   34  O   UNL     1       1.055  29.507  49.238  1.00  0.00    -0.400 OA
HETATM   35  H   UNL     1       1.702  30.232  49.179  1.00  0.00     0.209 HD
ENDBRANCH  33  34
ENDBRANCH  15  33
BRANCH  22  36
HETATM   36  O   UNL     1       2.198  26.079  46.151  1.00  0.00    -0.395 OA
HETATM   37  H   UNL     1       1.342  25.743  45.835  1.00  0.00     0.210 HD
ENDBRANCH  22  36
ENDBRANCH   8   9
ENDBRANCH   5   8
ENDBRANCH   1   4
TORSDOF 8
ENDMDL
MODEL 6
REMARK VINA RESULT:      -7.3      3.074      5.686
REMARK  8 active torsions:
REMARK  status: ('A' for Active; 'I' for Inactive)
REMARK    1  A    between atoms: C_3  and  C_4 
REMARK    2  A    between atoms: C_4  and  C_5 
REMARK       I    between atoms: C_5  and  N_6 
REMARK    3  A    between atoms: N_6  and  C_7 
REMARK    4  A    between atoms: C_14  and  N_15 
REMARK       I    between atoms: N_15  and  C_16 
REMARK    5  A    between atoms: C_16  and  C_17 
REMARK    6  A    between atoms: C_26  and  C_27 
REMARK    7  A    between atoms: C_27  and  O_28 
REMARK    8  A    between atoms: C_30  and  O_31 
ROOT
HETATM    1  C   UNL     1       6.007  31.921  58.952  1.00  0.00     0.216 C 
HETATM    2  C   UNL     1       7.241  32.101  59.724  1.00  0.00    -0.098 C 
HETATM    3  C   UNL     1       8.245  32.258  60.363  1.00  0.00     0.014 C 
ENDROOT
BRANCH   1   4
HETATM    4  N   UNL     1       6.042  30.686  58.214  1.00  0.00    -0.351 N 
HETATM    5  C   UNL     1       4.908  30.065  57.768  1.00  0.00     0.219 C 
HETATM    6  O   UNL     1       3.775  30.510  57.929  1.00  0.00    -0.274 OA
HETATM    7  H   UNL     1       6.914  30.153  58.254  1.00  0.00     0.163 HD
BRANCH   5   8
HETATM    8  C   UNL     1       5.142  28.771  57.005  1.00  0.00     0.114 C 
BRANCH   8   9
HETATM    9  C   UNL     1       6.252  28.914  55.942  1.00  0.00     0.056 C 
HETATM   10  C   UNL     1       7.515  27.913  56.021  1.00  0.00    -0.030 C 
HETATM   11  C   UNL     1       8.769  28.839  55.829  1.00  0.00     0.016 C 
HETATM   12  C   UNL     1       7.590  26.802  54.875  1.00  0.00     0.012 C 
HETATM   13  C   UNL     1       7.732  27.243  57.405  1.00  0.00     0.013 C 
HETATM   14  C   UNL     1       7.387  27.411  53.463  1.00  0.00     0.055 C 
HETATM   15  C   UNL     1       6.769  25.472  55.144  1.00  0.00     0.008 C 
HETATM   16  C   UNL     1       6.201  28.297  53.453  1.00  0.00     0.012 A 
HETATM   17  C   UNL     1       5.668  28.949  54.544  1.00  0.00     0.056 A 
HETATM   18  S   UNL     1       5.291  28.624  52.051  1.00  0.00    -0.055 SA
HETATM   19  N   UNL     1       4.492  29.629  54.280  1.00  0.00    -0.227 NA
HETATM   20  C   UNL     1       4.199  29.519  53.009  1.00  0.00     0.174 A 
HETATM   21  C   UNL     1       7.175  24.388  54.103  1.00  0.00     0.020 C 
HETATM   22  C   UNL     1       7.136  24.929  56.556  1.00  0.00     0.128 C 
HETATM   23  C   UNL     1       6.922  25.970  57.651  1.00  0.00     0.033 C 
BRANCH  20  24
HETATM   24  N   UNL     1       3.120  29.984  52.322  1.00  0.00    -0.301 N 
HETATM   25  C   UNL     1       3.122  31.184  51.648  1.00  0.00     0.264 C 
HETATM   26  O   UNL     1       4.093  31.931  51.563  1.00  0.00    -0.267 OA
HETATM   27  H   UNL     1       2.268  29.447  52.378  1.00  0.00     0.171 HD
BRANCH  25  28
HETATM   28  C   UNL     1       1.833  31.536  51.049  1.00  0.00     0.072 A 
HETATM   29  S   UNL     1       0.976  32.963  51.476  1.00  0.00    -0.097 SA
HETATM   30  C   UNL     1      -0.283  32.626  50.373  1.00  0.00     0.050 A 
HETATM   31  C   UNL     1      -0.070  31.449  49.691  1.00  0.00     0.009 A 
HETATM   32  C   UNL     1       1.147  30.820  50.083  1.00  0.00     0.025 A 
ENDBRANCH  25  28
ENDBRANCH  20  24
BRANCH  15  33
HETATM   33  C   UNL     1       5.236  25.648  55.031  1.00  0.00     0.176 C 
BRANCH  33  34
HETATM   34  O   UNL     1       4.750  25.086  53.815  1.00  0.00    -0.400 OA
HETATM   35  H   UNL     1       4.232  25.779  53.368  1.00  0.00     0.209 HD
ENDBRANCH  33  34
ENDBRANCH  15  33
BRANCH  22  36
HETATM   36  O   UNL     1       8.513  24.537  56.604  1.00  0.00    -0.395 OA
HETATM   37  H   UNL     1       8.999  25.132  56.009  1.00  0.00     0.210 HD
ENDBRANCH  22  36
ENDBRANCH   8   9
ENDBRANCH   5   8
ENDBRANCH   1   4
TORSDOF 8
ENDMDL
MODEL 7
REMARK VINA RESULT:      -7.3      2.419      5.306
REMARK  8 active torsions:
REMARK  status: ('A' for Active; 'I' for Inactive)
REMARK    1  A    between atoms: C_3  and  C_4 
REMARK    2  A    between atoms: C_4  and  C_5 
REMARK       I    between atoms: C_5  and  N_6 
REMARK    3  A    between atoms: N_6  and  C_7 
REMARK    4  A    between atoms: C_14  and  N_15 
REMARK       I    between atoms: N_15  and  C_16 
REMARK    5  A    between atoms: C_16  and  C_17 
REMARK    6  A    between atoms: C_26  and  C_27 
REMARK    7  A    between atoms: C_27  and  O_28 
REMARK    8  A    between atoms: C_30  and  O_31 
ROOT
HETATM    1  C   UNL     1       3.716  30.878  58.609  1.00  0.00     0.216 C 
HETATM    2  C   UNL     1       4.800  31.863  58.671  1.00  0.00    -0.098 C 
HETATM    3  C   UNL     1       5.682  32.675  58.732  1.00  0.00     0.014 C 
ENDROOT
BRANCH   1   4
HETATM    4  N   UNL     1       4.118  29.723  57.850  1.00  0.00    -0.351 N 
HETATM    5  C   UNL     1       3.866  29.600  56.511  1.00  0.00     0.219 C 
HETATM    6  O   UNL     1       3.305  30.461  55.838  1.00  0.00    -0.274 OA
HETATM    7  H   UNL     1       4.368  28.888  58.383  1.00  0.00     0.163 HD
BRANCH   5   8
HETATM    8  C   UNL     1       4.367  28.312  55.878  1.00  0.00     0.114 C 
BRANCH   8   9
HETATM    9  C   UNL     1       5.676  28.523  55.087  1.00  0.00     0.056 C 
HETATM   10  C   UNL     1       7.021  27.824  55.640  1.00  0.00    -0.030 C 
HETATM   11  C   UNL     1       8.113  28.949  55.563  1.00  0.00     0.016 C 
HETATM   12  C   UNL     1       7.568  26.597  54.776  1.00  0.00     0.012 C 
HETATM   13  C   UNL     1       6.978  27.422  57.140  1.00  0.00     0.013 C 
HETATM   14  C   UNL     1       7.642  26.939  53.265  1.00  0.00     0.055 C 
HETATM   15  C   UNL     1       6.933  25.180  55.103  1.00  0.00     0.008 C 
HETATM   16  C   UNL     1       6.370  27.552  52.817  1.00  0.00     0.012 A 
HETATM   17  C   UNL     1       5.475  28.233  53.612  1.00  0.00     0.056 A 
HETATM   18  S   UNL     1       5.813  27.477  51.209  1.00  0.00    -0.055 SA
HETATM   19  N   UNL     1       4.312  28.612  52.964  1.00  0.00    -0.227 NA
HETATM   20  C   UNL     1       4.380  28.260  51.705  1.00  0.00     0.174 A 
HETATM   21  C   UNL     1       7.765  24.063  54.408  1.00  0.00     0.020 C 
HETATM   22  C   UNL     1       7.006  24.936  56.639  1.00  0.00     0.128 C 
HETATM   23  C   UNL     1       6.350  26.060  57.436  1.00  0.00     0.033 C 
BRANCH  20  24
HETATM   24  N   UNL     1       3.454  28.388  50.715  1.00  0.00    -0.301 N 
HETATM   25  C   UNL     1       3.544  29.341  49.726  1.00  0.00     0.264 C 
HETATM   26  O   UNL     1       4.473  30.136  49.610  1.00  0.00    -0.267 OA
HETATM   27  H   UNL     1       2.638  27.797  50.764  1.00  0.00     0.171 HD
BRANCH  25  28
HETATM   28  C   UNL     1       2.401  29.364  48.812  1.00  0.00     0.072 A 
HETATM   29  S   UNL     1       1.302  30.683  48.741  1.00  0.00    -0.097 SA
HETATM   30  C   UNL     1       0.389  29.952  47.497  1.00  0.00     0.050 A 
HETATM   31  C   UNL     1       0.897  28.724  47.137  1.00  0.00     0.009 A 
HETATM   32  C   UNL     1       2.054  28.385  47.897  1.00  0.00     0.025 A 
ENDBRANCH  25  28
ENDBRANCH  20  24
BRANCH  15  33
HETATM   33  C   UNL     1       5.475  25.021  54.613  1.00  0.00     0.176 C 
BRANCH  33  34
HETATM   34  O   UNL     1       5.435  24.400  53.331  1.00  0.00    -0.400 OA
HETATM   35  H   UNL     1       4.820  23.647  53.398  1.00  0.00     0.209 HD
ENDBRANCH  33  34
ENDBRANCH  15  33
BRANCH  22  36
HETATM   36  O   UNL     1       8.368  24.846  57.071  1.00  0.00    -0.395 OA
HETATM   37  H   UNL     1       8.643  25.740  57.337  1.00  0.00     0.210 HD
ENDBRANCH  22  36
ENDBRANCH   8   9
ENDBRANCH   5   8
ENDBRANCH   1   4
TORSDOF 8
ENDMDL
MODEL 8
REMARK VINA RESULT:      -7.0      3.241      6.254
REMARK  8 active torsions:
REMARK  status: ('A' for Active; 'I' for Inactive)
REMARK    1  A    between atoms: C_3  and  C_4 
REMARK    2  A    between atoms: C_4  and  C_5 
REMARK       I    between atoms: C_5  and  N_6 
REMARK    3  A    between atoms: N_6  and  C_7 
REMARK    4  A    between atoms: C_14  and  N_15 
REMARK       I    between atoms: N_15  and  C_16 
REMARK    5  A    between atoms: C_16  and  C_17 
REMARK    6  A    between atoms: C_26  and  C_27 
REMARK    7  A    between atoms: C_27  and  O_28 
REMARK    8  A    between atoms: C_30  and  O_31 
ROOT
HETATM    1  C   UNL     1       4.716  27.241  48.687  1.00  0.00     0.216 C 
HETATM    2  C   UNL     1       3.839  26.105  48.386  1.00  0.00    -0.098 C 
HETATM    3  C   UNL     1       3.121  25.178  48.127  1.00  0.00     0.014 C 
ENDROOT
BRANCH   1   4
HETATM    4  N   UNL     1       5.323  27.087  49.982  1.00  0.00    -0.351 N 
HETATM    5  C   UNL     1       5.474  28.133  50.852  1.00  0.00     0.219 C 
HETATM    6  O   UNL     1       5.086  29.276  50.621  1.00  0.00    -0.274 OA
HETATM    7  H   UNL     1       5.870  26.237  50.134  1.00  0.00     0.163 HD
BRANCH   5   8
HETATM    8  C   UNL     1       6.136  27.780  52.174  1.00  0.00     0.114 C 
BRANCH   8   9
HETATM    9  C   UNL     1       5.144  27.139  53.169  1.00  0.00     0.056 C 
HETATM   10  C   UNL     1       5.378  25.600  53.592  1.00  0.00    -0.030 C 
HETATM   11  C   UNL     1       3.958  24.939  53.488  1.00  0.00     0.016 C 
HETATM   12  C   UNL     1       5.883  25.364  55.090  1.00  0.00     0.012 C 
HETATM   13  C   UNL     1       6.264  24.781  52.613  1.00  0.00     0.013 C 
HETATM   14  C   UNL     1       5.031  26.152  56.119  1.00  0.00     0.055 C 
HETATM   15  C   UNL     1       7.450  25.459  55.317  1.00  0.00     0.008 C 
HETATM   16  C   UNL     1       4.876  27.559  55.685  1.00  0.00     0.012 A 
HETATM   17  C   UNL     1       4.950  28.019  54.388  1.00  0.00     0.056 A 
HETATM   18  S   UNL     1       4.599  28.846  56.766  1.00  0.00    -0.055 SA
HETATM   19  N   UNL     1       4.877  29.396  54.268  1.00  0.00    -0.227 NA
HETATM   20  C   UNL     1       4.701  29.929  55.451  1.00  0.00     0.174 A 
HETATM   21  C   UNL     1       7.805  24.918  56.733  1.00  0.00     0.020 C 
HETATM   22  C   UNL     1       8.167  24.555  54.273  1.00  0.00     0.128 C 
HETATM   23  C   UNL     1       7.771  24.896  52.840  1.00  0.00     0.033 C 
BRANCH  20  24
HETATM   24  N   UNL     1       4.622  31.239  55.812  1.00  0.00    -0.301 N 
HETATM   25  C   UNL     1       3.427  31.879  56.045  1.00  0.00     0.264 C 
HETATM   26  O   UNL     1       2.326  31.336  55.992  1.00  0.00    -0.267 OA
HETATM   27  H   UNL     1       5.481  31.766  55.837  1.00  0.00     0.171 HD
BRANCH  25  28
HETATM   28  C   UNL     1       3.559  33.308  56.336  1.00  0.00     0.072 A 
HETATM   29  S   UNL     1       2.273  34.422  56.096  1.00  0.00    -0.097 SA
HETATM   30  C   UNL     1       3.204  35.734  56.669  1.00  0.00     0.050 A 
HETATM   31  C   UNL     1       4.474  35.345  57.034  1.00  0.00     0.009 A 
HETATM   32  C   UNL     1       4.679  33.949  56.838  1.00  0.00     0.025 A 
ENDBRANCH  25  28
ENDBRANCH  20  24
BRANCH  15  33
HETATM   33  C   UNL     1       8.007  26.900  55.237  1.00  0.00     0.176 C 
BRANCH  33  34
HETATM   34  O   UNL     1       8.266  27.417  56.539  1.00  0.00    -0.400 OA
HETATM   35  H   UNL     1       9.177  27.161  56.771  1.00  0.00     0.209 HD
ENDBRANCH  33  34
ENDBRANCH  15  33
BRANCH  22  36
HETATM   36  O   UNL     1       7.840  23.177  54.489  1.00  0.00    -0.395 OA
HETATM   37  H   UNL     1       8.229  22.922  55.343  1.00  0.00     0.210 HD
ENDBRANCH  22  36
ENDBRANCH   8   9
ENDBRANCH   5   8
ENDBRANCH   1   4
TORSDOF 8
ENDMDL
MODEL 9
REMARK VINA RESULT:      -6.9      7.524      9.946
REMARK  8 active torsions:
REMARK  status: ('A' for Active; 'I' for Inactive)
REMARK    1  A    between atoms: C_3  and  C_4 
REMARK    2  A    between atoms: C_4  and  C_5 
REMARK       I    between atoms: C_5  and  N_6 
REMARK    3  A    between atoms: N_6  and  C_7 
REMARK    4  A    between atoms: C_14  and  N_15 
REMARK       I    between atoms: N_15  and  C_16 
REMARK    5  A    between atoms: C_16  and  C_17 
REMARK    6  A    between atoms: C_26  and  C_27 
REMARK    7  A    between atoms: C_27  and  O_28 
REMARK    8  A    between atoms: C_30  and  O_31 
ROOT
HETATM    1  C   UNL     1       7.050  30.450  58.178  1.00  0.00     0.216 C 
HETATM    2  C   UNL     1       5.816  29.920  57.589  1.00  0.00    -0.098 C 
HETATM    3  C   UNL     1       4.812  29.477  57.102  1.00  0.00     0.014 C 
ENDROOT
BRANCH   1   4
HETATM    4  N   UNL     1       6.753  31.363  59.250  1.00  0.00    -0.351 N 
HETATM    5  C   UNL     1       7.659  32.282  59.704  1.00  0.00     0.219 C 
HETATM    6  O   UNL     1       8.783  32.428  59.230  1.00  0.00    -0.274 OA
HETATM    7  H   UNL     1       5.944  31.138  59.833  1.00  0.00     0.163 HD
BRANCH   5   8
HETATM    8  C   UNL     1       7.166  33.162  60.841  1.00  0.00     0.114 C 
BRANCH   8   9
HETATM    9  C   UNL     1       5.793  32.706  61.379  1.00  0.00     0.056 C 
HETATM   10  C   UNL     1       5.660  32.387  62.955  1.00  0.00    -0.030 C 
HETATM   11  C   UNL     1       4.880  31.026  63.020  1.00  0.00     0.016 C 
HETATM   12  C   UNL     1       4.811  33.440  63.805  1.00  0.00     0.012 C 
HETATM   13  C   UNL     1       7.005  32.102  63.679  1.00  0.00     0.013 C 
HETATM   14  C   UNL     1       3.450  33.761  63.135  1.00  0.00     0.055 C 
HETATM   15  C   UNL     1       5.606  34.709  64.329  1.00  0.00     0.008 C 
HETATM   16  C   UNL     1       3.645  34.069  61.700  1.00  0.00     0.012 A 
HETATM   17  C   UNL     1       4.689  33.634  60.913  1.00  0.00     0.056 A 
HETATM   18  S   UNL     1       2.582  35.053  60.803  1.00  0.00    -0.055 SA
HETATM   19  N   UNL     1       4.690  34.155  59.631  1.00  0.00    -0.227 NA
HETATM   20  C   UNL     1       3.638  34.916  59.468  1.00  0.00     0.174 A 
HETATM   21  C   UNL     1       4.738  35.473  65.372  1.00  0.00     0.020 C 
HETATM   22  C   UNL     1       6.900  34.232  65.051  1.00  0.00     0.128 C 
HETATM   23  C   UNL     1       7.762  33.338  64.165  1.00  0.00     0.033 C 
BRANCH  20  24
HETATM   24  N   UNL     1       3.261  35.661  58.393  1.00  0.00    -0.301 N 
HETATM   25  C   UNL     1       2.584  35.134  57.317  1.00  0.00     0.264 C 
HETATM   26  O   UNL     1       2.219  33.964  57.232  1.00  0.00    -0.267 OA
HETATM   27  H   UNL     1       3.560  36.624  58.368  1.00  0.00     0.171 HD
BRANCH  25  28
HETATM   28  C   UNL     1       2.352  36.086  56.230  1.00  0.00     0.072 A 
HETATM   29  S   UNL     1       2.571  37.780  56.424  1.00  0.00    -0.097 SA
HETATM   30  C   UNL     1       2.152  38.095  54.798  1.00  0.00     0.050 A 
HETATM   31  C   UNL     1       1.843  36.942  54.112  1.00  0.00     0.009 A 
HETATM   32  C   UNL     1       1.955  35.786  54.938  1.00  0.00     0.025 A 
ENDBRANCH  25  28
ENDBRANCH  20  24
BRANCH  15  33
HETATM   33  C   UNL     1       5.966  35.724  63.219  1.00  0.00     0.176 C 
BRANCH  33  34
HETATM   34  O   UNL     1       6.129  37.032  63.761  1.00  0.00    -0.400 OA
HETATM   35  H   UNL     1       6.984  37.042  64.228  1.00  0.00     0.209 HD
ENDBRANCH  33  34
ENDBRANCH  15  33
BRANCH  22  36
HETATM   36  O   UNL     1       6.574  33.481  66.226  1.00  0.00    -0.395 OA
HETATM   37  H   UNL     1       7.260  33.675  66.888  1.00  0.00     0.210 HD
ENDBRANCH  22  36
ENDBRANCH   8   9
ENDBRANCH   5   8
ENDBRANCH   1   4
TORSDOF 8
ENDMDL
MODEL 10
REMARK VINA RESULT:      -6.9      6.453      8.891
REMARK  8 active torsions:
REMARK  status: ('A' for Active; 'I' for Inactive)
REMARK    1  A    between atoms: C_3  and  C_4 
REMARK    2  A    between atoms: C_4  and  C_5 
REMARK       I    between atoms: C_5  and  N_6 
REMARK    3  A    between atoms: N_6  and  C_7 
REMARK    4  A    between atoms: C_14  and  N_15 
REMARK       I    between atoms: N_15  and  C_16 
REMARK    5  A    between atoms: C_16  and  C_17 
REMARK    6  A    between atoms: C_26  and  C_27 
REMARK    7  A    between atoms: C_27  and  O_28 
REMARK    8  A    between atoms: C_30  and  O_31 
ROOT
HETATM    1  C   UNL     1       9.203  30.425  58.736  1.00  0.00     0.216 C 
HETATM    2  C   UNL     1       8.365  29.333  58.232  1.00  0.00    -0.098 C 
HETATM    3  C   UNL     1       7.689  28.431  57.819  1.00  0.00     0.014 C 
ENDROOT
BRANCH   1   4
HETATM    4  N   UNL     1       8.398  31.437  59.368  1.00  0.00    -0.351 N 
HETATM    5  C   UNL     1       8.674  31.921  60.617  1.00  0.00     0.219 C 
HETATM    6  O   UNL     1       9.635  31.562  61.293  1.00  0.00    -0.274 OA
HETATM    7  H   UNL     1       7.471  31.600  58.969  1.00  0.00     0.163 HD
BRANCH   5   8
HETATM    8  C   UNL     1       7.715  32.987  61.120  1.00  0.00     0.114 C 
BRANCH   8   9
HETATM    9  C   UNL     1       6.276  32.450  61.276  1.00  0.00     0.056 C 
HETATM   10  C   UNL     1       5.572  32.571  62.722  1.00  0.00    -0.030 C 
HETATM   11  C   UNL     1       4.923  31.162  62.967  1.00  0.00     0.016 C 
HETATM   12  C   UNL     1       4.390  33.641  62.829  1.00  0.00     0.012 C 
HETATM   13  C   UNL     1       6.551  32.763  63.912  1.00  0.00     0.013 C 
HETATM   14  C   UNL     1       3.371  33.495  61.669  1.00  0.00     0.055 C 
HETATM   15  C   UNL     1       4.831  35.133  63.138  1.00  0.00     0.008 C 
HETATM   16  C   UNL     1       4.079  33.416  60.371  1.00  0.00     0.012 A 
HETATM   17  C   UNL     1       5.373  32.981  60.181  1.00  0.00     0.056 A 
HETATM   18  S   UNL     1       3.376  33.885  58.892  1.00  0.00    -0.055 SA
HETATM   19  N   UNL     1       5.830  33.109  58.880  1.00  0.00    -0.227 NA
HETATM   20  C   UNL     1       4.870  33.579  58.124  1.00  0.00     0.174 A 
HETATM   21  C   UNL     1       3.578  35.982  63.504  1.00  0.00     0.020 C 
HETATM   22  C   UNL     1       5.779  35.134  64.372  1.00  0.00     0.128 C 
HETATM   23  C   UNL     1       6.975  34.206  64.185  1.00  0.00     0.033 C 
BRANCH  20  24
HETATM   24  N   UNL     1       4.884  33.904  56.803  1.00  0.00    -0.301 N 
HETATM   25  C   UNL     1       4.730  32.972  55.802  1.00  0.00     0.264 C 
HETATM   26  O   UNL     1       4.528  31.775  55.992  1.00  0.00    -0.267 OA
HETATM   27  H   UNL     1       5.085  34.862  56.563  1.00  0.00     0.171 HD
BRANCH  25  28
HETATM   28  C   UNL     1       4.863  33.518  54.450  1.00  0.00     0.072 A 
HETATM   29  S   UNL     1       4.089  32.811  53.089  1.00  0.00    -0.097 SA
HETATM   30  C   UNL     1       4.703  34.000  52.028  1.00  0.00     0.050 A 
HETATM   31  C   UNL     1       5.490  34.920  52.684  1.00  0.00     0.009 A 
HETATM   32  C   UNL     1       5.585  34.639  54.078  1.00  0.00     0.025 A 
ENDBRANCH  25  28
ENDBRANCH  20  24
BRANCH  15  33
HETATM   33  C   UNL     1       5.517  35.842  61.946  1.00  0.00     0.176 C 
BRANCH  33  34
HETATM   34  O   UNL     1       6.004  37.125  62.331  1.00  0.00    -0.400 OA
HETATM   35  H   UNL     1       5.376  37.783  61.984  1.00  0.00     0.209 HD
ENDBRANCH  33  34
ENDBRANCH  15  33
BRANCH  22  36
HETATM   36  O   UNL     1       5.081  34.698  65.545  1.00  0.00    -0.395 OA
HETATM   37  H   UNL     1       4.263  35.222  65.601  1.00  0.00     0.210 HD
ENDBRANCH  22  36
ENDBRANCH   8   9
ENDBRANCH   5   8
ENDBRANCH   1   4
TORSDOF 8
ENDMDL
