MODEL 1
REMARK VINA RESULT:      -9.9      0.000      0.000
REMARK  5 active torsions:
REMARK  status: ('A' for Active; 'I' for Inactive)
REMARK    1  A    between atoms: C_9  and  C_10 
REMARK       I    between atoms: C_10  and  N_11 
REMARK    2  A    between atoms: N_11  and  C_12 
REMARK    3  A    between atoms: C_12  and  C_13 
REMARK    4  A    between atoms: C_16  and  O_17 
REMARK    5  A    between atoms: O_17  and  C_18 
ROOT
HETATM    1  C   UNL     1       7.499  25.623  55.330  1.00  0.00     0.273 C 
HETATM    2  N   UNL     1       7.664  26.764  56.082  1.00  0.00    -0.351 N 
HETATM    3  O   UNL     1       7.072  25.636  54.179  1.00  0.00    -0.266 OA
HETATM    4  H   UNL     1       7.942  26.617  57.049  1.00  0.00     0.163 HD
ENDROOT
BRANCH   2   5
HETATM    5  C   UNL     1       7.216  28.047  55.614  1.00  0.00     0.163 C 
BRANCH   5   6
HETATM    6  C   UNL     1       7.514  29.128  56.607  1.00  0.00    -0.023 A 
HETATM    7  C   UNL     1       6.545  30.058  56.968  1.00  0.00     0.128 A 
HETATM    8  N   UNL     1       6.736  31.046  57.872  1.00  0.00    -0.236 NA
HETATM    9  C   UNL     1       7.954  31.112  58.448  1.00  0.00     0.164 A 
HETATM   10  C   UNL     1       8.986  30.233  58.163  1.00  0.00     0.059 A 
HETATM   11  C   UNL     1       8.758  29.220  57.236  1.00  0.00     0.014 A 
BRANCH   9  12
HETATM   12  O   UNL     1       8.234  32.101  59.368  1.00  0.00    -0.329 OA
BRANCH  12  13
HETATM   13  C   UNL     1       7.786  31.825  60.691  1.00  0.00     0.130 C 
HETATM   14  C   UNL     1       8.971  31.954  61.646  1.00  0.00     0.032 C 
HETATM   15  C   UNL     1       8.305  32.110  63.000  1.00  0.00     0.002 C 
HETATM   16  C   UNL     1       7.084  32.982  62.727  1.00  0.00     0.002 C 
HETATM   17  C   UNL     1       6.812  32.879  61.225  1.00  0.00     0.032 C 
ENDBRANCH  12  13
ENDBRANCH   9  12
ENDBRANCH   5   6
ENDBRANCH   2   5
BRANCH   1  18
HETATM   18  C   UNL     1       7.865  24.395  56.053  1.00  0.00     0.157 A 
HETATM   19  C   UNL     1       8.033  23.087  55.509  1.00  0.00     0.029 A 
HETATM   20  C   UNL     1       7.943  22.499  54.231  1.00  0.00     0.023 A 
HETATM   21  C   UNL     1       8.361  22.284  56.594  1.00  0.00     0.063 A 
HETATM   22  C   UNL     1       8.187  21.123  54.083  1.00  0.00    -0.061 A 
HETATM   23  C   UNL     1       8.093  20.474  52.733  1.00  0.00     0.048 C 
HETATM   24  C   UNL     1       8.512  20.349  55.205  1.00  0.00     0.009 A 
HETATM   25  C   UNL     1       8.606  20.912  56.483  1.00  0.00     0.032 A 
HETATM   26  N   UNL     1       8.371  23.122  57.673  1.00  0.00    -0.277 N 
HETATM   27  H   UNL     1       8.572  22.878  58.637  1.00  0.00     0.189 HD
HETATM   28  N   UNL     1       8.074  24.402  57.388  1.00  0.00    -0.168 NA
ENDBRANCH   1  18
TORSDOF 5
ENDMDL
MODEL 2
REMARK VINA RESULT:      -9.8      2.522      3.283
REMARK  5 active torsions:
REMARK  status: ('A' for Active; 'I' for Inactive)
REMARK    1  A    between atoms: C_9  and  C_10 
REMARK       I    between atoms: C_10  and  N_11 
REMARK    2  A    between atoms: N_11  and  C_12 
REMARK    3  A    between atoms: C_12  and  C_13 
REMARK    4  A    between atoms: C_16  and  O_17 
REMARK    5  A    between atoms: O_17  and  C_18 
ROOT
HETATM    1  C   UNL     1       7.844  27.311  56.696  1.00  0.00     0.273 C 
HETATM    2  N   UNL     1       8.451  28.497  56.347  1.00  0.00    -0.351 N 
HETATM    3  O   UNL     1       8.215  26.622  57.641  1.00  0.00    -0.266 OA
HETATM    4  H   UNL     1       8.108  28.932  55.494  1.00  0.00     0.163 HD
ENDROOT
BRANCH   2   5
HETATM    5  C   UNL     1       9.657  28.944  56.988  1.00  0.00     0.163 C 
BRANCH   5   6
HETATM    6  C   UNL     1       9.380  30.024  57.987  1.00  0.00    -0.023 A 
HETATM    7  C   UNL     1      10.174  31.165  58.051  1.00  0.00     0.128 A 
HETATM    8  N   UNL     1       9.970  32.188  58.911  1.00  0.00    -0.236 NA
HETATM    9  C   UNL     1       8.921  32.073  59.751  1.00  0.00     0.164 A 
HETATM   10  C   UNL     1       8.067  30.983  59.766  1.00  0.00     0.059 A 
HETATM   11  C   UNL     1       8.295  29.948  58.864  1.00  0.00     0.014 A 
BRANCH   9  12
HETATM   12  O   UNL     1       8.655  33.067  60.671  1.00  0.00    -0.329 OA
BRANCH  12  13
HETATM   13  C   UNL     1       7.701  32.714  61.666  1.00  0.00     0.130 C 
HETATM   14  C   UNL     1       8.419  32.583  63.008  1.00  0.00     0.032 C 
HETATM   15  C   UNL     1       7.287  32.682  64.014  1.00  0.00     0.002 C 
HETATM   16  C   UNL     1       6.348  33.731  63.430  1.00  0.00     0.002 C 
HETATM   17  C   UNL     1       6.684  33.824  61.940  1.00  0.00     0.032 C 
ENDBRANCH  12  13
ENDBRANCH   9  12
ENDBRANCH   5   6
ENDBRANCH   2   5
BRANCH   1  18
HETATM   18  C   UNL     1       6.725  26.952  55.811  1.00  0.00     0.157 A 
HETATM   19  C   UNL     1       6.687  25.901  54.846  1.00  0.00     0.029 A 
HETATM   20  C   UNL     1       7.571  24.898  54.401  1.00  0.00     0.023 A 
HETATM   21  C   UNL     1       5.426  25.987  54.269  1.00  0.00     0.063 A 
HETATM   22  C   UNL     1       7.161  24.012  53.391  1.00  0.00    -0.061 A 
HETATM   23  C   UNL     1       8.088  22.938  52.898  1.00  0.00     0.048 C 
HETATM   24  C   UNL     1       5.882  24.136  52.834  1.00  0.00     0.009 A 
HETATM   25  C   UNL     1       4.988  25.125  53.260  1.00  0.00     0.032 A 
HETATM   26  N   UNL     1       4.813  27.035  54.895  1.00  0.00    -0.277 N 
HETATM   27  H   UNL     1       3.877  27.387  54.726  1.00  0.00     0.189 HD
HETATM   28  N   UNL     1       5.565  27.645  55.829  1.00  0.00    -0.168 NA
ENDBRANCH   1  18
TORSDOF 5
ENDMDL
MODEL 3
REMARK VINA RESULT:      -9.3      1.824      9.944
REMARK  5 active torsions:
REMARK  status: ('A' for Active; 'I' for Inactive)
REMARK    1  A    between atoms: C_9  and  C_10 
REMARK       I    between atoms: C_10  and  N_11 
REMARK    2  A    between atoms: N_11  and  C_12 
REMARK    3  A    between atoms: C_12  and  C_13 
REMARK    4  A    between atoms: C_16  and  O_17 
REMARK    5  A    between atoms: O_17  and  C_18 
ROOT
HETATM    1  C   UNL     1       6.996  31.121  58.377  1.00  0.00     0.273 C 
HETATM    2  N   UNL     1       7.122  29.970  57.632  1.00  0.00    -0.351 N 
HETATM    3  O   UNL     1       6.420  32.124  57.967  1.00  0.00    -0.266 OA
HETATM    4  H   UNL     1       7.695  29.238  58.045  1.00  0.00     0.163 HD
ENDROOT
BRANCH   2   5
HETATM    5  C   UNL     1       6.701  29.911  56.259  1.00  0.00     0.163 C 
BRANCH   5   6
HETATM    6  C   UNL     1       6.542  28.496  55.794  1.00  0.00    -0.023 A 
HETATM    7  C   UNL     1       7.317  27.990  54.756  1.00  0.00     0.128 A 
HETATM    8  N   UNL     1       7.242  26.719  54.299  1.00  0.00    -0.236 NA
HETATM    9  C   UNL     1       6.353  25.908  54.907  1.00  0.00     0.164 A 
HETATM   10  C   UNL     1       5.538  26.311  55.953  1.00  0.00     0.059 A 
HETATM   11  C   UNL     1       5.642  27.621  56.408  1.00  0.00     0.014 A 
BRANCH   9  12
HETATM   12  O   UNL     1       6.204  24.602  54.489  1.00  0.00    -0.329 OA
BRANCH  12  13
HETATM   13  C   UNL     1       7.426  23.890  54.325  1.00  0.00     0.130 C 
HETATM   14  C   UNL     1       7.519  22.821  55.412  1.00  0.00     0.032 C 
HETATM   15  C   UNL     1       8.565  21.866  54.866  1.00  0.00     0.002 C 
HETATM   16  C   UNL     1       8.286  21.811  53.368  1.00  0.00     0.002 C 
HETATM   17  C   UNL     1       7.467  23.061  53.039  1.00  0.00     0.032 C 
ENDBRANCH  12  13
ENDBRANCH   9  12
ENDBRANCH   5   6
ENDBRANCH   2   5
BRANCH   1  18
HETATM   18  C   UNL     1       7.639  31.028  59.698  1.00  0.00     0.157 A 
HETATM   19  C   UNL     1       7.416  31.867  60.830  1.00  0.00     0.029 A 
HETATM   20  C   UNL     1       6.597  32.975  61.128  1.00  0.00     0.023 A 
HETATM   21  C   UNL     1       8.267  31.380  61.813  1.00  0.00     0.063 A 
HETATM   22  C   UNL     1       6.658  33.557  62.405  1.00  0.00    -0.061 A 
HETATM   23  C   UNL     1       5.798  34.741  62.744  1.00  0.00     0.048 C 
HETATM   24  C   UNL     1       7.534  33.036  63.366  1.00  0.00     0.009 A 
HETATM   25  C   UNL     1       8.356  31.937  63.092  1.00  0.00     0.032 A 
HETATM   26  N   UNL     1       8.918  30.325  61.237  1.00  0.00    -0.277 N 
HETATM   27  H   UNL     1       9.618  29.730  61.665  1.00  0.00     0.189 HD
HETATM   28  N   UNL     1       8.569  30.084  59.961  1.00  0.00    -0.168 NA
ENDBRANCH   1  18
TORSDOF 5
ENDMDL
MODEL 4
REMARK VINA RESULT:      -9.2      2.009      2.559
REMARK  5 active torsions:
REMARK  status: ('A' for Active; 'I' for Inactive)
REMARK    1  A    between atoms: C_9  and  C_10 
REMARK       I    between atoms: C_10  and  N_11 
REMARK    2  A    between atoms: N_11  and  C_12 
REMARK    3  A    between atoms: C_12  and  C_13 
REMARK    4  A    between atoms: C_16  and  O_17 
REMARK    5  A    between atoms: O_17  and  C_18 
ROOT
HETATM    1  C   UNL     1       6.107  25.767  54.483  1.00  0.00     0.273 C 
HETATM    2  N   UNL     1       6.314  27.030  53.975  1.00  0.00    -0.351 N 
HETATM    3  O   UNL     1       5.384  25.545  55.450  1.00  0.00    -0.266 OA
HETATM    4  H   UNL     1       7.001  27.096  53.228  1.00  0.00     0.163 HD
ENDROOT
BRANCH   2   5
HETATM    5  C   UNL     1       5.800  28.201  54.632  1.00  0.00     0.163 C 
BRANCH   5   6
HETATM    6  C   UNL     1       6.689  28.633  55.757  1.00  0.00    -0.023 A 
HETATM    7  C   UNL     1       6.194  28.770  57.050  1.00  0.00     0.128 A 
HETATM    8  N   UNL     1       6.941  29.136  58.117  1.00  0.00    -0.236 NA
HETATM    9  C   UNL     1       8.249  29.374  57.887  1.00  0.00     0.164 A 
HETATM   10  C   UNL     1       8.841  29.261  56.640  1.00  0.00     0.059 A 
HETATM   11  C   UNL     1       8.050  28.875  55.562  1.00  0.00     0.014 A 
BRANCH   9  12
HETATM   12  O   UNL     1       9.075  29.767  58.920  1.00  0.00    -0.329 OA
BRANCH  12  13
HETATM   13  C   UNL     1       8.432  30.529  59.935  1.00  0.00     0.130 C 
HETATM   14  C   UNL     1       9.299  30.498  61.193  1.00  0.00     0.032 C 
HETATM   15  C   UNL     1       8.782  31.678  61.995  1.00  0.00     0.002 C 
HETATM   16  C   UNL     1       8.493  32.751  60.952  1.00  0.00     0.002 C 
HETATM   17  C   UNL     1       8.369  32.024  59.612  1.00  0.00     0.032 C 
ENDBRANCH  12  13
ENDBRANCH   9  12
ENDBRANCH   5   6
ENDBRANCH   2   5
BRANCH   1  18
HETATM   18  C   UNL     1       6.854  24.724  53.763  1.00  0.00     0.157 A 
HETATM   19  C   UNL     1       7.413  23.529  54.305  1.00  0.00     0.029 A 
HETATM   20  C   UNL     1       7.472  22.920  55.575  1.00  0.00     0.023 A 
HETATM   21  C   UNL     1       8.023  22.895  53.230  1.00  0.00     0.063 A 
HETATM   22  C   UNL     1       8.140  21.693  55.724  1.00  0.00    -0.061 A 
HETATM   23  C   UNL     1       8.220  21.028  57.068  1.00  0.00     0.048 C 
HETATM   24  C   UNL     1       8.745  21.090  54.613  1.00  0.00     0.009 A 
HETATM   25  C   UNL     1       8.699  21.677  53.343  1.00  0.00     0.032 A 
HETATM   26  N   UNL     1       7.800  23.712  52.156  1.00  0.00    -0.277 N 
HETATM   27  H   UNL     1       8.104  23.563  51.200  1.00  0.00     0.189 HD
HETATM   28  N   UNL     1       7.102  24.826  52.438  1.00  0.00    -0.168 NA
ENDBRANCH   1  18
TORSDOF 5
ENDMDL
MODEL 5
REMARK VINA RESULT:      -9.0      2.209     10.377
REMARK  5 active torsions:
REMARK  status: ('A' for Active; 'I' for Inactive)
REMARK    1  A    between atoms: C_9  and  C_10 
REMARK       I    between atoms: C_10  and  N_11 
REMARK    2  A    between atoms: N_11  and  C_12 
REMARK    3  A    between atoms: C_12  and  C_13 
REMARK    4  A    between atoms: C_16  and  O_17 
REMARK    5  A    between atoms: O_17  and  C_18 
ROOT
HETATM    1  C   UNL     1       7.539  31.802  59.414  1.00  0.00     0.273 C 
HETATM    2  N   UNL     1       7.386  30.513  58.957  1.00  0.00    -0.351 N 
HETATM    3  O   UNL     1       8.581  32.438  59.288  1.00  0.00    -0.266 OA
HETATM    4  H   UNL     1       6.506  30.062  59.197  1.00  0.00     0.163 HD
ENDROOT
BRANCH   2   5
HETATM    5  C   UNL     1       8.490  29.768  58.417  1.00  0.00     0.163 C 
BRANCH   5   6
HETATM    6  C   UNL     1       8.043  28.827  57.341  1.00  0.00    -0.023 A 
HETATM    7  C   UNL     1       7.704  29.294  56.075  1.00  0.00     0.128 A 
HETATM    8  N   UNL     1       7.312  28.502  55.051  1.00  0.00    -0.236 NA
HETATM    9  C   UNL     1       7.258  27.177  55.296  1.00  0.00     0.164 A 
HETATM   10  C   UNL     1       7.580  26.610  56.518  1.00  0.00     0.059 A 
HETATM   11  C   UNL     1       7.988  27.448  57.551  1.00  0.00     0.014 A 
BRANCH   9  12
HETATM   12  O   UNL     1       6.853  26.304  54.308  1.00  0.00    -0.329 OA
BRANCH  12  13
HETATM   13  C   UNL     1       7.627  25.113  54.214  1.00  0.00     0.130 C 
HETATM   14  C   UNL     1       6.761  23.931  54.647  1.00  0.00     0.032 C 
HETATM   15  C   UNL     1       7.498  22.737  54.070  1.00  0.00     0.002 C 
HETATM   16  C   UNL     1       8.006  23.219  52.716  1.00  0.00     0.002 C 
HETATM   17  C   UNL     1       7.992  24.748  52.773  1.00  0.00     0.032 C 
ENDBRANCH  12  13
ENDBRANCH   9  12
ENDBRANCH   5   6
ENDBRANCH   2   5
BRANCH   1  18
HETATM   18  C   UNL     1       6.337  32.326  60.082  1.00  0.00     0.157 A 
HETATM   19  C   UNL     1       6.226  32.791  61.425  1.00  0.00     0.029 A 
HETATM   20  C   UNL     1       7.096  32.936  62.525  1.00  0.00     0.023 A 
HETATM   21  C   UNL     1       4.896  33.162  61.572  1.00  0.00     0.063 A 
HETATM   22  C   UNL     1       6.602  33.450  63.736  1.00  0.00    -0.061 A 
HETATM   23  C   UNL     1       7.509  33.609  64.922  1.00  0.00     0.048 C 
HETATM   24  C   UNL     1       5.252  33.808  63.840  1.00  0.00     0.009 A 
HETATM   25  C   UNL     1       4.370  33.673  62.761  1.00  0.00     0.032 A 
HETATM   26  N   UNL     1       4.316  32.910  60.359  1.00  0.00    -0.277 N 
HETATM   27  H   UNL     1       3.348  33.061  60.100  1.00  0.00     0.189 HD
HETATM   28  N   UNL     1       5.152  32.402  59.436  1.00  0.00    -0.168 NA
ENDBRANCH   1  18
TORSDOF 5
ENDMDL
MODEL 6
REMARK VINA RESULT:      -9.0      2.748      8.956
REMARK  5 active torsions:
REMARK  status: ('A' for Active; 'I' for Inactive)
REMARK    1  A    between atoms: C_9  and  C_10 
REMARK       I    between atoms: C_10  and  N_11 
REMARK    2  A    between atoms: N_11  and  C_12 
REMARK    3  A    between atoms: C_12  and  C_13 
REMARK    4  A    between atoms: C_16  and  O_17 
REMARK    5  A    between atoms: O_17  and  C_18 
ROOT
HETATM    1  C   UNL     1       5.153  29.021  55.951  1.00  0.00     0.273 C 
HETATM    2  N   UNL     1       5.854  29.054  54.766  1.00  0.00    -0.351 N 
HETATM    3  O   UNL     1       4.117  28.380  56.098  1.00  0.00    -0.266 OA
HETATM    4  H   UNL     1       6.648  29.690  54.743  1.00  0.00     0.163 HD
ENDROOT
BRANCH   2   5
HETATM    5  C   UNL     1       5.343  28.443  53.570  1.00  0.00     0.163 C 
BRANCH   5   6
HETATM    6  C   UNL     1       5.974  27.107  53.324  1.00  0.00    -0.023 A 
HETATM    7  C   UNL     1       7.343  26.989  53.108  1.00  0.00     0.128 A 
HETATM    8  N   UNL     1       7.983  25.815  52.901  1.00  0.00    -0.236 NA
HETATM    9  C   UNL     1       7.223  24.701  52.912  1.00  0.00     0.164 A 
HETATM   10  C   UNL     1       5.854  24.709  53.123  1.00  0.00     0.059 A 
HETATM   11  C   UNL     1       5.224  25.930  53.342  1.00  0.00     0.014 A 
BRANCH   9  12
HETATM   12  O   UNL     1       7.798  23.466  52.692  1.00  0.00    -0.329 OA
BRANCH  12  13
HETATM   13  C   UNL     1       7.614  22.530  53.748  1.00  0.00     0.130 C 
HETATM   14  C   UNL     1       7.967  21.136  53.233  1.00  0.00     0.032 C 
HETATM   15  C   UNL     1       8.191  20.345  54.509  1.00  0.00     0.002 C 
HETATM   16  C   UNL     1       8.894  21.322  55.444  1.00  0.00     0.002 C 
HETATM   17  C   UNL     1       8.608  22.722  54.897  1.00  0.00     0.032 C 
ENDBRANCH  12  13
ENDBRANCH   9  12
ENDBRANCH   5   6
ENDBRANCH   2   5
BRANCH   1  18
HETATM   18  C   UNL     1       5.761  29.846  57.007  1.00  0.00     0.157 A 
HETATM   19  C   UNL     1       7.150  29.995  57.298  1.00  0.00     0.029 A 
HETATM   20  C   UNL     1       8.358  29.496  56.769  1.00  0.00     0.023 A 
HETATM   21  C   UNL     1       7.201  30.860  58.383  1.00  0.00     0.063 A 
HETATM   22  C   UNL     1       9.579  29.884  57.346  1.00  0.00    -0.061 A 
HETATM   23  C   UNL     1      10.877  29.362  56.803  1.00  0.00     0.048 C 
HETATM   24  C   UNL     1       9.584  30.756  58.442  1.00  0.00     0.009 A 
HETATM   25  C   UNL     1       8.397  31.263  58.984  1.00  0.00     0.032 A 
HETATM   26  N   UNL     1       5.898  31.165  58.663  1.00  0.00    -0.277 N 
HETATM   27  H   UNL     1       5.557  31.775  59.397  1.00  0.00     0.189 HD
HETATM   28  N   UNL     1       5.001  30.571  57.857  1.00  0.00    -0.168 NA
ENDBRANCH   1  18
TORSDOF 5
ENDMDL
MODEL 7
REMARK VINA RESULT:      -9.0      2.184      2.875
REMARK  5 active torsions:
REMARK  status: ('A' for Active; 'I' for Inactive)
REMARK    1  A    between atoms: C_9  and  C_10 
REMARK       I    between atoms: C_10  and  N_11 
REMARK    2  A    between atoms: N_11  and  C_12 
REMARK    3  A    between atoms: C_12  and  C_13 
REMARK    4  A    between atoms: C_16  and  O_17 
REMARK    5  A    between atoms: O_17  and  C_18 
ROOT
HETATM    1  C   UNL     1       5.227  26.501  55.471  1.00  0.00     0.273 C 
HETATM    2  N   UNL     1       4.688  27.732  55.172  1.00  0.00    -0.351 N 
HETATM    3  O   UNL     1       5.056  25.939  56.548  1.00  0.00    -0.266 OA
HETATM    4  H   UNL     1       4.972  28.131  54.280  1.00  0.00     0.163 HD
ENDROOT
BRANCH   2   5
HETATM    5  C   UNL     1       3.995  28.512  56.160  1.00  0.00     0.163 C 
BRANCH   5   6
HETATM    6  C   UNL     1       4.922  29.453  56.865  1.00  0.00    -0.023 A 
HETATM    7  C   UNL     1       4.431  30.516  57.616  1.00  0.00     0.128 A 
HETATM    8  N   UNL     1       5.207  31.392  58.295  1.00  0.00    -0.236 NA
HETATM    9  C   UNL     1       6.540  31.200  58.226  1.00  0.00     0.164 A 
HETATM   10  C   UNL     1       7.131  30.171  57.511  1.00  0.00     0.059 A 
HETATM   11  C   UNL     1       6.307  29.279  56.829  1.00  0.00     0.014 A 
BRANCH   9  12
HETATM   12  O   UNL     1       7.400  32.060  58.877  1.00  0.00    -0.329 OA
BRANCH  12  13
HETATM   13  C   UNL     1       8.001  31.522  60.050  1.00  0.00     0.130 C 
HETATM   14  C   UNL     1       9.422  32.069  60.167  1.00  0.00     0.032 C 
HETATM   15  C   UNL     1       9.764  31.827  61.625  1.00  0.00     0.002 C 
HETATM   16  C   UNL     1       8.468  32.118  62.374  1.00  0.00     0.002 C 
HETATM   17  C   UNL     1       7.345  32.022  61.340  1.00  0.00     0.032 C 
ENDBRANCH  12  13
ENDBRANCH   9  12
ENDBRANCH   5   6
ENDBRANCH   2   5
BRANCH   1  18
HETATM   18  C   UNL     1       6.039  25.943  54.377  1.00  0.00     0.157 A 
HETATM   19  C   UNL     1       6.712  24.686  54.352  1.00  0.00     0.029 A 
HETATM   20  C   UNL     1       6.857  23.594  55.232  1.00  0.00     0.023 A 
HETATM   21  C   UNL     1       7.342  24.637  53.116  1.00  0.00     0.063 A 
HETATM   22  C   UNL     1       7.631  22.488  54.841  1.00  0.00    -0.061 A 
HETATM   23  C   UNL     1       7.803  21.315  55.763  1.00  0.00     0.048 C 
HETATM   24  C   UNL     1       8.252  22.482  53.585  1.00  0.00     0.009 A 
HETATM   25  C   UNL     1       8.121  23.556  52.696  1.00  0.00     0.032 A 
HETATM   26  N   UNL     1       7.022  25.816  52.501  1.00  0.00    -0.277 N 
HETATM   27  H   UNL     1       7.310  26.124  51.579  1.00  0.00     0.189 HD
HETATM   28  N   UNL     1       6.240  26.631  53.231  1.00  0.00    -0.168 NA
ENDBRANCH   1  18
TORSDOF 5
ENDMDL
MODEL 8
REMARK VINA RESULT:      -8.9      2.534      9.841
REMARK  5 active torsions:
REMARK  status: ('A' for Active; 'I' for Inactive)
REMARK    1  A    between atoms: C_9  and  C_10 
REMARK       I    between atoms: C_10  and  N_11 
REMARK    2  A    between atoms: N_11  and  C_12 
REMARK    3  A    between atoms: C_12  and  C_13 
REMARK    4  A    between atoms: C_16  and  O_17 
REMARK    5  A    between atoms: O_17  and  C_18 
ROOT
HETATM    1  C   UNL     1       3.930  32.012  60.154  1.00  0.00     0.273 C 
HETATM    2  N   UNL     1       4.881  31.357  59.403  1.00  0.00    -0.351 N 
HETATM    3  O   UNL     1       2.808  32.272  59.733  1.00  0.00    -0.266 OA
HETATM    4  H   UNL     1       5.800  31.277  59.831  1.00  0.00     0.163 HD
ENDROOT
BRANCH   2   5
HETATM    5  C   UNL     1       4.667  31.053  58.015  1.00  0.00     0.163 C 
BRANCH   5   6
HETATM    6  C   UNL     1       5.505  29.893  57.572  1.00  0.00    -0.023 A 
HETATM    7  C   UNL     1       4.978  28.896  56.758  1.00  0.00     0.128 A 
HETATM    8  N   UNL     1       5.680  27.833  56.303  1.00  0.00    -0.236 NA
HETATM    9  C   UNL     1       6.974  27.758  56.676  1.00  0.00     0.164 A 
HETATM   10  C   UNL     1       7.596  28.699  57.479  1.00  0.00     0.059 A 
HETATM   11  C   UNL     1       6.852  29.787  57.925  1.00  0.00     0.014 A 
BRANCH   9  12
HETATM   12  O   UNL     1       7.753  26.696  56.267  1.00  0.00    -0.329 OA
BRANCH  12  13
HETATM   13  C   UNL     1       7.024  25.594  55.740  1.00  0.00     0.130 C 
HETATM   14  C   UNL     1       7.478  25.349  54.302  1.00  0.00     0.032 C 
HETATM   15  C   UNL     1       7.012  23.930  54.032  1.00  0.00     0.002 C 
HETATM   16  C   UNL     1       7.254  23.192  55.344  1.00  0.00     0.002 C 
HETATM   17  C   UNL     1       7.363  24.268  56.426  1.00  0.00     0.032 C 
ENDBRANCH  12  13
ENDBRANCH   9  12
ENDBRANCH   5   6
ENDBRANCH   2   5
BRANCH   1  18
HETATM   18  C   UNL     1       4.406  32.380  61.497  1.00  0.00     0.157 A 
HETATM   19  C   UNL     1       5.753  32.388  61.966  1.00  0.00     0.029 A 
HETATM   20  C   UNL     1       7.021  32.099  61.421  1.00  0.00     0.023 A 
HETATM   21  C   UNL     1       5.672  32.792  63.292  1.00  0.00     0.063 A 
HETATM   22  C   UNL     1       8.166  32.227  62.225  1.00  0.00    -0.061 A 
HETATM   23  C   UNL     1       9.526  31.920  61.667  1.00  0.00     0.048 C 
HETATM   24  C   UNL     1       8.037  32.634  63.559  1.00  0.00     0.009 A 
HETATM   25  C   UNL     1       6.789  32.926  64.121  1.00  0.00     0.032 A 
HETATM   26  N   UNL     1       4.340  32.994  63.527  1.00  0.00    -0.277 N 
HETATM   27  H   UNL     1       3.910  33.296  64.393  1.00  0.00     0.189 HD
HETATM   28  N   UNL     1       3.545  32.753  62.469  1.00  0.00    -0.168 NA
ENDBRANCH   1  18
TORSDOF 5
ENDMDL
MODEL 9
REMARK VINA RESULT:      -8.8      4.883      8.330
REMARK  5 active torsions:
REMARK  status: ('A' for Active; 'I' for Inactive)
REMARK    1  A    between atoms: C_9  and  C_10 
REMARK       I    between atoms: C_10  and  N_11 
REMARK    2  A    between atoms: N_11  and  C_12 
REMARK    3  A    between atoms: C_12  and  C_13 
REMARK    4  A    between atoms: C_16  and  O_17 
REMARK    5  A    between atoms: O_17  and  C_18 
ROOT
HETATM    1  C   UNL     1       6.451  27.555  56.371  1.00  0.00     0.273 C 
HETATM    2  N   UNL     1       5.329  27.263  55.629  1.00  0.00    -0.351 N 
HETATM    3  O   UNL     1       6.772  28.700  56.676  1.00  0.00    -0.266 OA
HETATM    4  H   UNL     1       5.217  26.286  55.367  1.00  0.00     0.163 HD
ENDROOT
BRANCH   2   5
HETATM    5  C   UNL     1       4.523  28.298  55.040  1.00  0.00     0.163 C 
BRANCH   5   6
HETATM    6  C   UNL     1       4.489  28.183  53.548  1.00  0.00    -0.023 A 
HETATM    7  C   UNL     1       3.451  28.744  52.809  1.00  0.00     0.128 A 
HETATM    8  N   UNL     1       3.366  28.698  51.460  1.00  0.00    -0.236 NA
HETATM    9  C   UNL     1       4.364  28.065  50.811  1.00  0.00     0.164 A 
HETATM   10  C   UNL     1       5.444  27.478  51.451  1.00  0.00     0.059 A 
HETATM   11  C   UNL     1       5.510  27.548  52.839  1.00  0.00     0.014 A 
BRANCH   9  12
HETATM   12  O   UNL     1       4.342  27.960  49.435  1.00  0.00    -0.329 OA
BRANCH  12  13
HETATM   13  C   UNL     1       3.268  27.183  48.917  1.00  0.00     0.130 C 
HETATM   14  C   UNL     1       2.647  27.931  47.738  1.00  0.00     0.032 C 
HETATM   15  C   UNL     1       1.881  26.843  47.008  1.00  0.00     0.002 C 
HETATM   16  C   UNL     1       2.774  25.612  47.111  1.00  0.00     0.002 C 
HETATM   17  C   UNL     1       3.733  25.874  48.274  1.00  0.00     0.032 C 
ENDBRANCH  12  13
ENDBRANCH   9  12
ENDBRANCH   5   6
ENDBRANCH   2   5
BRANCH   1  18
HETATM   18  C   UNL     1       7.229  26.361  56.739  1.00  0.00     0.157 A 
HETATM   19  C   UNL     1       7.621  25.287  55.887  1.00  0.00     0.029 A 
HETATM   20  C   UNL     1       7.463  24.961  54.524  1.00  0.00     0.023 A 
HETATM   21  C   UNL     1       8.318  24.410  56.708  1.00  0.00     0.063 A 
HETATM   22  C   UNL     1       8.012  23.766  54.030  1.00  0.00    -0.061 A 
HETATM   23  C   UNL     1       7.854  23.396  52.583  1.00  0.00     0.048 C 
HETATM   24  C   UNL     1       8.705  22.908  54.895  1.00  0.00     0.009 A 
HETATM   25  C   UNL     1       8.873  23.211  56.251  1.00  0.00     0.032 A 
HETATM   26  N   UNL     1       8.303  24.987  57.947  1.00  0.00    -0.277 N 
HETATM   27  H   UNL     1       8.719  24.623  58.797  1.00  0.00     0.189 HD
HETATM   28  N   UNL     1       7.653  26.163  58.007  1.00  0.00    -0.168 NA
ENDBRANCH   1  18
TORSDOF 5
ENDMDL
MODEL 10
REMARK VINA RESULT:      -8.6      4.811      8.954
REMARK  5 active torsions:
REMARK  status: ('A' for Active; 'I' for Inactive)
REMARK    1  A    between atoms: C_9  and  C_10 
REMARK       I    between atoms: C_10  and  N_11 
REMARK    2  A    between atoms: N_11  and  C_12 
REMARK    3  A    between atoms: C_12  and  C_13 
REMARK    4  A    between atoms: C_16  and  O_17 
REMARK    5  A    between atoms: O_17  and  C_18 
ROOT
HETATM    1  C   UNL     1       4.637  28.592  52.520  1.00  0.00     0.273 C 
HETATM    2  N   UNL     1       5.666  28.742  53.421  1.00  0.00    -0.351 N 
HETATM    3  O   UNL     1       3.501  28.266  52.849  1.00  0.00    -0.266 OA
HETATM    4  H   UNL     1       6.581  28.931  53.017  1.00  0.00     0.163 HD
ENDROOT
BRANCH   2   5
HETATM    5  C   UNL     1       5.513  28.392  54.806  1.00  0.00     0.163 C 
BRANCH   5   6
HETATM    6  C   UNL     1       6.181  27.089  55.120  1.00  0.00    -0.023 A 
HETATM    7  C   UNL     1       5.855  26.372  56.266  1.00  0.00     0.128 A 
HETATM    8  N   UNL     1       6.401  25.181  56.602  1.00  0.00    -0.236 NA
HETATM    9  C   UNL     1       7.318  24.675  55.752  1.00  0.00     0.164 A 
HETATM   10  C   UNL     1       7.710  25.305  54.583  1.00  0.00     0.059 A 
HETATM   11  C   UNL     1       7.125  26.525  54.258  1.00  0.00     0.014 A 
BRANCH   9  12
HETATM   12  O   UNL     1       7.933  23.472  56.031  1.00  0.00    -0.329 OA
BRANCH  12  13
HETATM   13  C   UNL     1       7.636  22.427  55.112  1.00  0.00     0.130 C 
HETATM   14  C   UNL     1       8.733  22.383  54.050  1.00  0.00     0.032 C 
HETATM   15  C   UNL     1       8.574  20.998  53.449  1.00  0.00     0.002 C 
HETATM   16  C   UNL     1       8.233  20.104  54.637  1.00  0.00     0.002 C 
HETATM   17  C   UNL     1       7.726  21.034  55.741  1.00  0.00     0.032 C 
ENDBRANCH  12  13
ENDBRANCH   9  12
ENDBRANCH   5   6
ENDBRANCH   2   5
BRANCH   1  18
HETATM   18  C   UNL     1       5.045  28.843  51.128  1.00  0.00     0.157 A 
HETATM   19  C   UNL     1       4.773  28.032  49.987  1.00  0.00     0.029 A 
HETATM   20  C   UNL     1       4.089  26.824  49.738  1.00  0.00     0.023 A 
HETATM   21  C   UNL     1       5.380  28.688  48.924  1.00  0.00     0.063 A 
HETATM   22  C   UNL     1       4.035  26.316  48.429  1.00  0.00    -0.061 A 
HETATM   23  C   UNL     1       3.316  25.030  48.140  1.00  0.00     0.048 C 
HETATM   24  C   UNL     1       4.664  27.010  47.387  1.00  0.00     0.009 A 
HETATM   25  C   UNL     1       5.349  28.210  47.611  1.00  0.00     0.032 A 
HETATM   26  N   UNL     1       5.951  29.805  49.468  1.00  0.00    -0.277 N 
HETATM   27  H   UNL     1       6.480  30.521  48.983  1.00  0.00     0.189 HD
HETATM   28  N   UNL     1       5.774  29.931  50.795  1.00  0.00    -0.168 NA
ENDBRANCH   1  18
TORSDOF 5
ENDMDL
