MODEL 1
REMARK VINA RESULT:     -12.4      0.000      0.000
REMARK  4 active torsions:
REMARK  status: ('A' for Active; 'I' for Inactive)
REMARK    1  A    between atoms: C_2  and  N_3 
REMARK    2  A    between atoms: C_7  and  N_8 
REMARK       I    between atoms: N_8  and  C_9 
REMARK    3  A    between atoms: C_9  and  C_10 
REMARK    4  A    between atoms: C_10  and  N_11 
ROOT
HETATM    1  N   UNL     1       7.266  30.858  57.871  1.00  0.00    -0.326 N 
HETATM    2  C   UNL     1       6.799  29.687  57.307  1.00  0.00     0.242 C 
HETATM    3  O   UNL     1       5.712  29.160  57.535  1.00  0.00    -0.271 OA
HETATM    4  H   UNL     1       8.203  31.125  57.572  1.00  0.00     0.169 HD
ENDROOT
BRANCH   2   5
HETATM    5  C   UNL     1       7.824  28.954  56.438  1.00  0.00     0.257 C 
BRANCH   5   6
HETATM    6  N   UNL     1       7.546  27.561  56.085  1.00  0.00    -0.224 N 
HETATM    7  N   UNL     1       7.327  27.282  54.716  1.00  0.00    -0.180 NA
HETATM    8  C   UNL     1       7.341  26.045  54.299  1.00  0.00     0.153 A 
HETATM    9  C   UNL     1       7.589  24.961  55.205  1.00  0.00     0.028 A 
HETATM   10  C   UNL     1       7.765  25.243  56.535  1.00  0.00     0.116 A 
HETATM   11  C   UNL     1       7.756  23.563  55.027  1.00  0.00     0.005 A 
HETATM   12  N   UNL     1       8.005  24.072  57.195  1.00  0.00    -0.350 N 
HETATM   13  C   UNL     1       7.752  26.571  57.072  1.00  0.00     0.291 A 
HETATM   14  H   UNL     1       8.188  23.995  58.188  1.00  0.00     0.166 HD
HETATM   15  C   UNL     1       8.033  23.030  56.291  1.00  0.00     0.044 A 
HETATM   16  C   UNL     1       8.296  21.671  56.494  1.00  0.00     0.031 A 
HETATM   17  C   UNL     1       8.281  20.833  55.375  1.00  0.00     0.009 A 
HETATM   18  C   UNL     1       7.992  21.323  54.097  1.00  0.00    -0.061 A 
HETATM   19  C   UNL     1       8.024  20.405  52.909  1.00  0.00     0.048 C 
HETATM   20  C   UNL     1       7.736  22.693  53.917  1.00  0.00     0.021 A 
HETATM   21  O   UNL     1       7.949  26.798  58.260  1.00  0.00    -0.264 OA
ENDBRANCH   5   6
ENDBRANCH   2   5
BRANCH   1  22
HETATM   22  C   UNL     1       6.628  31.671  58.831  1.00  0.00     0.035 A 
HETATM   23  C   UNL     1       7.096  31.831  60.140  1.00  0.00     0.044 A 
HETATM   24  C   UNL     1       6.424  32.691  61.042  1.00  0.00     0.005 A 
HETATM   25  C   UNL     1       5.280  33.362  60.613  1.00  0.00     0.046 A 
HETATM   26  C   UNL     1       6.668  33.068  62.399  1.00  0.00     0.003 A 
HETATM   27  N   UNL     1       4.832  34.113  61.683  1.00  0.00    -0.346 N 
HETATM   28  C   UNL     1       4.786  33.207  59.307  1.00  0.00     0.033 A 
HETATM   29  C   UNL     1       5.661  33.956  62.779  1.00  0.00     0.046 A 
HETATM   30  C   UNL     1       5.612  34.511  64.069  1.00  0.00     0.030 A 
HETATM   31  C   UNL     1       6.613  34.159  64.980  1.00  0.00     0.002 A 
HETATM   32  C   UNL     1       7.629  33.282  64.620  1.00  0.00     0.001 A 
HETATM   33  C   UNL     1       7.667  32.729  63.337  1.00  0.00     0.014 A 
HETATM   34  C   UNL     1       5.483  32.362  58.431  1.00  0.00     0.032 A 
BRANCH  27  35
HETATM   35  C   UNL     1       3.652  34.965  61.663  1.00  0.00     0.125 C 
HETATM   36  C   UNL     1       2.438  34.277  62.263  1.00  0.00     0.027 C 
ENDBRANCH  27  35
ENDBRANCH   1  22
TORSDOF 4
ENDMDL
MODEL 2
REMARK VINA RESULT:     -11.8      1.663     11.489
REMARK  4 active torsions:
REMARK  status: ('A' for Active; 'I' for Inactive)
REMARK    1  A    between atoms: C_2  and  N_3 
REMARK    2  A    between atoms: C_7  and  N_8 
REMARK       I    between atoms: N_8  and  C_9 
REMARK    3  A    between atoms: C_9  and  C_10 
REMARK    4  A    between atoms: C_10  and  N_11 
ROOT
HETATM    1  N   UNL     1       8.491  28.625  57.572  1.00  0.00    -0.326 N 
HETATM    2  C   UNL     1       7.643  29.611  58.035  1.00  0.00     0.242 C 
HETATM    3  O   UNL     1       6.440  29.700  57.793  1.00  0.00    -0.271 OA
HETATM    4  H   UNL     1       9.461  28.735  57.863  1.00  0.00     0.169 HD
ENDROOT
BRANCH   2   5
HETATM    5  C   UNL     1       8.343  30.742  58.791  1.00  0.00     0.257 C 
BRANCH   5   6
HETATM    6  N   UNL     1       7.765  31.170  60.066  1.00  0.00    -0.224 N 
HETATM    7  N   UNL     1       8.352  30.644  61.241  1.00  0.00    -0.180 NA
HETATM    8  C   UNL     1       8.072  31.178  62.397  1.00  0.00     0.153 A 
HETATM    9  C   UNL     1       7.186  32.301  62.499  1.00  0.00     0.028 A 
HETATM   10  C   UNL     1       6.596  32.779  61.358  1.00  0.00     0.116 A 
HETATM   11  C   UNL     1       6.783  33.128  63.581  1.00  0.00     0.005 A 
HETATM   12  N   UNL     1       5.819  33.850  61.691  1.00  0.00    -0.350 N 
HETATM   13  C   UNL     1       6.843  32.240  60.053  1.00  0.00     0.291 A 
HETATM   14  H   UNL     1       5.284  34.404  61.033  1.00  0.00     0.166 HD
HETATM   15  C   UNL     1       5.937  34.104  63.042  1.00  0.00     0.044 A 
HETATM   16  C   UNL     1       5.376  35.125  63.817  1.00  0.00     0.031 A 
HETATM   17  C   UNL     1       5.691  35.154  65.179  1.00  0.00     0.009 A 
HETATM   18  C   UNL     1       6.519  34.187  65.759  1.00  0.00    -0.061 A 
HETATM   19  C   UNL     1       6.873  34.268  67.217  1.00  0.00     0.048 C 
HETATM   20  C   UNL     1       7.075  33.174  64.959  1.00  0.00     0.021 A 
HETATM   21  O   UNL     1       6.331  32.710  59.044  1.00  0.00    -0.264 OA
ENDBRANCH   5   6
ENDBRANCH   2   5
BRANCH   1  22
HETATM   22  C   UNL     1       8.181  27.545  56.719  1.00  0.00     0.035 A 
HETATM   23  C   UNL     1       8.353  26.204  57.078  1.00  0.00     0.044 A 
HETATM   24  C   UNL     1       7.989  25.169  56.184  1.00  0.00     0.005 A 
HETATM   25  C   UNL     1       7.472  25.506  54.934  1.00  0.00     0.046 A 
HETATM   26  C   UNL     1       8.022  23.743  56.272  1.00  0.00     0.003 A 
HETATM   27  N   UNL     1       7.215  24.319  54.274  1.00  0.00    -0.346 N 
HETATM   28  C   UNL     1       7.301  26.845  54.547  1.00  0.00     0.033 A 
HETATM   29  C   UNL     1       7.536  23.232  55.068  1.00  0.00     0.046 A 
HETATM   30  C   UNL     1       7.447  21.850  54.833  1.00  0.00     0.030 A 
HETATM   31  C   UNL     1       7.852  20.978  55.849  1.00  0.00     0.002 A 
HETATM   32  C   UNL     1       8.333  21.465  57.058  1.00  0.00     0.001 A 
HETATM   33  C   UNL     1       8.426  22.842  57.282  1.00  0.00     0.014 A 
HETATM   34  C   UNL     1       7.655  27.849  55.461  1.00  0.00     0.032 A 
BRANCH  27  35
HETATM   35  C   UNL     1       6.670  24.218  52.928  1.00  0.00     0.125 C 
HETATM   36  C   UNL     1       7.679  24.625  51.869  1.00  0.00     0.027 C 
ENDBRANCH  27  35
ENDBRANCH   1  22
TORSDOF 4
ENDMDL
MODEL 3
REMARK VINA RESULT:     -11.7      2.000      2.960
REMARK  4 active torsions:
REMARK  status: ('A' for Active; 'I' for Inactive)
REMARK    1  A    between atoms: C_2  and  N_3 
REMARK    2  A    between atoms: C_7  and  N_8 
REMARK       I    between atoms: N_8  and  C_9 
REMARK    3  A    between atoms: C_9  and  C_10 
REMARK    4  A    between atoms: C_10  and  N_11 
ROOT
HETATM    1  N   UNL     1       5.988  30.053  55.442  1.00  0.00    -0.326 N 
HETATM    2  C   UNL     1       5.057  29.185  54.907  1.00  0.00     0.242 C 
HETATM    3  O   UNL     1       3.965  28.905  55.398  1.00  0.00    -0.271 OA
HETATM    4  H   UNL     1       6.845  30.138  54.897  1.00  0.00     0.169 HD
ENDROOT
BRANCH   2   5
HETATM    5  C   UNL     1       5.541  28.427  53.668  1.00  0.00     0.257 C 
BRANCH   5   6
HETATM    6  N   UNL     1       6.376  27.243  53.875  1.00  0.00    -0.224 N 
HETATM    7  N   UNL     1       6.795  26.983  55.201  1.00  0.00    -0.180 NA
HETATM    8  C   UNL     1       7.306  25.821  55.501  1.00  0.00     0.153 A 
HETATM    9  C   UNL     1       7.439  24.793  54.509  1.00  0.00     0.028 A 
HETATM   10  C   UNL     1       7.063  25.069  53.221  1.00  0.00     0.116 A 
HETATM   11  C   UNL     1       7.857  23.438  54.563  1.00  0.00     0.005 A 
HETATM   12  N   UNL     1       7.257  23.950  52.465  1.00  0.00    -0.350 N 
HETATM   13  C   UNL     1       6.504  26.324  52.810  1.00  0.00     0.291 A 
HETATM   14  H   UNL     1       7.043  23.873  51.479  1.00  0.00     0.166 HD
HETATM   15  C   UNL     1       7.717  22.926  53.268  1.00  0.00     0.044 A 
HETATM   16  C   UNL     1       8.000  21.593  52.950  1.00  0.00     0.031 A 
HETATM   17  C   UNL     1       8.435  20.758  53.984  1.00  0.00     0.009 A 
HETATM   18  C   UNL     1       8.604  21.235  55.288  1.00  0.00    -0.061 A 
HETATM   19  C   UNL     1       9.032  20.303  56.386  1.00  0.00     0.048 C 
HETATM   20  C   UNL     1       8.308  22.576  55.584  1.00  0.00     0.021 A 
HETATM   21  O   UNL     1       6.141  26.532  51.659  1.00  0.00    -0.264 OA
ENDBRANCH   5   6
ENDBRANCH   2   5
BRANCH   1  22
HETATM   22  C   UNL     1       5.907  30.771  56.653  1.00  0.00     0.035 A 
HETATM   23  C   UNL     1       6.823  30.622  57.700  1.00  0.00     0.044 A 
HETATM   24  C   UNL     1       6.701  31.400  58.876  1.00  0.00     0.005 A 
HETATM   25  C   UNL     1       5.646  32.304  58.983  1.00  0.00     0.046 A 
HETATM   26  C   UNL     1       7.474  31.489  60.075  1.00  0.00     0.003 A 
HETATM   27  N   UNL     1       5.763  32.914  60.218  1.00  0.00    -0.346 N 
HETATM   28  C   UNL     1       4.708  32.462  57.949  1.00  0.00     0.033 A 
HETATM   29  C   UNL     1       6.870  32.439  60.900  1.00  0.00     0.046 A 
HETATM   30  C   UNL     1       7.388  32.757  62.166  1.00  0.00     0.030 A 
HETATM   31  C   UNL     1       8.548  32.100  62.591  1.00  0.00     0.002 A 
HETATM   32  C   UNL     1       9.170  31.154  61.784  1.00  0.00     0.001 A 
HETATM   33  C   UNL     1       8.643  30.839  60.527  1.00  0.00     0.014 A 
HETATM   34  C   UNL     1       4.865  31.689  56.789  1.00  0.00     0.032 A 
BRANCH  27  35
HETATM   35  C   UNL     1       4.855  33.926  60.735  1.00  0.00     0.125 C 
HETATM   36  C   UNL     1       3.729  33.321  61.555  1.00  0.00     0.027 C 
ENDBRANCH  27  35
ENDBRANCH   1  22
TORSDOF 4
ENDMDL
MODEL 4
REMARK VINA RESULT:     -11.4      1.911     10.833
REMARK  4 active torsions:
REMARK  status: ('A' for Active; 'I' for Inactive)
REMARK    1  A    between atoms: C_2  and  N_3 
REMARK    2  A    between atoms: C_7  and  N_8 
REMARK       I    between atoms: N_8  and  C_9 
REMARK    3  A    between atoms: C_9  and  C_10 
REMARK    4  A    between atoms: C_10  and  N_11 
ROOT
HETATM    1  N   UNL     1       7.942  28.916  58.120  1.00  0.00    -0.326 N 
HETATM    2  C   UNL     1       8.942  29.867  58.175  1.00  0.00     0.242 C 
HETATM    3  O   UNL     1       9.807  30.054  57.321  1.00  0.00    -0.271 OA
HETATM    4  H   UNL     1       7.331  28.901  58.935  1.00  0.00     0.169 HD
ENDROOT
BRANCH   2   5
HETATM    5  C   UNL     1       9.013  30.631  59.499  1.00  0.00     0.257 C 
BRANCH   5   6
HETATM    6  N   UNL     1       7.929  31.566  59.806  1.00  0.00    -0.224 N 
HETATM    7  N   UNL     1       7.055  31.899  58.745  1.00  0.00    -0.180 NA
HETATM    8  C   UNL     1       5.928  32.502  59.003  1.00  0.00     0.153 A 
HETATM    9  C   UNL     1       5.551  32.823  60.349  1.00  0.00     0.028 A 
HETATM   10  C   UNL     1       6.422  32.527  61.365  1.00  0.00     0.116 A 
HETATM   11  C   UNL     1       4.376  33.375  60.925  1.00  0.00     0.005 A 
HETATM   12  N   UNL     1       5.850  32.899  62.546  1.00  0.00    -0.350 N 
HETATM   13  C   UNL     1       7.683  31.876  61.162  1.00  0.00     0.291 A 
HETATM   14  H   UNL     1       6.272  32.776  63.458  1.00  0.00     0.166 HD
HETATM   15  C   UNL     1       4.584  33.395  62.309  1.00  0.00     0.044 A 
HETATM   16  C   UNL     1       3.611  33.842  63.210  1.00  0.00     0.031 A 
HETATM   17  C   UNL     1       2.390  34.275  62.684  1.00  0.00     0.009 A 
HETATM   18  C   UNL     1       2.149  34.285  61.306  1.00  0.00    -0.061 A 
HETATM   19  C   UNL     1       0.812  34.717  60.774  1.00  0.00     0.048 C 
HETATM   20  C   UNL     1       3.140  33.827  60.421  1.00  0.00     0.021 A 
HETATM   21  O   UNL     1       8.427  31.589  62.092  1.00  0.00    -0.264 OA
ENDBRANCH   5   6
ENDBRANCH   2   5
BRANCH   1  22
HETATM   22  C   UNL     1       7.716  27.954  57.114  1.00  0.00     0.035 A 
HETATM   23  C   UNL     1       8.016  26.596  57.264  1.00  0.00     0.044 A 
HETATM   24  C   UNL     1       7.732  25.678  56.224  1.00  0.00     0.005 A 
HETATM   25  C   UNL     1       7.164  26.150  55.042  1.00  0.00     0.046 A 
HETATM   26  C   UNL     1       7.897  24.264  56.094  1.00  0.00     0.003 A 
HETATM   27  N   UNL     1       7.003  25.058  54.210  1.00  0.00    -0.346 N 
HETATM   28  C   UNL     1       6.864  27.511  54.865  1.00  0.00     0.033 A 
HETATM   29  C   UNL     1       7.437  23.899  54.829  1.00  0.00     0.046 A 
HETATM   30  C   UNL     1       7.469  22.565  54.386  1.00  0.00     0.030 A 
HETATM   31  C   UNL     1       7.971  21.591  55.256  1.00  0.00     0.002 A 
HETATM   32  C   UNL     1       8.429  21.933  56.523  1.00  0.00     0.001 A 
HETATM   33  C   UNL     1       8.399  23.262  56.953  1.00  0.00     0.014 A 
HETATM   34  C   UNL     1       7.142  28.393  55.919  1.00  0.00     0.032 A 
BRANCH  27  35
HETATM   35  C   UNL     1       6.445  25.111  52.868  1.00  0.00     0.125 C 
HETATM   36  C   UNL     1       4.935  24.952  52.869  1.00  0.00     0.027 C 
ENDBRANCH  27  35
ENDBRANCH   1  22
TORSDOF 4
ENDMDL
MODEL 5
REMARK VINA RESULT:     -11.1      1.823      3.348
REMARK  4 active torsions:
REMARK  status: ('A' for Active; 'I' for Inactive)
REMARK    1  A    between atoms: C_2  and  N_3 
REMARK    2  A    between atoms: C_7  and  N_8 
REMARK       I    between atoms: N_8  and  C_9 
REMARK    3  A    between atoms: C_9  and  C_10 
REMARK    4  A    between atoms: C_10  and  N_11 
ROOT
HETATM    1  N   UNL     1       6.778  29.744  56.275  1.00  0.00    -0.326 N 
HETATM    2  C   UNL     1       5.587  29.279  55.754  1.00  0.00     0.242 C 
HETATM    3  O   UNL     1       4.485  29.353  56.297  1.00  0.00    -0.271 OA
HETATM    4  H   UNL     1       7.591  29.571  55.685  1.00  0.00     0.169 HD
ENDROOT
BRANCH   2   5
HETATM    5  C   UNL     1       5.734  28.487  54.453  1.00  0.00     0.257 C 
BRANCH   5   6
HETATM    6  N   UNL     1       6.488  27.233  54.500  1.00  0.00    -0.224 N 
HETATM    7  N   UNL     1       6.852  26.755  55.780  1.00  0.00    -0.180 NA
HETATM    8  C   UNL     1       7.281  25.531  55.914  1.00  0.00     0.153 A 
HETATM    9  C   UNL     1       7.380  24.653  54.784  1.00  0.00     0.028 A 
HETATM   10  C   UNL     1       7.059  25.139  53.544  1.00  0.00     0.116 A 
HETATM   11  C   UNL     1       7.712  23.280  54.645  1.00  0.00     0.005 A 
HETATM   12  N   UNL     1       7.206  24.132  52.634  1.00  0.00    -0.350 N 
HETATM   13  C   UNL     1       6.591  26.474  53.313  1.00  0.00     0.291 A 
HETATM   14  H   UNL     1       7.016  24.215  51.643  1.00  0.00     0.166 HD
HETATM   15  C   UNL     1       7.578  22.974  53.286  1.00  0.00     0.044 A 
HETATM   16  C   UNL     1       7.789  21.687  52.780  1.00  0.00     0.031 A 
HETATM   17  C   UNL     1       8.141  20.682  53.686  1.00  0.00     0.009 A 
HETATM   18  C   UNL     1       8.301  20.951  55.050  1.00  0.00    -0.061 A 
HETATM   19  C   UNL     1       8.639  19.842  56.006  1.00  0.00     0.048 C 
HETATM   20  C   UNL     1       8.079  22.251  55.536  1.00  0.00     0.021 A 
HETATM   21  O   UNL     1       6.275  26.872  52.198  1.00  0.00    -0.264 OA
ENDBRANCH   5   6
ENDBRANCH   2   5
BRANCH   1  22
HETATM   22  C   UNL     1       6.995  30.365  57.523  1.00  0.00     0.035 A 
HETATM   23  C   UNL     1       6.177  31.379  58.032  1.00  0.00     0.044 A 
HETATM   24  C   UNL     1       6.434  31.935  59.309  1.00  0.00     0.005 A 
HETATM   25  C   UNL     1       7.523  31.468  60.043  1.00  0.00     0.046 A 
HETATM   26  C   UNL     1       5.780  32.939  60.088  1.00  0.00     0.003 A 
HETATM   27  N   UNL     1       7.542  32.180  61.228  1.00  0.00    -0.346 N 
HETATM   28  C   UNL     1       8.364  30.459  59.547  1.00  0.00     0.033 A 
HETATM   29  C   UNL     1       6.490  33.077  61.282  1.00  0.00     0.046 A 
HETATM   30  C   UNL     1       6.103  33.998  62.270  1.00  0.00     0.030 A 
HETATM   31  C   UNL     1       4.968  34.782  62.037  1.00  0.00     0.002 A 
HETATM   32  C   UNL     1       4.244  34.657  60.858  1.00  0.00     0.001 A 
HETATM   33  C   UNL     1       4.639  33.743  59.876  1.00  0.00     0.014 A 
HETATM   34  C   UNL     1       8.074  29.916  58.286  1.00  0.00     0.032 A 
BRANCH  27  35
HETATM   35  C   UNL     1       8.526  32.007  62.286  1.00  0.00     0.125 C 
HETATM   36  C   UNL     1       8.619  30.565  62.752  1.00  0.00     0.027 C 
ENDBRANCH  27  35
ENDBRANCH   1  22
TORSDOF 4
ENDMDL
MODEL 6
REMARK VINA RESULT:     -10.9      7.461     12.301
REMARK  4 active torsions:
REMARK  status: ('A' for Active; 'I' for Inactive)
REMARK    1  A    between atoms: C_2  and  N_3 
REMARK    2  A    between atoms: C_7  and  N_8 
REMARK       I    between atoms: N_8  and  C_9 
REMARK    3  A    between atoms: C_9  and  C_10 
REMARK    4  A    between atoms: C_10  and  N_11 
ROOT
HETATM    1  N   UNL     1       6.417  26.501  51.117  1.00  0.00    -0.326 N 
HETATM    2  C   UNL     1       5.296  27.275  50.892  1.00  0.00     0.242 C 
HETATM    3  O   UNL     1       4.390  27.482  51.698  1.00  0.00    -0.271 OA
HETATM    4  H   UNL     1       7.046  26.431  50.318  1.00  0.00     0.169 HD
ENDROOT
BRANCH   2   5
HETATM    5  C   UNL     1       5.153  27.776  49.453  1.00  0.00     0.257 C 
BRANCH   5   6
HETATM    6  N   UNL     1       3.805  28.066  48.963  1.00  0.00    -0.224 N 
HETATM    7  N   UNL     1       3.321  29.379  49.168  1.00  0.00    -0.180 NA
HETATM    8  C   UNL     1       2.255  29.781  48.531  1.00  0.00     0.153 A 
HETATM    9  C   UNL     1       1.570  28.917  47.614  1.00  0.00     0.028 A 
HETATM   10  C   UNL     1       2.028  27.635  47.452  1.00  0.00     0.116 A 
HETATM   11  C   UNL     1       0.474  29.106  46.732  1.00  0.00     0.005 A 
HETATM   12  N   UNL     1       1.243  27.011  46.526  1.00  0.00    -0.350 N 
HETATM   13  C   UNL     1       3.183  27.116  48.122  1.00  0.00     0.291 A 
HETATM   14  H   UNL     1       1.373  26.060  46.204  1.00  0.00     0.166 HD
HETATM   15  C   UNL     1       0.300  27.898  46.048  1.00  0.00     0.044 A 
HETATM   16  C   UNL     1      -0.673  27.727  45.058  1.00  0.00     0.031 A 
HETATM   17  C   UNL     1      -1.490  28.821  44.755  1.00  0.00     0.009 A 
HETATM   18  C   UNL     1      -1.359  30.040  45.428  1.00  0.00    -0.061 A 
HETATM   19  C   UNL     1      -2.223  31.210  45.051  1.00  0.00     0.048 C 
HETATM   20  C   UNL     1      -0.370  30.190  46.415  1.00  0.00     0.021 A 
HETATM   21  O   UNL     1       3.594  25.978  47.931  1.00  0.00    -0.264 OA
ENDBRANCH   5   6
ENDBRANCH   2   5
BRANCH   1  22
HETATM   22  C   UNL     1       6.749  25.773  52.278  1.00  0.00     0.035 A 
HETATM   23  C   UNL     1       7.115  24.423  52.263  1.00  0.00     0.044 A 
HETATM   24  C   UNL     1       7.469  23.762  53.464  1.00  0.00     0.005 A 
HETATM   25  C   UNL     1       7.432  24.471  54.663  1.00  0.00     0.046 A 
HETATM   26  C   UNL     1       7.898  22.431  53.758  1.00  0.00     0.003 A 
HETATM   27  N   UNL     1       7.811  23.593  55.660  1.00  0.00    -0.346 N 
HETATM   28  C   UNL     1       7.057  25.825  54.703  1.00  0.00     0.033 A 
HETATM   29  C   UNL     1       8.104  22.347  55.136  1.00  0.00     0.046 A 
HETATM   30  C   UNL     1       8.527  21.156  55.749  1.00  0.00     0.030 A 
HETATM   31  C   UNL     1       8.752  20.037  54.940  1.00  0.00     0.002 A 
HETATM   32  C   UNL     1       8.558  20.100  53.565  1.00  0.00     0.001 A 
HETATM   33  C   UNL     1       8.130  21.287  52.963  1.00  0.00     0.014 A 
HETATM   34  C   UNL     1       6.728  26.457  53.495  1.00  0.00     0.032 A 
BRANCH  27  35
HETATM   35  C   UNL     1       7.901  23.929  57.074  1.00  0.00     0.125 C 
HETATM   36  C   UNL     1       9.201  24.637  57.412  1.00  0.00     0.027 C 
ENDBRANCH  27  35
ENDBRANCH   1  22
TORSDOF 4
ENDMDL
MODEL 7
REMARK VINA RESULT:     -10.9      2.135     11.019
REMARK  4 active torsions:
REMARK  status: ('A' for Active; 'I' for Inactive)
REMARK    1  A    between atoms: C_2  and  N_3 
REMARK    2  A    between atoms: C_7  and  N_8 
REMARK       I    between atoms: N_8  and  C_9 
REMARK    3  A    between atoms: C_9  and  C_10 
REMARK    4  A    between atoms: C_10  and  N_11 
ROOT
HETATM    1  N   UNL     1       8.441  28.907  57.834  1.00  0.00    -0.326 N 
HETATM    2  C   UNL     1       9.389  29.882  57.597  1.00  0.00     0.242 C 
HETATM    3  O   UNL     1      10.028  30.030  56.557  1.00  0.00    -0.271 OA
HETATM    4  H   UNL     1       8.035  28.933  58.768  1.00  0.00     0.169 HD
ENDROOT
BRANCH   2   5
HETATM    5  C   UNL     1       9.735  30.736  58.820  1.00  0.00     0.257 C 
BRANCH   5   6
HETATM    6  N   UNL     1       8.676  30.982  59.800  1.00  0.00    -0.224 N 
HETATM    7  N   UNL     1       8.984  30.705  61.153  1.00  0.00    -0.180 NA
HETATM    8  C   UNL     1       8.199  31.146  62.097  1.00  0.00     0.153 A 
HETATM    9  C   UNL     1       7.031  31.920  61.787  1.00  0.00     0.028 A 
HETATM   10  C   UNL     1       6.725  32.150  60.472  1.00  0.00     0.116 A 
HETATM   11  C   UNL     1       6.072  32.595  62.587  1.00  0.00     0.005 A 
HETATM   12  N   UNL     1       5.596  32.917  60.420  1.00  0.00    -0.350 N 
HETATM   13  C   UNL     1       7.529  31.691  59.379  1.00  0.00     0.291 A 
HETATM   14  H   UNL     1       5.161  33.249  59.568  1.00  0.00     0.166 HD
HETATM   15  C   UNL     1       5.191  33.228  61.702  1.00  0.00     0.044 A 
HETATM   16  C   UNL     1       4.130  34.028  62.139  1.00  0.00     0.031 A 
HETATM   17  C   UNL     1       3.965  34.190  63.519  1.00  0.00     0.009 A 
HETATM   18  C   UNL     1       4.814  33.561  64.436  1.00  0.00    -0.061 A 
HETATM   19  C   UNL     1       4.637  33.789  65.910  1.00  0.00     0.048 C 
HETATM   20  C   UNL     1       5.876  32.767  63.972  1.00  0.00     0.021 A 
HETATM   21  O   UNL     1       7.253  31.943  58.212  1.00  0.00    -0.264 OA
ENDBRANCH   5   6
ENDBRANCH   2   5
BRANCH   1  22
HETATM   22  C   UNL     1       8.026  27.873  56.968  1.00  0.00     0.035 A 
HETATM   23  C   UNL     1       7.409  28.102  55.734  1.00  0.00     0.044 A 
HETATM   24  C   UNL     1       7.049  27.016  54.900  1.00  0.00     0.005 A 
HETATM   25  C   UNL     1       7.303  25.716  55.333  1.00  0.00     0.046 A 
HETATM   26  C   UNL     1       6.443  26.934  53.608  1.00  0.00     0.003 A 
HETATM   27  N   UNL     1       6.850  24.867  54.342  1.00  0.00    -0.346 N 
HETATM   28  C   UNL     1       7.912  25.463  56.574  1.00  0.00     0.033 A 
HETATM   29  C   UNL     1       6.327  25.583  53.279  1.00  0.00     0.046 A 
HETATM   30  C   UNL     1       5.759  25.163  52.065  1.00  0.00     0.030 A 
HETATM   31  C   UNL     1       5.313  26.140  51.169  1.00  0.00     0.002 A 
HETATM   32  C   UNL     1       5.425  27.492  51.473  1.00  0.00     0.001 A 
HETATM   33  C   UNL     1       5.984  27.901  52.687  1.00  0.00     0.014 A 
HETATM   34  C   UNL     1       8.272  26.559  57.371  1.00  0.00     0.032 A 
BRANCH  27  35
HETATM   35  C   UNL     1       6.919  23.414  54.396  1.00  0.00     0.125 C 
HETATM   36  C   UNL     1       8.218  22.881  53.818  1.00  0.00     0.027 C 
ENDBRANCH  27  35
ENDBRANCH   1  22
TORSDOF 4
ENDMDL
MODEL 8
REMARK VINA RESULT:     -10.6      1.965      3.763
REMARK  4 active torsions:
REMARK  status: ('A' for Active; 'I' for Inactive)
REMARK    1  A    between atoms: C_2  and  N_3 
REMARK    2  A    between atoms: C_7  and  N_8 
REMARK       I    between atoms: N_8  and  C_9 
REMARK    3  A    between atoms: C_9  and  C_10 
REMARK    4  A    between atoms: C_10  and  N_11 
ROOT
HETATM    1  N   UNL     1       6.878  30.613  57.505  1.00  0.00    -0.326 N 
HETATM    2  C   UNL     1       6.586  29.281  57.290  1.00  0.00     0.242 C 
HETATM    3  O   UNL     1       5.492  28.746  57.459  1.00  0.00    -0.271 OA
HETATM    4  H   UNL     1       7.850  30.865  57.330  1.00  0.00     0.169 HD
ENDROOT
BRANCH   2   5
HETATM    5  C   UNL     1       7.802  28.417  56.948  1.00  0.00     0.257 C 
BRANCH   5   6
HETATM    6  N   UNL     1       7.557  27.065  56.442  1.00  0.00    -0.224 N 
HETATM    7  N   UNL     1       7.424  26.924  55.041  1.00  0.00    -0.180 NA
HETATM    8  C   UNL     1       7.473  25.736  54.504  1.00  0.00     0.153 A 
HETATM    9  C   UNL     1       7.673  24.567  55.311  1.00  0.00     0.028 A 
HETATM   10  C   UNL     1       7.765  24.714  56.671  1.00  0.00     0.116 A 
HETATM   11  C   UNL     1       7.861  23.194  55.005  1.00  0.00     0.005 A 
HETATM   12  N   UNL     1       7.972  23.484  57.224  1.00  0.00    -0.350 N 
HETATM   13  C   UNL     1       7.709  25.982  57.336  1.00  0.00     0.291 A 
HETATM   14  H   UNL     1       8.094  23.308  58.214  1.00  0.00     0.166 HD
HETATM   15  C   UNL     1       8.063  22.537  56.224  1.00  0.00     0.044 A 
HETATM   16  C   UNL     1       8.324  21.165  56.307  1.00  0.00     0.031 A 
HETATM   17  C   UNL     1       8.383  20.443  55.111  1.00  0.00     0.009 A 
HETATM   18  C   UNL     1       8.171  21.058  53.873  1.00  0.00    -0.061 A 
HETATM   19  C   UNL     1       8.283  20.264  52.603  1.00  0.00     0.048 C 
HETATM   20  C   UNL     1       7.916  22.439  53.815  1.00  0.00     0.021 A 
HETATM   21  O   UNL     1       7.831  26.089  58.550  1.00  0.00    -0.264 OA
ENDBRANCH   5   6
ENDBRANCH   2   5
BRANCH   1  22
HETATM   22  C   UNL     1       6.016  31.623  57.982  1.00  0.00     0.035 A 
HETATM   23  C   UNL     1       5.036  32.236  57.194  1.00  0.00     0.044 A 
HETATM   24  C   UNL     1       4.182  33.220  57.747  1.00  0.00     0.005 A 
HETATM   25  C   UNL     1       4.342  33.581  59.084  1.00  0.00     0.046 A 
HETATM   26  C   UNL     1       3.099  33.987  57.216  1.00  0.00     0.003 A 
HETATM   27  N   UNL     1       3.396  34.552  59.353  1.00  0.00    -0.346 N 
HETATM   28  C   UNL     1       5.327  32.987  59.891  1.00  0.00     0.033 A 
HETATM   29  C   UNL     1       2.625  34.814  58.235  1.00  0.00     0.046 A 
HETATM   30  C   UNL     1       1.558  35.704  58.029  1.00  0.00     0.030 A 
HETATM   31  C   UNL     1       0.962  35.743  56.765  1.00  0.00     0.002 A 
HETATM   32  C   UNL     1       1.415  34.924  55.737  1.00  0.00     0.001 A 
HETATM   33  C   UNL     1       2.481  34.046  55.948  1.00  0.00     0.014 A 
HETATM   34  C   UNL     1       6.147  32.003  59.319  1.00  0.00     0.032 A 
BRANCH  27  35
HETATM   35  C   UNL     1       3.223  35.209  60.640  1.00  0.00     0.125 C 
HETATM   36  C   UNL     1       2.225  34.482  61.525  1.00  0.00     0.027 C 
ENDBRANCH  27  35
ENDBRANCH   1  22
TORSDOF 4
ENDMDL
MODEL 9
REMARK VINA RESULT:     -10.6      2.161     10.909
REMARK  4 active torsions:
REMARK  status: ('A' for Active; 'I' for Inactive)
REMARK    1  A    between atoms: C_2  and  N_3 
REMARK    2  A    between atoms: C_7  and  N_8 
REMARK       I    between atoms: N_8  and  C_9 
REMARK    3  A    between atoms: C_9  and  C_10 
REMARK    4  A    between atoms: C_10  and  N_11 
ROOT
HETATM    1  N   UNL     1       7.940  28.956  58.040  1.00  0.00    -0.326 N 
HETATM    2  C   UNL     1       9.013  29.825  58.058  1.00  0.00     0.242 C 
HETATM    3  O   UNL     1       9.885  29.912  57.196  1.00  0.00    -0.271 OA
HETATM    4  H   UNL     1       7.335  29.017  58.857  1.00  0.00     0.169 HD
ENDROOT
BRANCH   2   5
HETATM    5  C   UNL     1       9.154  30.626  59.355  1.00  0.00     0.257 C 
BRANCH   5   6
HETATM    6  N   UNL     1       8.076  31.553  59.704  1.00  0.00    -0.224 N 
HETATM    7  N   UNL     1       7.156  31.875  58.680  1.00  0.00    -0.180 NA
HETATM    8  C   UNL     1       6.035  32.470  58.983  1.00  0.00     0.153 A 
HETATM    9  C   UNL     1       5.712  32.793  60.342  1.00  0.00     0.028 A 
HETATM   10  C   UNL     1       6.628  32.508  61.321  1.00  0.00     0.116 A 
HETATM   11  C   UNL     1       4.558  33.337  60.965  1.00  0.00     0.005 A 
HETATM   12  N   UNL     1       6.102  32.879  62.525  1.00  0.00    -0.350 N 
HETATM   13  C   UNL     1       7.884  31.866  61.068  1.00  0.00     0.291 A 
HETATM   14  H   UNL     1       6.563  32.763  63.418  1.00  0.00     0.166 HD
HETATM   15  C   UNL     1       4.823  33.365  62.339  1.00  0.00     0.044 A 
HETATM   16  C   UNL     1       3.885  33.807  63.278  1.00  0.00     0.031 A 
HETATM   17  C   UNL     1       2.640  34.228  62.803  1.00  0.00     0.009 A 
HETATM   18  C   UNL     1       2.341  34.231  61.436  1.00  0.00    -0.061 A 
HETATM   19  C   UNL     1       0.980  34.650  60.959  1.00  0.00     0.048 C 
HETATM   20  C   UNL     1       3.298  33.778  60.512  1.00  0.00     0.021 A 
HETATM   21  O   UNL     1       8.669  31.588  61.967  1.00  0.00    -0.264 OA
ENDBRANCH   5   6
ENDBRANCH   2   5
BRANCH   1  22
HETATM   22  C   UNL     1       7.632  27.981  57.068  1.00  0.00     0.035 A 
HETATM   23  C   UNL     1       7.084  28.284  55.817  1.00  0.00     0.044 A 
HETATM   24  C   UNL     1       6.830  27.258  54.876  1.00  0.00     0.005 A 
HETATM   25  C   UNL     1       7.118  25.938  55.221  1.00  0.00     0.046 A 
HETATM   26  C   UNL     1       6.313  27.258  53.544  1.00  0.00     0.003 A 
HETATM   27  N   UNL     1       6.770  25.156  54.136  1.00  0.00    -0.346 N 
HETATM   28  C   UNL     1       7.658  25.609  56.475  1.00  0.00     0.033 A 
HETATM   29  C   UNL     1       6.282  25.935  53.102  1.00  0.00     0.046 A 
HETATM   30  C   UNL     1       5.814  25.593  51.821  1.00  0.00     0.030 A 
HETATM   31  C   UNL     1       5.380  26.622  50.979  1.00  0.00     0.002 A 
HETATM   32  C   UNL     1       5.407  27.947  51.397  1.00  0.00     0.001 A 
HETATM   33  C   UNL     1       5.868  28.277  52.675  1.00  0.00     0.014 A 
HETATM   34  C   UNL     1       7.914  26.649  57.380  1.00  0.00     0.032 A 
BRANCH  27  35
HETATM   35  C   UNL     1       6.905  23.708  54.078  1.00  0.00     0.125 C 
HETATM   36  C   UNL     1       8.191  23.279  53.394  1.00  0.00     0.027 C 
ENDBRANCH  27  35
ENDBRANCH   1  22
TORSDOF 4
ENDMDL
MODEL 10
REMARK VINA RESULT:     -10.5      2.469     10.853
REMARK  4 active torsions:
REMARK  status: ('A' for Active; 'I' for Inactive)
REMARK    1  A    between atoms: C_2  and  N_3 
REMARK    2  A    between atoms: C_7  and  N_8 
REMARK       I    between atoms: N_8  and  C_9 
REMARK    3  A    between atoms: C_9  and  C_10 
REMARK    4  A    between atoms: C_10  and  N_11 
ROOT
HETATM    1  N   UNL     1       8.095  29.468  57.966  1.00  0.00    -0.326 N 
HETATM    2  C   UNL     1       9.337  30.064  57.888  1.00  0.00     0.242 C 
HETATM    3  O   UNL     1       9.988  30.242  56.860  1.00  0.00    -0.271 OA
HETATM    4  H   UNL     1       7.724  29.390  58.912  1.00  0.00     0.169 HD
ENDROOT
BRANCH   2   5
HETATM    5  C   UNL     1       9.971  30.382  59.244  1.00  0.00     0.257 C 
BRANCH   5   6
HETATM    6  N   UNL     1       9.089  30.846  60.316  1.00  0.00    -0.224 N 
HETATM    7  N   UNL     1       9.349  30.351  61.615  1.00  0.00    -0.180 NA
HETATM    8  C   UNL     1       8.787  30.917  62.647  1.00  0.00     0.153 A 
HETATM    9  C   UNL     1       7.916  32.046  62.489  1.00  0.00     0.028 A 
HETATM   10  C   UNL     1       7.643  32.493  61.222  1.00  0.00     0.116 A 
HETATM   11  C   UNL     1       7.256  32.903  63.409  1.00  0.00     0.005 A 
HETATM   12  N   UNL     1       6.817  33.576  61.317  1.00  0.00    -0.350 N 
HETATM   13  C   UNL     1       8.212  31.919  60.039  1.00  0.00     0.291 A 
HETATM   14  H   UNL     1       6.475  34.113  60.529  1.00  0.00     0.166 HD
HETATM   15  C   UNL     1       6.587  33.866  62.646  1.00  0.00     0.044 A 
HETATM   16  C   UNL     1       5.857  34.910  63.224  1.00  0.00     0.031 A 
HETATM   17  C   UNL     1       5.811  34.975  64.620  1.00  0.00     0.009 A 
HETATM   18  C   UNL     1       6.452  34.022  65.418  1.00  0.00    -0.061 A 
HETATM   19  C   UNL     1       6.420  34.141  66.915  1.00  0.00     0.048 C 
HETATM   20  C   UNL     1       7.185  32.985  64.814  1.00  0.00     0.021 A 
HETATM   21  O   UNL     1       7.981  32.362  58.921  1.00  0.00    -0.264 OA
ENDBRANCH   5   6
ENDBRANCH   2   5
BRANCH   1  22
HETATM   22  C   UNL     1       7.329  28.919  56.916  1.00  0.00     0.035 A 
HETATM   23  C   UNL     1       7.607  27.683  56.323  1.00  0.00     0.044 A 
HETATM   24  C   UNL     1       6.775  27.177  55.296  1.00  0.00     0.005 A 
HETATM   25  C   UNL     1       5.686  27.936  54.871  1.00  0.00     0.046 A 
HETATM   26  C   UNL     1       6.788  25.968  54.533  1.00  0.00     0.003 A 
HETATM   27  N   UNL     1       5.063  27.217  53.868  1.00  0.00    -0.346 N 
HETATM   28  C   UNL     1       5.395  29.185  55.444  1.00  0.00     0.033 A 
HETATM   29  C   UNL     1       5.711  26.014  53.647  1.00  0.00     0.046 A 
HETATM   30  C   UNL     1       5.448  24.969  52.746  1.00  0.00     0.030 A 
HETATM   31  C   UNL     1       6.294  23.855  52.759  1.00  0.00     0.002 A 
HETATM   32  C   UNL     1       7.369  23.785  53.638  1.00  0.00     0.001 A 
HETATM   33  C   UNL     1       7.627  24.833  54.526  1.00  0.00     0.014 A 
HETATM   34  C   UNL     1       6.227  29.652  56.472  1.00  0.00     0.032 A 
BRANCH  27  35
HETATM   35  C   UNL     1       3.880  27.655  53.144  1.00  0.00     0.125 C 
HETATM   36  C   UNL     1       4.231  28.411  51.875  1.00  0.00     0.027 C 
ENDBRANCH  27  35
ENDBRANCH   1  22
TORSDOF 4
ENDMDL
