MODEL 1
REMARK VINA RESULT:      -8.5      0.000      0.000
REMARK  9 active torsions:
REMARK  status: ('A' for Active; 'I' for Inactive)
REMARK    1  A    between atoms: C_2  and  N_3 
REMARK    2  A    between atoms: C_2  and  C_23 
REMARK       I    between atoms: N_3  and  C_4 
REMARK       I    between atoms: C_4  and  N_5 
REMARK    3  A    between atoms: N_5  and  C_6 
REMARK    4  A    between atoms: C_6  and  C_7 
REMARK    5  A    between atoms: C_7  and  N_8 
REMARK    6  A    between atoms: C_7  and  C_14 
REMARK    7  A    between atoms: C_15  and  O_16 
REMARK    8  A    between atoms: C_23  and  C_24 
REMARK    9  A    between atoms: C_27  and  O_28 
ROOT
HETATM    1  N   UNL     1       4.898  25.105  52.927  1.00  0.00    -0.339 N 
HETATM    2  C   UNL     1       5.309  25.943  51.932  1.00  0.00     0.316 C 
HETATM    3  N   UNL     1       4.489  25.877  50.827  1.00  0.00    -0.341 N 
HETATM    4  O   UNL     1       6.240  26.729  52.003  1.00  0.00    -0.248 OA
HETATM    5  H   UNL     1       4.275  24.356  52.659  1.00  0.00     0.164 HD
HETATM    6  H   UNL     1       4.106  24.951  50.678  1.00  0.00     0.164 HD
ENDROOT
BRANCH   3   7
HETATM    7  C   UNL     1       4.892  26.594  49.612  1.00  0.00     0.162 C 
BRANCH   7   8
HETATM    8  C   UNL     1       3.949  27.790  49.245  1.00  0.00     0.241 C 
BRANCH   8   9
HETATM    9  N   UNL     1       3.635  27.698  47.740  1.00  0.00    -0.061 N 
HETATM   10  H   UNL     1       4.400  28.257  47.332  1.00  0.00     0.280 HD
HETATM   11  C   UNL     1       2.337  28.250  47.249  1.00  0.00     0.236 C 
HETATM   12  C   UNL     1       1.410  27.056  47.138  1.00  0.00     0.029 C 
HETATM   13  C   UNL     1       2.302  25.826  47.054  1.00  0.00     0.029 C 
HETATM   14  C   UNL     1       3.734  26.320  47.151  1.00  0.00     0.236 C 
ENDBRANCH   8   9
BRANCH   8  15
HETATM   15  C   UNL     1       4.430  29.141  49.750  1.00  0.00     0.007 A 
HETATM   16  C   UNL     1       4.032  29.603  51.026  1.00  0.00     0.076 A 
HETATM   17  C   UNL     1       4.469  30.846  51.496  1.00  0.00     0.037 A 
HETATM   18  C   UNL     1       5.323  31.631  50.724  1.00  0.00     0.003 A 
HETATM   19  C   UNL     1       5.740  31.183  49.476  1.00  0.00     0.001 A 
HETATM   20  C   UNL     1       5.297  29.951  48.992  1.00  0.00     0.012 A 
BRANCH  16  21
HETATM   21  O   UNL     1       3.179  28.793  51.729  1.00  0.00    -0.355 OA
HETATM   22  C   UNL     1       3.413  28.687  53.133  1.00  0.00     0.210 C 
ENDBRANCH  16  21
ENDBRANCH   8  15
ENDBRANCH   7   8
ENDBRANCH   3   7
BRANCH   1  23
HETATM   23  C   UNL     1       5.728  24.787  54.096  1.00  0.00     0.086 C 
HETATM   24  C   UNL     1       5.632  25.835  55.204  1.00  0.00     0.032 C 
BRANCH  23  25
HETATM   25  C   UNL     1       7.199  24.517  53.707  1.00  0.00     0.063 C 
BRANCH  25  26
HETATM   26  C   UNL     1       7.617  23.090  53.994  1.00  0.00    -0.056 A 
HETATM   27  C   UNL     1       7.684  22.618  55.314  1.00  0.00     0.010 A 
HETATM   28  C   UNL     1       8.110  21.315  55.581  1.00  0.00     0.037 A 
HETATM   29  C   UNL     1       8.472  20.484  54.527  1.00  0.00     0.065 A 
HETATM   30  C   UNL     1       8.407  20.932  53.213  1.00  0.00     0.037 A 
HETATM   31  C   UNL     1       7.975  22.231  52.945  1.00  0.00     0.010 A 
BRANCH  29  32
HETATM   32  O   UNL     1       8.902  19.209  54.740  1.00  0.00    -0.361 OA
HETATM   33  H   UNL     1       8.437  18.842  55.509  1.00  0.00     0.217 HD
ENDBRANCH  29  32
ENDBRANCH  25  26
ENDBRANCH  23  25
ENDBRANCH   1  23
TORSDOF 9
ENDMDL
MODEL 2
REMARK VINA RESULT:      -8.4      1.720      2.710
REMARK  9 active torsions:
REMARK  status: ('A' for Active; 'I' for Inactive)
REMARK    1  A    between atoms: C_2  and  N_3 
REMARK    2  A    between atoms: C_2  and  C_23 
REMARK       I    between atoms: N_3  and  C_4 
REMARK       I    between atoms: C_4  and  N_5 
REMARK    3  A    between atoms: N_5  and  C_6 
REMARK    4  A    between atoms: C_6  and  C_7 
REMARK    5  A    between atoms: C_7  and  N_8 
REMARK    6  A    between atoms: C_7  and  C_14 
REMARK    7  A    between atoms: C_15  and  O_16 
REMARK    8  A    between atoms: C_23  and  C_24 
REMARK    9  A    between atoms: C_27  and  O_28 
ROOT
HETATM    1  N   UNL     1       4.819  25.822  54.342  1.00  0.00    -0.339 N 
HETATM    2  C   UNL     1       4.883  27.035  53.722  1.00  0.00     0.316 C 
HETATM    3  N   UNL     1       3.703  27.355  53.088  1.00  0.00    -0.341 N 
HETATM    4  O   UNL     1       5.827  27.808  53.765  1.00  0.00    -0.248 OA
HETATM    5  H   UNL     1       4.087  25.196  54.037  1.00  0.00     0.164 HD
HETATM    6  H   UNL     1       3.224  26.543  52.716  1.00  0.00     0.164 HD
ENDROOT
BRANCH   3   7
HETATM    7  C   UNL     1       3.666  28.550  52.237  1.00  0.00     0.162 C 
BRANCH   7   8
HETATM    8  C   UNL     1       3.433  28.236  50.720  1.00  0.00     0.241 C 
BRANCH   8   9
HETATM    9  N   UNL     1       4.772  27.759  50.127  1.00  0.00    -0.061 N 
HETATM   10  H   UNL     1       5.382  27.763  50.959  1.00  0.00     0.280 HD
HETATM   11  C   UNL     1       5.419  28.592  49.069  1.00  0.00     0.236 C 
HETATM   12  C   UNL     1       5.030  27.943  47.756  1.00  0.00     0.029 C 
HETATM   13  C   UNL     1       4.636  26.510  48.085  1.00  0.00     0.029 C 
HETATM   14  C   UNL     1       4.768  26.358  49.589  1.00  0.00     0.236 C 
ENDBRANCH   8   9
BRANCH   8  15
HETATM   15  C   UNL     1       2.715  29.339  49.959  1.00  0.00     0.007 A 
HETATM   16  C   UNL     1       1.731  29.012  48.998  1.00  0.00     0.076 A 
HETATM   17  C   UNL     1       1.068  30.021  48.292  1.00  0.00     0.037 A 
HETATM   18  C   UNL     1       1.350  31.362  48.547  1.00  0.00     0.003 A 
HETATM   19  C   UNL     1       2.301  31.702  49.502  1.00  0.00     0.001 A 
HETATM   20  C   UNL     1       2.978  30.701  50.201  1.00  0.00     0.012 A 
BRANCH  16  21
HETATM   21  O   UNL     1       1.510  27.677  48.781  1.00  0.00    -0.355 OA
HETATM   22  C   UNL     1       0.809  27.332  47.587  1.00  0.00     0.210 C 
ENDBRANCH  16  21
ENDBRANCH   8  15
ENDBRANCH   7   8
ENDBRANCH   3   7
BRANCH   1  23
HETATM   23  C   UNL     1       6.004  25.129  54.864  1.00  0.00     0.086 C 
HETATM   24  C   UNL     1       6.798  25.966  55.866  1.00  0.00     0.032 C 
BRANCH  23  25
HETATM   25  C   UNL     1       6.914  24.602  53.731  1.00  0.00     0.063 C 
BRANCH  25  26
HETATM   26  C   UNL     1       7.395  23.190  53.990  1.00  0.00    -0.056 A 
HETATM   27  C   UNL     1       7.424  22.674  55.295  1.00  0.00     0.010 A 
HETATM   28  C   UNL     1       7.909  21.387  55.538  1.00  0.00     0.037 A 
HETATM   29  C   UNL     1       8.367  20.616  54.476  1.00  0.00     0.065 A 
HETATM   30  C   UNL     1       8.341  21.108  53.177  1.00  0.00     0.037 A 
HETATM   31  C   UNL     1       7.851  22.390  52.932  1.00  0.00     0.010 A 
BRANCH  29  32
HETATM   32  O   UNL     1       8.856  19.359  54.667  1.00  0.00    -0.361 OA
HETATM   33  H   UNL     1       9.767  19.319  54.334  1.00  0.00     0.217 HD
ENDBRANCH  29  32
ENDBRANCH  25  26
ENDBRANCH  23  25
ENDBRANCH   1  23
TORSDOF 9
ENDMDL
MODEL 3
REMARK VINA RESULT:      -8.4      1.561      3.531
REMARK  9 active torsions:
REMARK  status: ('A' for Active; 'I' for Inactive)
REMARK    1  A    between atoms: C_2  and  N_3 
REMARK    2  A    between atoms: C_2  and  C_23 
REMARK       I    between atoms: N_3  and  C_4 
REMARK       I    between atoms: C_4  and  N_5 
REMARK    3  A    between atoms: N_5  and  C_6 
REMARK    4  A    between atoms: C_6  and  C_7 
REMARK    5  A    between atoms: C_7  and  N_8 
REMARK    6  A    between atoms: C_7  and  C_14 
REMARK    7  A    between atoms: C_15  and  O_16 
REMARK    8  A    between atoms: C_23  and  C_24 
REMARK    9  A    between atoms: C_27  and  O_28 
ROOT
HETATM    1  N   UNL     1       5.009  25.859  54.104  1.00  0.00    -0.339 N 
HETATM    2  C   UNL     1       5.038  26.957  53.294  1.00  0.00     0.316 C 
HETATM    3  N   UNL     1       3.789  27.279  52.814  1.00  0.00    -0.341 N 
HETATM    4  O   UNL     1       6.021  27.644  53.061  1.00  0.00    -0.248 OA
HETATM    5  H   UNL     1       4.201  25.260  54.024  1.00  0.00     0.164 HD
HETATM    6  H   UNL     1       3.206  26.465  52.658  1.00  0.00     0.164 HD
ENDROOT
BRANCH   3   7
HETATM    7  C   UNL     1       3.678  28.333  51.799  1.00  0.00     0.162 C 
BRANCH   7   8
HETATM    8  C   UNL     1       4.061  27.861  50.355  1.00  0.00     0.241 C 
BRANCH   8   9
HETATM    9  N   UNL     1       5.374  28.565  49.962  1.00  0.00    -0.061 N 
HETATM   10  H   UNL     1       6.080  27.906  50.324  1.00  0.00     0.280 HD
HETATM   11  C   UNL     1       5.656  29.915  50.536  1.00  0.00     0.236 C 
HETATM   12  C   UNL     1       5.238  30.901  49.463  1.00  0.00     0.029 C 
HETATM   13  C   UNL     1       5.229  30.130  48.151  1.00  0.00     0.029 C 
HETATM   14  C   UNL     1       5.608  28.699  48.486  1.00  0.00     0.236 C 
ENDBRANCH   8   9
BRANCH   8  15
HETATM   15  C   UNL     1       2.924  27.945  49.349  1.00  0.00     0.007 A 
HETATM   16  C   UNL     1       2.671  26.865  48.474  1.00  0.00     0.076 A 
HETATM   17  C   UNL     1       1.629  26.937  47.544  1.00  0.00     0.037 A 
HETATM   18  C   UNL     1       0.810  28.064  47.489  1.00  0.00     0.003 A 
HETATM   19  C   UNL     1       1.033  29.127  48.355  1.00  0.00     0.001 A 
HETATM   20  C   UNL     1       2.081  29.070  49.276  1.00  0.00     0.012 A 
BRANCH  16  21
HETATM   21  O   UNL     1       3.520  25.793  48.566  1.00  0.00    -0.355 OA
HETATM   22  C   UNL     1       3.055  24.562  48.013  1.00  0.00     0.210 C 
ENDBRANCH  16  21
ENDBRANCH   8  15
ENDBRANCH   7   8
ENDBRANCH   3   7
BRANCH   1  23
HETATM   23  C   UNL     1       6.223  25.153  54.534  1.00  0.00     0.086 C 
HETATM   24  C   UNL     1       7.203  26.047  55.292  1.00  0.00     0.032 C 
BRANCH  23  25
HETATM   25  C   UNL     1       6.920  24.430  53.359  1.00  0.00     0.063 C 
BRANCH  25  26
HETATM   26  C   UNL     1       7.470  23.077  53.762  1.00  0.00    -0.056 A 
HETATM   27  C   UNL     1       8.011  22.212  52.798  1.00  0.00     0.010 A 
HETATM   28  C   UNL     1       8.479  20.947  53.163  1.00  0.00     0.037 A 
HETATM   29  C   UNL     1       8.402  20.547  54.492  1.00  0.00     0.065 A 
HETATM   30  C   UNL     1       7.874  21.391  55.461  1.00  0.00     0.037 A 
HETATM   31  C   UNL     1       7.413  22.657  55.099  1.00  0.00     0.010 A 
BRANCH  29  32
HETATM   32  O   UNL     1       8.838  19.319  54.893  1.00  0.00    -0.361 OA
HETATM   33  H   UNL     1       8.157  18.659  54.689  1.00  0.00     0.217 HD
ENDBRANCH  29  32
ENDBRANCH  25  26
ENDBRANCH  23  25
ENDBRANCH   1  23
TORSDOF 9
ENDMDL
MODEL 4
REMARK VINA RESULT:      -8.3      1.397      3.642
REMARK  9 active torsions:
REMARK  status: ('A' for Active; 'I' for Inactive)
REMARK    1  A    between atoms: C_2  and  N_3 
REMARK    2  A    between atoms: C_2  and  C_23 
REMARK       I    between atoms: N_3  and  C_4 
REMARK       I    between atoms: C_4  and  N_5 
REMARK    3  A    between atoms: N_5  and  C_6 
REMARK    4  A    between atoms: C_6  and  C_7 
REMARK    5  A    between atoms: C_7  and  N_8 
REMARK    6  A    between atoms: C_7  and  C_14 
REMARK    7  A    between atoms: C_15  and  O_16 
REMARK    8  A    between atoms: C_23  and  C_24 
REMARK    9  A    between atoms: C_27  and  O_28 
ROOT
HETATM    1  N   UNL     1       4.910  25.064  52.754  1.00  0.00    -0.339 N 
HETATM    2  C   UNL     1       5.310  25.886  51.741  1.00  0.00     0.316 C 
HETATM    3  N   UNL     1       4.399  25.917  50.709  1.00  0.00    -0.341 N 
HETATM    4  O   UNL     1       6.310  26.587  51.746  1.00  0.00    -0.248 OA
HETATM    5  H   UNL     1       4.204  24.378  52.527  1.00  0.00     0.164 HD
HETATM    6  H   UNL     1       3.925  25.032  50.578  1.00  0.00     0.164 HD
ENDROOT
BRANCH   3   7
HETATM    7  C   UNL     1       4.760  26.625  49.475  1.00  0.00     0.162 C 
BRANCH   7   8
HETATM    8  C   UNL     1       4.136  28.058  49.365  1.00  0.00     0.241 C 
BRANCH   8   9
HETATM    9  N   UNL     1       3.899  28.579  50.794  1.00  0.00    -0.061 N 
HETATM   10  H   UNL     1       4.097  27.739  51.359  1.00  0.00     0.280 HD
HETATM   11  C   UNL     1       2.537  29.075  51.154  1.00  0.00     0.236 C 
HETATM   12  C   UNL     1       2.610  30.582  51.013  1.00  0.00     0.029 C 
HETATM   13  C   UNL     1       4.084  30.951  51.095  1.00  0.00     0.029 C 
HETATM   14  C   UNL     1       4.849  29.649  51.248  1.00  0.00     0.236 C 
ENDBRANCH   8   9
BRANCH   8  15
HETATM   15  C   UNL     1       2.956  28.151  48.410  1.00  0.00     0.007 A 
HETATM   16  C   UNL     1       2.827  29.265  47.550  1.00  0.00     0.076 A 
HETATM   17  C   UNL     1       1.743  29.359  46.670  1.00  0.00     0.037 A 
HETATM   18  C   UNL     1       0.792  28.341  46.613  1.00  0.00     0.003 A 
HETATM   19  C   UNL     1       0.914  27.230  47.439  1.00  0.00     0.001 A 
HETATM   20  C   UNL     1       1.984  27.135  48.330  1.00  0.00     0.012 A 
BRANCH  16  21
HETATM   21  O   UNL     1       3.785  30.238  47.665  1.00  0.00    -0.355 OA
HETATM   22  C   UNL     1       4.351  30.723  46.447  1.00  0.00     0.210 C 
ENDBRANCH  16  21
ENDBRANCH   8  15
ENDBRANCH   7   8
ENDBRANCH   3   7
BRANCH   1  23
HETATM   23  C   UNL     1       5.803  24.648  53.843  1.00  0.00     0.086 C 
HETATM   24  C   UNL     1       5.805  25.620  55.023  1.00  0.00     0.032 C 
BRANCH  23  25
HETATM   25  C   UNL     1       7.239  24.373  53.343  1.00  0.00     0.063 C 
BRANCH  25  26
HETATM   26  C   UNL     1       7.735  23.000  53.748  1.00  0.00    -0.056 A 
HETATM   27  C   UNL     1       7.789  21.957  52.811  1.00  0.00     0.010 A 
HETATM   28  C   UNL     1       8.206  20.679  53.194  1.00  0.00     0.037 A 
HETATM   29  C   UNL     1       8.567  20.445  54.516  1.00  0.00     0.065 A 
HETATM   30  C   UNL     1       8.524  21.467  55.457  1.00  0.00     0.037 A 
HETATM   31  C   UNL     1       8.115  22.744  55.073  1.00  0.00     0.010 A 
BRANCH  29  32
HETATM   32  O   UNL     1       8.971  19.214  54.937  1.00  0.00    -0.361 OA
HETATM   33  H   UNL     1       9.191  18.671  54.163  1.00  0.00     0.217 HD
ENDBRANCH  29  32
ENDBRANCH  25  26
ENDBRANCH  23  25
ENDBRANCH   1  23
TORSDOF 9
ENDMDL
MODEL 5
REMARK VINA RESULT:      -8.3      1.300      3.630
REMARK  9 active torsions:
REMARK  status: ('A' for Active; 'I' for Inactive)
REMARK    1  A    between atoms: C_2  and  N_3 
REMARK    2  A    between atoms: C_2  and  C_23 
REMARK       I    between atoms: N_3  and  C_4 
REMARK       I    between atoms: C_4  and  N_5 
REMARK    3  A    between atoms: N_5  and  C_6 
REMARK    4  A    between atoms: C_6  and  C_7 
REMARK    5  A    between atoms: C_7  and  N_8 
REMARK    6  A    between atoms: C_7  and  C_14 
REMARK    7  A    between atoms: C_15  and  O_16 
REMARK    8  A    between atoms: C_23  and  C_24 
REMARK    9  A    between atoms: C_27  and  O_28 
ROOT
HETATM    1  N   UNL     1       4.576  25.617  53.334  1.00  0.00    -0.339 N 
HETATM    2  C   UNL     1       4.633  26.966  53.139  1.00  0.00     0.316 C 
HETATM    3  N   UNL     1       3.943  27.356  52.013  1.00  0.00    -0.341 N 
HETATM    4  O   UNL     1       5.158  27.773  53.891  1.00  0.00    -0.248 OA
HETATM    5  H   UNL     1       4.323  25.054  52.535  1.00  0.00     0.164 HD
HETATM    6  H   UNL     1       3.978  26.665  51.273  1.00  0.00     0.164 HD
ENDROOT
BRANCH   3   7
HETATM    7  C   UNL     1       4.047  28.753  51.575  1.00  0.00     0.162 C 
BRANCH   7   8
HETATM    8  C   UNL     1       4.379  28.912  50.052  1.00  0.00     0.241 C 
BRANCH   8   9
HETATM    9  N   UNL     1       4.131  30.382  49.667  1.00  0.00    -0.061 N 
HETATM   10  H   UNL     1       3.134  30.363  49.402  1.00  0.00     0.280 HD
HETATM   11  C   UNL     1       4.907  30.960  48.529  1.00  0.00     0.236 C 
HETATM   12  C   UNL     1       6.059  31.708  49.170  1.00  0.00     0.029 C 
HETATM   13  C   UNL     1       5.643  31.988  50.608  1.00  0.00     0.029 C 
HETATM   14  C   UNL     1       4.270  31.368  50.791  1.00  0.00     0.236 C 
ENDBRANCH   8   9
BRANCH   8  15
HETATM   15  C   UNL     1       3.732  27.863  49.161  1.00  0.00     0.007 A 
HETATM   16  C   UNL     1       2.371  27.983  48.800  1.00  0.00     0.076 A 
HETATM   17  C   UNL     1       1.768  27.021  47.983  1.00  0.00     0.037 A 
HETATM   18  C   UNL     1       2.510  25.948  47.492  1.00  0.00     0.003 A 
HETATM   19  C   UNL     1       3.854  25.825  47.822  1.00  0.00     0.001 A 
HETATM   20  C   UNL     1       4.461  26.772  48.649  1.00  0.00     0.012 A 
BRANCH  16  21
HETATM   21  O   UNL     1       1.692  29.051  49.327  1.00  0.00    -0.355 OA
HETATM   22  C   UNL     1       1.023  29.902  48.396  1.00  0.00     0.210 C 
ENDBRANCH  16  21
ENDBRANCH   8  15
ENDBRANCH   7   8
ENDBRANCH   3   7
BRANCH   1  23
HETATM   23  C   UNL     1       5.432  24.914  54.299  1.00  0.00     0.086 C 
HETATM   24  C   UNL     1       5.449  25.571  55.679  1.00  0.00     0.032 C 
BRANCH  23  25
HETATM   25  C   UNL     1       6.865  24.707  53.760  1.00  0.00     0.063 C 
BRANCH  25  26
HETATM   26  C   UNL     1       7.364  23.293  53.981  1.00  0.00    -0.056 A 
HETATM   27  C   UNL     1       7.450  22.762  55.277  1.00  0.00     0.010 A 
HETATM   28  C   UNL     1       7.950  21.474  55.484  1.00  0.00     0.037 A 
HETATM   29  C   UNL     1       8.366  20.719  54.393  1.00  0.00     0.065 A 
HETATM   30  C   UNL     1       8.284  21.226  53.103  1.00  0.00     0.037 A 
HETATM   31  C   UNL     1       7.778  22.509  52.895  1.00  0.00     0.010 A 
BRANCH  29  32
HETATM   32  O   UNL     1       8.868  19.461  54.548  1.00  0.00    -0.361 OA
HETATM   33  H   UNL     1       8.152  18.866  54.823  1.00  0.00     0.217 HD
ENDBRANCH  29  32
ENDBRANCH  25  26
ENDBRANCH  23  25
ENDBRANCH   1  23
TORSDOF 9
ENDMDL
MODEL 6
REMARK VINA RESULT:      -8.2      1.654      2.213
REMARK  9 active torsions:
REMARK  status: ('A' for Active; 'I' for Inactive)
REMARK    1  A    between atoms: C_2  and  N_3 
REMARK    2  A    between atoms: C_2  and  C_23 
REMARK       I    between atoms: N_3  and  C_4 
REMARK       I    between atoms: C_4  and  N_5 
REMARK    3  A    between atoms: N_5  and  C_6 
REMARK    4  A    between atoms: C_6  and  C_7 
REMARK    5  A    between atoms: C_7  and  N_8 
REMARK    6  A    between atoms: C_7  and  C_14 
REMARK    7  A    between atoms: C_15  and  O_16 
REMARK    8  A    between atoms: C_23  and  C_24 
REMARK    9  A    between atoms: C_27  and  O_28 
ROOT
HETATM    1  N   UNL     1       5.907  26.397  53.239  1.00  0.00    -0.339 N 
HETATM    2  C   UNL     1       5.837  26.358  51.877  1.00  0.00     0.316 C 
HETATM    3  N   UNL     1       5.245  27.487  51.357  1.00  0.00    -0.341 N 
HETATM    4  O   UNL     1       6.300  25.481  51.166  1.00  0.00    -0.248 OA
HETATM    5  H   UNL     1       5.291  27.047  53.705  1.00  0.00     0.164 HD
HETATM    6  H   UNL     1       4.524  27.866  51.959  1.00  0.00     0.164 HD
ENDROOT
BRANCH   3   7
HETATM    7  C   UNL     1       4.946  27.523  49.920  1.00  0.00     0.162 C 
BRANCH   7   8
HETATM    8  C   UNL     1       3.562  28.173  49.581  1.00  0.00     0.241 C 
BRANCH   8   9
HETATM    9  N   UNL     1       2.603  27.045  49.158  1.00  0.00    -0.061 N 
HETATM   10  H   UNL     1       2.278  26.694  50.073  1.00  0.00     0.280 HD
HETATM   11  C   UNL     1       3.156  25.894  48.385  1.00  0.00     0.236 C 
HETATM   12  C   UNL     1       2.844  26.200  46.934  1.00  0.00     0.029 C 
HETATM   13  C   UNL     1       1.699  27.204  46.943  1.00  0.00     0.029 C 
HETATM   14  C   UNL     1       1.387  27.492  48.400  1.00  0.00     0.236 C 
ENDBRANCH   8   9
BRANCH   8  15
HETATM   15  C   UNL     1       3.647  29.370  48.647  1.00  0.00     0.007 A 
HETATM   16  C   UNL     1       2.910  30.543  48.928  1.00  0.00     0.076 A 
HETATM   17  C   UNL     1       2.982  31.646  48.072  1.00  0.00     0.037 A 
HETATM   18  C   UNL     1       3.802  31.612  46.945  1.00  0.00     0.003 A 
HETATM   19  C   UNL     1       4.549  30.474  46.664  1.00  0.00     0.001 A 
HETATM   20  C   UNL     1       4.472  29.362  47.505  1.00  0.00     0.012 A 
BRANCH  16  21
HETATM   21  O   UNL     1       2.110  30.508  50.040  1.00  0.00    -0.355 OA
HETATM   22  C   UNL     1       0.755  30.920  49.864  1.00  0.00     0.210 C 
ENDBRANCH  16  21
ENDBRANCH   8  15
ENDBRANCH   7   8
ENDBRANCH   3   7
BRANCH   1  23
HETATM   23  C   UNL     1       6.248  25.224  54.054  1.00  0.00     0.086 C 
HETATM   24  C   UNL     1       5.640  25.268  55.456  1.00  0.00     0.032 C 
BRANCH  23  25
HETATM   25  C   UNL     1       7.773  24.981  54.113  1.00  0.00     0.063 C 
BRANCH  25  26
HETATM   26  C   UNL     1       8.120  23.507  54.143  1.00  0.00    -0.056 A 
HETATM   27  C   UNL     1       7.690  22.652  53.116  1.00  0.00     0.010 A 
HETATM   28  C   UNL     1       7.973  21.285  53.166  1.00  0.00     0.037 A 
HETATM   29  C   UNL     1       8.685  20.773  54.244  1.00  0.00     0.065 A 
HETATM   30  C   UNL     1       9.124  21.605  55.268  1.00  0.00     0.037 A 
HETATM   31  C   UNL     1       8.848  22.971  55.215  1.00  0.00     0.010 A 
BRANCH  29  32
HETATM   32  O   UNL     1       8.977  19.446  54.339  1.00  0.00    -0.361 OA
HETATM   33  H   UNL     1       8.151  18.937  54.317  1.00  0.00     0.217 HD
ENDBRANCH  29  32
ENDBRANCH  25  26
ENDBRANCH  23  25
ENDBRANCH   1  23
TORSDOF 9
ENDMDL
MODEL 7
REMARK VINA RESULT:      -8.2      1.246      1.952
REMARK  9 active torsions:
REMARK  status: ('A' for Active; 'I' for Inactive)
REMARK    1  A    between atoms: C_2  and  N_3 
REMARK    2  A    between atoms: C_2  and  C_23 
REMARK       I    between atoms: N_3  and  C_4 
REMARK       I    between atoms: C_4  and  N_5 
REMARK    3  A    between atoms: N_5  and  C_6 
REMARK    4  A    between atoms: C_6  and  C_7 
REMARK    5  A    between atoms: C_7  and  N_8 
REMARK    6  A    between atoms: C_7  and  C_14 
REMARK    7  A    between atoms: C_15  and  O_16 
REMARK    8  A    between atoms: C_23  and  C_24 
REMARK    9  A    between atoms: C_27  and  O_28 
ROOT
HETATM    1  N   UNL     1       6.484  26.099  52.478  1.00  0.00    -0.339 N 
HETATM    2  C   UNL     1       5.640  25.972  51.414  1.00  0.00     0.316 C 
HETATM    3  N   UNL     1       5.787  27.001  50.511  1.00  0.00    -0.341 N 
HETATM    4  O   UNL     1       4.885  25.034  51.212  1.00  0.00    -0.248 OA
HETATM    5  H   UNL     1       6.873  27.017  52.640  1.00  0.00     0.164 HD
HETATM    6  H   UNL     1       6.027  27.881  50.954  1.00  0.00     0.164 HD
ENDROOT
BRANCH   3   7
HETATM    7  C   UNL     1       4.837  27.098  49.397  1.00  0.00     0.162 C 
BRANCH   7   8
HETATM    8  C   UNL     1       3.536  27.897  49.746  1.00  0.00     0.241 C 
BRANCH   8   9
HETATM    9  N   UNL     1       2.891  28.349  48.422  1.00  0.00    -0.061 N 
HETATM   10  H   UNL     1       3.371  29.247  48.253  1.00  0.00     0.280 HD
HETATM   11  C   UNL     1       1.418  28.592  48.395  1.00  0.00     0.236 C 
HETATM   12  C   UNL     1       0.813  27.324  47.827  1.00  0.00     0.029 C 
HETATM   13  C   UNL     1       1.930  26.616  47.072  1.00  0.00     0.029 C 
HETATM   14  C   UNL     1       3.175  27.467  47.241  1.00  0.00     0.236 C 
ENDBRANCH   8   9
BRANCH   8  15
HETATM   15  C   UNL     1       3.730  28.973  50.802  1.00  0.00     0.007 A 
HETATM   16  C   UNL     1       4.317  30.210  50.454  1.00  0.00     0.076 A 
HETATM   17  C   UNL     1       4.502  31.204  51.421  1.00  0.00     0.037 A 
HETATM   18  C   UNL     1       4.084  30.995  52.734  1.00  0.00     0.003 A 
HETATM   19  C   UNL     1       3.487  29.792  53.090  1.00  0.00     0.001 A 
HETATM   20  C   UNL     1       3.313  28.788  52.135  1.00  0.00     0.012 A 
BRANCH  16  21
HETATM   21  O   UNL     1       4.721  30.348  49.151  1.00  0.00    -0.355 OA
HETATM   22  C   UNL     1       4.483  31.616  48.541  1.00  0.00     0.210 C 
ENDBRANCH  16  21
ENDBRANCH   8  15
ENDBRANCH   7   8
ENDBRANCH   3   7
BRANCH   1  23
HETATM   23  C   UNL     1       6.354  25.293  53.700  1.00  0.00     0.086 C 
HETATM   24  C   UNL     1       5.403  25.907  54.727  1.00  0.00     0.032 C 
BRANCH  23  25
HETATM   25  C   UNL     1       7.727  24.971  54.331  1.00  0.00     0.063 C 
BRANCH  25  26
HETATM   26  C   UNL     1       8.015  23.484  54.354  1.00  0.00    -0.056 A 
HETATM   27  C   UNL     1       8.412  22.853  55.543  1.00  0.00     0.010 A 
HETATM   28  C   UNL     1       8.719  21.490  55.555  1.00  0.00     0.037 A 
HETATM   29  C   UNL     1       8.629  20.759  54.376  1.00  0.00     0.065 A 
HETATM   30  C   UNL     1       8.232  21.365  53.190  1.00  0.00     0.037 A 
HETATM   31  C   UNL     1       7.919  22.724  53.179  1.00  0.00     0.010 A 
BRANCH  29  32
HETATM   32  O   UNL     1       8.926  19.430  54.338  1.00  0.00    -0.361 OA
HETATM   33  H   UNL     1       8.574  19.049  53.517  1.00  0.00     0.217 HD
ENDBRANCH  29  32
ENDBRANCH  25  26
ENDBRANCH  23  25
ENDBRANCH   1  23
TORSDOF 9
ENDMDL
MODEL 8
REMARK VINA RESULT:      -7.9      2.953      7.865
REMARK  9 active torsions:
REMARK  status: ('A' for Active; 'I' for Inactive)
REMARK    1  A    between atoms: C_2  and  N_3 
REMARK    2  A    between atoms: C_2  and  C_23 
REMARK       I    between atoms: N_3  and  C_4 
REMARK       I    between atoms: C_4  and  N_5 
REMARK    3  A    between atoms: N_5  and  C_6 
REMARK    4  A    between atoms: C_6  and  C_7 
REMARK    5  A    between atoms: C_7  and  N_8 
REMARK    6  A    between atoms: C_7  and  C_14 
REMARK    7  A    between atoms: C_15  and  O_16 
REMARK    8  A    between atoms: C_23  and  C_24 
REMARK    9  A    between atoms: C_27  and  O_28 
ROOT
HETATM    1  N   UNL     1       5.446  29.368  51.989  1.00  0.00    -0.339 N 
HETATM    2  C   UNL     1       6.120  28.223  52.296  1.00  0.00     0.316 C 
HETATM    3  N   UNL     1       6.844  28.345  53.461  1.00  0.00    -0.341 N 
HETATM    4  O   UNL     1       6.053  27.171  51.680  1.00  0.00    -0.248 OA
HETATM    5  H   UNL     1       5.767  30.216  52.435  1.00  0.00     0.164 HD
HETATM    6  H   UNL     1       7.206  29.281  53.601  1.00  0.00     0.164 HD
ENDROOT
BRANCH   3   7
HETATM    7  C   UNL     1       7.754  27.257  53.839  1.00  0.00     0.162 C 
BRANCH   7   8
HETATM    8  C   UNL     1       7.604  26.800  55.329  1.00  0.00     0.241 C 
BRANCH   8   9
HETATM    9  N   UNL     1       6.500  25.728  55.384  1.00  0.00    -0.061 N 
HETATM   10  H   UNL     1       5.651  26.307  55.470  1.00  0.00     0.280 HD
HETATM   11  C   UNL     1       6.514  24.749  56.512  1.00  0.00     0.236 C 
HETATM   12  C   UNL     1       7.179  23.506  55.954  1.00  0.00     0.029 C 
HETATM   13  C   UNL     1       7.054  23.594  54.440  1.00  0.00     0.029 C 
HETATM   14  C   UNL     1       6.348  24.904  54.139  1.00  0.00     0.236 C 
ENDBRANCH   8   9
BRANCH   8  15
HETATM   15  C   UNL     1       7.481  27.944  56.323  1.00  0.00     0.007 A 
HETATM   16  C   UNL     1       6.229  28.561  56.542  1.00  0.00     0.076 A 
HETATM   17  C   UNL     1       6.109  29.616  57.452  1.00  0.00     0.037 A 
HETATM   18  C   UNL     1       7.218  30.054  58.174  1.00  0.00     0.003 A 
HETATM   19  C   UNL     1       8.454  29.447  57.984  1.00  0.00     0.001 A 
HETATM   20  C   UNL     1       8.586  28.403  57.067  1.00  0.00     0.012 A 
BRANCH  16  21
HETATM   21  O   UNL     1       5.180  28.096  55.792  1.00  0.00    -0.355 OA
HETATM   22  C   UNL     1       3.972  28.855  55.846  1.00  0.00     0.210 C 
ENDBRANCH  16  21
ENDBRANCH   8  15
ENDBRANCH   7   8
ENDBRANCH   3   7
BRANCH   1  23
HETATM   23  C   UNL     1       4.815  29.596  50.682  1.00  0.00     0.086 C 
HETATM   24  C   UNL     1       4.841  31.062  50.249  1.00  0.00     0.032 C 
BRANCH  23  25
HETATM   25  C   UNL     1       3.382  29.021  50.622  1.00  0.00     0.063 C 
BRANCH  25  26
HETATM   26  C   UNL     1       3.196  28.062  49.464  1.00  0.00    -0.056 A 
HETATM   27  C   UNL     1       4.287  27.343  48.951  1.00  0.00     0.010 A 
HETATM   28  C   UNL     1       4.124  26.491  47.856  1.00  0.00     0.037 A 
HETATM   29  C   UNL     1       2.870  26.360  47.272  1.00  0.00     0.065 A 
HETATM   30  C   UNL     1       1.777  27.060  47.769  1.00  0.00     0.037 A 
HETATM   31  C   UNL     1       1.937  27.905  48.867  1.00  0.00     0.010 A 
BRANCH  29  32
HETATM   32  O   UNL     1       2.665  25.547  46.198  1.00  0.00    -0.361 OA
HETATM   33  H   UNL     1       3.355  24.864  46.181  1.00  0.00     0.217 HD
ENDBRANCH  29  32
ENDBRANCH  25  26
ENDBRANCH  23  25
ENDBRANCH   1  23
TORSDOF 9
ENDMDL
MODEL 9
REMARK VINA RESULT:      -7.8      1.630      3.983
REMARK  9 active torsions:
REMARK  status: ('A' for Active; 'I' for Inactive)
REMARK    1  A    between atoms: C_2  and  N_3 
REMARK    2  A    between atoms: C_2  and  C_23 
REMARK       I    between atoms: N_3  and  C_4 
REMARK       I    between atoms: C_4  and  N_5 
REMARK    3  A    between atoms: N_5  and  C_6 
REMARK    4  A    between atoms: C_6  and  C_7 
REMARK    5  A    between atoms: C_7  and  N_8 
REMARK    6  A    between atoms: C_7  and  C_14 
REMARK    7  A    between atoms: C_15  and  O_16 
REMARK    8  A    between atoms: C_23  and  C_24 
REMARK    9  A    between atoms: C_27  and  O_28 
ROOT
HETATM    1  N   UNL     1       4.214  27.162  53.964  1.00  0.00    -0.339 N 
HETATM    2  C   UNL     1       4.058  28.319  53.258  1.00  0.00     0.316 C 
HETATM    3  N   UNL     1       2.953  28.279  52.438  1.00  0.00    -0.341 N 
HETATM    4  O   UNL     1       4.749  29.319  53.369  1.00  0.00    -0.248 OA
HETATM    5  H   UNL     1       3.730  26.349  53.613  1.00  0.00     0.164 HD
HETATM    6  H   UNL     1       2.768  27.353  52.072  1.00  0.00     0.164 HD
ENDROOT
BRANCH   3   7
HETATM    7  C   UNL     1       2.742  29.381  51.491  1.00  0.00     0.162 C 
BRANCH   7   8
HETATM    8  C   UNL     1       3.543  29.225  50.155  1.00  0.00     0.241 C 
BRANCH   8   9
HETATM    9  N   UNL     1       3.763  30.633  49.570  1.00  0.00    -0.061 N 
HETATM   10  H   UNL     1       2.891  30.776  49.038  1.00  0.00     0.280 HD
HETATM   11  C   UNL     1       4.916  30.847  48.646  1.00  0.00     0.236 C 
HETATM   12  C   UNL     1       6.015  31.437  49.507  1.00  0.00     0.029 C 
HETATM   13  C   UNL     1       5.330  32.025  50.734  1.00  0.00     0.029 C 
HETATM   14  C   UNL     1       3.848  31.738  50.583  1.00  0.00     0.236 C 
ENDBRANCH   8   9
BRANCH   8  15
HETATM   15  C   UNL     1       2.974  28.183  49.205  1.00  0.00     0.007 A 
HETATM   16  C   UNL     1       3.719  27.022  48.897  1.00  0.00     0.076 A 
HETATM   17  C   UNL     1       3.203  26.061  48.022  1.00  0.00     0.037 A 
HETATM   18  C   UNL     1       1.935  26.223  47.465  1.00  0.00     0.003 A 
HETATM   19  C   UNL     1       1.181  27.349  47.772  1.00  0.00     0.001 A 
HETATM   20  C   UNL     1       1.695  28.321  48.633  1.00  0.00     0.012 A 
BRANCH  16  21
HETATM   21  O   UNL     1       4.964  26.929  49.463  1.00  0.00    -0.355 OA
HETATM   22  C   UNL     1       5.111  25.988  50.527  1.00  0.00     0.210 C 
ENDBRANCH  16  21
ENDBRANCH   8  15
ENDBRANCH   7   8
ENDBRANCH   3   7
BRANCH   1  23
HETATM   23  C   UNL     1       5.441  26.840  54.706  1.00  0.00     0.086 C 
HETATM   24  C   UNL     1       5.828  27.912  55.723  1.00  0.00     0.032 C 
BRANCH  23  25
HETATM   25  C   UNL     1       6.620  26.511  53.762  1.00  0.00     0.063 C 
BRANCH  25  26
HETATM   26  C   UNL     1       7.042  25.060  53.854  1.00  0.00    -0.056 A 
HETATM   27  C   UNL     1       6.874  24.342  55.048  1.00  0.00     0.010 A 
HETATM   28  C   UNL     1       7.303  23.016  55.146  1.00  0.00     0.037 A 
HETATM   29  C   UNL     1       7.903  22.409  54.049  1.00  0.00     0.065 A 
HETATM   30  C   UNL     1       8.073  23.102  52.856  1.00  0.00     0.037 A 
HETATM   31  C   UNL     1       7.639  24.423  52.756  1.00  0.00     0.010 A 
BRANCH  29  32
HETATM   32  O   UNL     1       8.344  21.121  54.100  1.00  0.00    -0.361 OA
HETATM   33  H   UNL     1       7.587  20.522  53.998  1.00  0.00     0.217 HD
ENDBRANCH  29  32
ENDBRANCH  25  26
ENDBRANCH  23  25
ENDBRANCH   1  23
TORSDOF 9
ENDMDL
MODEL 10
REMARK VINA RESULT:      -7.8      5.321      9.210
REMARK  9 active torsions:
REMARK  status: ('A' for Active; 'I' for Inactive)
REMARK    1  A    between atoms: C_2  and  N_3 
REMARK    2  A    between atoms: C_2  and  C_23 
REMARK       I    between atoms: N_3  and  C_4 
REMARK       I    between atoms: C_4  and  N_5 
REMARK    3  A    between atoms: N_5  and  C_6 
REMARK    4  A    between atoms: C_6  and  C_7 
REMARK    5  A    between atoms: C_7  and  N_8 
REMARK    6  A    between atoms: C_7  and  C_14 
REMARK    7  A    between atoms: C_15  and  O_16 
REMARK    8  A    between atoms: C_23  and  C_24 
REMARK    9  A    between atoms: C_27  and  O_28 
ROOT
HETATM    1  N   UNL     1       8.489  27.662  57.094  1.00  0.00    -0.339 N 
HETATM    2  C   UNL     1       8.253  26.379  57.492  1.00  0.00     0.316 C 
HETATM    3  N   UNL     1       8.755  25.459  56.599  1.00  0.00    -0.341 N 
HETATM    4  O   UNL     1       7.730  26.045  58.543  1.00  0.00    -0.248 OA
HETATM    5  H   UNL     1       8.710  27.800  56.118  1.00  0.00     0.164 HD
HETATM    6  H   UNL     1       8.714  25.780  55.639  1.00  0.00     0.164 HD
ENDROOT
BRANCH   3   7
HETATM    7  C   UNL     1       8.438  24.040  56.800  1.00  0.00     0.162 C 
BRANCH   7   8
HETATM    8  C   UNL     1       7.877  23.333  55.520  1.00  0.00     0.241 C 
BRANCH   8   9
HETATM    9  N   UNL     1       8.920  22.298  55.058  1.00  0.00    -0.061 N 
HETATM   10  H   UNL     1       9.789  22.855  55.080  1.00  0.00     0.280 HD
HETATM   11  C   UNL     1       8.778  21.705  53.696  1.00  0.00     0.236 C 
HETATM   12  C   UNL     1       8.094  20.369  53.911  1.00  0.00     0.029 C 
HETATM   13  C   UNL     1       8.330  19.995  55.367  1.00  0.00     0.029 C 
HETATM   14  C   UNL     1       9.119  21.135  55.986  1.00  0.00     0.236 C 
ENDBRANCH   8   9
BRANCH   8  15
HETATM   15  C   UNL     1       7.359  24.288  54.457  1.00  0.00     0.007 A 
HETATM   16  C   UNL     1       6.192  25.049  54.695  1.00  0.00     0.076 A 
HETATM   17  C   UNL     1       5.709  25.928  53.720  1.00  0.00     0.037 A 
HETATM   18  C   UNL     1       6.388  26.084  52.513  1.00  0.00     0.003 A 
HETATM   19  C   UNL     1       7.547  25.358  52.270  1.00  0.00     0.001 A 
HETATM   20  C   UNL     1       8.029  24.467  53.231  1.00  0.00     0.012 A 
BRANCH  16  21
HETATM   21  O   UNL     1       5.562  24.840  55.894  1.00  0.00    -0.355 OA
HETATM   22  C   UNL     1       4.941  25.976  56.495  1.00  0.00     0.210 C 
ENDBRANCH  16  21
ENDBRANCH   8  15
ENDBRANCH   7   8
ENDBRANCH   3   7
BRANCH   1  23
HETATM   23  C   UNL     1       7.841  28.823  57.718  1.00  0.00     0.086 C 
HETATM   24  C   UNL     1       6.651  29.350  56.917  1.00  0.00     0.032 C 
BRANCH  23  25
HETATM   25  C   UNL     1       8.849  29.952  58.030  1.00  0.00     0.063 C 
BRANCH  25  26
HETATM   26  C   UNL     1       8.485  30.716  59.286  1.00  0.00    -0.056 A 
HETATM   27  C   UNL     1       7.356  31.549  59.312  1.00  0.00     0.010 A 
HETATM   28  C   UNL     1       7.044  32.287  60.457  1.00  0.00     0.037 A 
HETATM   29  C   UNL     1       7.864  32.193  61.575  1.00  0.00     0.065 A 
HETATM   30  C   UNL     1       8.984  31.370  61.570  1.00  0.00     0.037 A 
HETATM   31  C   UNL     1       9.291  30.627  60.430  1.00  0.00     0.010 A 
BRANCH  29  32
HETATM   32  O   UNL     1       7.604  32.900  62.711  1.00  0.00    -0.361 OA
HETATM   33  H   UNL     1       8.395  33.408  62.956  1.00  0.00     0.217 HD
ENDBRANCH  29  32
ENDBRANCH  25  26
ENDBRANCH  23  25
ENDBRANCH   1  23
TORSDOF 9
ENDMDL
