MODEL 1
REMARK VINA RESULT:      -8.8      0.000      0.000
REMARK  3 active torsions:
REMARK  status: ('A' for Active; 'I' for Inactive)
REMARK    1  A    between atoms: C_4  and  N_5 
REMARK       I    between atoms: N_5  and  C_6 
REMARK    2  A    between atoms: C_6  and  C_7 
REMARK    3  A    between atoms: C_7  and  C_8 
ROOT
HETATM    1  C   UNL     1       7.117  25.135  56.044  1.00  0.00     0.286 C 
HETATM    2  N   UNL     1       7.571  24.331  54.826  1.00  0.00    -0.056 N 
HETATM    3  H   UNL     1       6.915  24.572  54.053  1.00  0.00     0.278 HD
HETATM    4  H   UNL     1       8.501  24.640  54.518  1.00  0.00     0.278 HD
HETATM    5  C   UNL     1       7.542  22.864  55.124  1.00  0.00     0.209 C 
HETATM    6  C   UNL     1       8.531  22.589  56.281  1.00  0.00     0.115 C 
HETATM    7  N   UNL     1       8.288  23.446  57.439  1.00  0.00    -0.353 N 
HETATM    8  C   UNL     1       7.931  24.775  57.305  1.00  0.00     0.249 C 
HETATM    9  O   UNL     1       8.192  25.579  58.190  1.00  0.00    -0.271 OA
HETATM   10  C   UNL     1       7.909  22.058  53.887  1.00  0.00     0.035 C 
HETATM   11  C   UNL     1       7.907  20.564  54.223  1.00  0.00     0.002 C 
HETATM   12  C   UNL     1       8.801  20.235  55.422  1.00  0.00     0.002 C 
HETATM   13  C   UNL     1       8.497  21.105  56.645  1.00  0.00     0.027 C 
HETATM   14  H   UNL     1       8.843  23.278  58.277  1.00  0.00     0.163 HD
ENDROOT
BRANCH   1  15
HETATM   15  C   UNL     1       7.138  26.640  55.758  1.00  0.00     0.146 C 
BRANCH  15  16
HETATM   16  C   UNL     1       5.739  27.194  55.853  1.00  0.00     0.224 C 
HETATM   17  N   UNL     1       4.892  27.226  54.793  1.00  0.00    -0.327 N 
HETATM   18  H   UNL     1       4.050  27.759  54.996  1.00  0.00     0.169 HD
HETATM   19  O   UNL     1       5.357  27.648  56.942  1.00  0.00    -0.273 OA
BRANCH  17  20
HETATM   20  C   UNL     1       4.966  26.715  53.484  1.00  0.00     0.034 A 
HETATM   21  C   UNL     1       4.770  25.381  53.128  1.00  0.00     0.029 A 
HETATM   22  C   UNL     1       4.871  24.982  51.790  1.00  0.00     0.002 A 
HETATM   23  C   UNL     1       5.158  25.913  50.795  1.00  0.00     0.000 A 
HETATM   24  C   UNL     1       5.328  27.250  51.134  1.00  0.00     0.002 A 
HETATM   25  C   UNL     1       5.222  27.649  52.469  1.00  0.00     0.029 A 
ENDBRANCH  17  20
ENDBRANCH  15  16
ENDBRANCH   1  15
TORSDOF 3
ENDMDL
MODEL 2
REMARK VINA RESULT:      -8.3      0.897      5.770
REMARK  3 active torsions:
REMARK  status: ('A' for Active; 'I' for Inactive)
REMARK    1  A    between atoms: C_4  and  N_5 
REMARK       I    between atoms: N_5  and  C_6 
REMARK    2  A    between atoms: C_6  and  C_7 
REMARK    3  A    between atoms: C_7  and  C_8 
ROOT
HETATM    1  C   UNL     1       6.317  25.917  55.494  1.00  0.00     0.286 C 
HETATM    2  N   UNL     1       5.757  25.252  54.238  1.00  0.00    -0.056 N 
HETATM    3  H   UNL     1       6.382  24.446  54.027  1.00  0.00     0.278 HD
HETATM    4  H   UNL     1       4.829  24.853  54.425  1.00  0.00     0.278 HD
HETATM    5  C   UNL     1       5.724  26.224  53.099  1.00  0.00     0.209 C 
HETATM    6  C   UNL     1       4.786  27.390  53.488  1.00  0.00     0.115 C 
HETATM    7  N   UNL     1       5.136  27.981  54.778  1.00  0.00    -0.353 N 
HETATM    8  C   UNL     1       5.554  27.212  55.847  1.00  0.00     0.249 C 
HETATM    9  O   UNL     1       5.385  27.601  56.995  1.00  0.00    -0.271 OA
HETATM   10  C   UNL     1       5.249  25.542  51.824  1.00  0.00     0.035 C 
HETATM   11  C   UNL     1       5.191  26.561  50.682  1.00  0.00     0.002 C 
HETATM   12  C   UNL     1       4.347  27.787  51.039  1.00  0.00     0.002 C 
HETATM   13  C   UNL     1       4.763  28.428  52.366  1.00  0.00     0.027 C 
HETATM   14  H   UNL     1       4.619  28.808  55.076  1.00  0.00     0.163 HD
ENDROOT
BRANCH   1  15
HETATM   15  C   UNL     1       6.360  24.937  56.671  1.00  0.00     0.146 C 
BRANCH  15  16
HETATM   16  C   UNL     1       7.791  24.711  57.091  1.00  0.00     0.224 C 
HETATM   17  N   UNL     1       8.549  23.704  56.589  1.00  0.00    -0.327 N 
HETATM   18  H   UNL     1       9.432  23.610  57.083  1.00  0.00     0.169 HD
HETATM   19  O   UNL     1       8.284  25.470  57.938  1.00  0.00    -0.273 OA
BRANCH  17  20
HETATM   20  C   UNL     1       8.341  22.757  55.568  1.00  0.00     0.034 A 
HETATM   21  C   UNL     1       8.410  23.019  54.200  1.00  0.00     0.029 A 
HETATM   22  C   UNL     1       8.181  21.998  53.270  1.00  0.00     0.002 A 
HETATM   23  C   UNL     1       7.892  20.705  53.698  1.00  0.00     0.000 A 
HETATM   24  C   UNL     1       7.850  20.425  55.059  1.00  0.00     0.002 A 
HETATM   25  C   UNL     1       8.082  21.443  55.987  1.00  0.00     0.029 A 
ENDBRANCH  17  20
ENDBRANCH  15  16
ENDBRANCH   1  15
TORSDOF 3
ENDMDL
MODEL 3
REMARK VINA RESULT:      -8.3      2.460      4.235
REMARK  3 active torsions:
REMARK  status: ('A' for Active; 'I' for Inactive)
REMARK    1  A    between atoms: C_4  and  N_5 
REMARK       I    between atoms: N_5  and  C_6 
REMARK    2  A    between atoms: C_6  and  C_7 
REMARK    3  A    between atoms: C_7  and  C_8 
ROOT
HETATM    1  C   UNL     1       6.141  25.826  56.392  1.00  0.00     0.286 C 
HETATM    2  N   UNL     1       6.299  25.494  54.909  1.00  0.00    -0.056 N 
HETATM    3  H   UNL     1       5.345  25.544  54.493  1.00  0.00     0.278 HD
HETATM    4  H   UNL     1       6.855  26.216  54.435  1.00  0.00     0.278 HD
HETATM    5  C   UNL     1       6.894  24.131  54.735  1.00  0.00     0.209 C 
HETATM    6  C   UNL     1       8.299  24.135  55.382  1.00  0.00     0.115 C 
HETATM    7  N   UNL     1       8.277  24.614  56.762  1.00  0.00    -0.353 N 
HETATM    8  C   UNL     1       7.470  25.663  57.160  1.00  0.00     0.249 C 
HETATM    9  O   UNL     1       7.781  26.354  58.122  1.00  0.00    -0.271 OA
HETATM   10  C   UNL     1       6.971  23.762  53.261  1.00  0.00     0.035 C 
HETATM   11  C   UNL     1       7.614  22.381  53.106  1.00  0.00     0.002 C 
HETATM   12  C   UNL     1       8.974  22.290  53.803  1.00  0.00     0.002 C 
HETATM   13  C   UNL     1       8.923  22.744  55.265  1.00  0.00     0.027 C 
HETATM   14  H   UNL     1       9.148  24.575  57.290  1.00  0.00     0.163 HD
ENDROOT
BRANCH   1  15
HETATM   15  C   UNL     1       5.531  27.218  56.590  1.00  0.00     0.146 C 
BRANCH  15  16
HETATM   16  C   UNL     1       5.736  28.044  55.346  1.00  0.00     0.224 C 
HETATM   17  N   UNL     1       6.738  28.952  55.229  1.00  0.00    -0.327 N 
HETATM   18  H   UNL     1       6.643  29.517  54.389  1.00  0.00     0.169 HD
HETATM   19  O   UNL     1       4.949  27.893  54.401  1.00  0.00    -0.273 OA
BRANCH  17  20
HETATM   20  C   UNL     1       7.835  29.288  56.044  1.00  0.00     0.034 A 
HETATM   21  C   UNL     1       9.176  29.191  55.671  1.00  0.00     0.029 A 
HETATM   22  C   UNL     1      10.189  29.551  56.567  1.00  0.00     0.002 A 
HETATM   23  C   UNL     1       9.873  30.021  57.839  1.00  0.00     0.000 A 
HETATM   24  C   UNL     1       8.540  30.150  58.212  1.00  0.00     0.002 A 
HETATM   25  C   UNL     1       7.529  29.795  57.316  1.00  0.00     0.029 A 
ENDBRANCH  17  20
ENDBRANCH  15  16
ENDBRANCH   1  15
TORSDOF 3
ENDMDL
MODEL 4
REMARK VINA RESULT:      -8.1      2.434      6.481
REMARK  3 active torsions:
REMARK  status: ('A' for Active; 'I' for Inactive)
REMARK    1  A    between atoms: C_4  and  N_5 
REMARK       I    between atoms: N_5  and  C_6 
REMARK    2  A    between atoms: C_6  and  C_7 
REMARK    3  A    between atoms: C_7  and  C_8 
ROOT
HETATM    1  C   UNL     1       4.743  26.939  52.830  1.00  0.00     0.286 C 
HETATM    2  N   UNL     1       5.513  27.856  51.880  1.00  0.00    -0.056 N 
HETATM    3  H   UNL     1       5.477  28.810  52.298  1.00  0.00     0.278 HD
HETATM    4  H   UNL     1       6.506  27.593  51.853  1.00  0.00     0.278 HD
HETATM    5  C   UNL     1       4.895  27.839  50.516  1.00  0.00     0.209 C 
HETATM    6  C   UNL     1       4.980  26.395  49.969  1.00  0.00     0.115 C 
HETATM    7  N   UNL     1       4.424  25.412  50.897  1.00  0.00    -0.353 N 
HETATM    8  C   UNL     1       4.609  25.510  52.263  1.00  0.00     0.249 C 
HETATM    9  O   UNL     1       4.582  24.507  52.966  1.00  0.00    -0.271 OA
HETATM   10  C   UNL     1       5.605  28.817  49.592  1.00  0.00     0.035 C 
HETATM   11  C   UNL     1       4.980  28.757  48.196  1.00  0.00     0.002 C 
HETATM   12  C   UNL     1       4.951  27.335  47.631  1.00  0.00     0.002 C 
HETATM   13  C   UNL     1       4.316  26.327  48.593  1.00  0.00     0.027 C 
HETATM   14  H   UNL     1       4.367  24.444  50.583  1.00  0.00     0.163 HD
ENDROOT
BRANCH   1  15
HETATM   15  C   UNL     1       5.360  26.945  54.233  1.00  0.00     0.146 C 
BRANCH  15  16
HETATM   16  C   UNL     1       6.831  27.262  54.140  1.00  0.00     0.224 C 
HETATM   17  N   UNL     1       7.790  26.303  54.187  1.00  0.00    -0.327 N 
HETATM   18  H   UNL     1       8.723  26.702  54.255  1.00  0.00     0.169 HD
HETATM   19  O   UNL     1       7.172  28.448  54.027  1.00  0.00    -0.273 OA
BRANCH  17  20
HETATM   20  C   UNL     1       7.747  24.896  54.203  1.00  0.00     0.034 A 
HETATM   21  C   UNL     1       7.449  24.112  55.318  1.00  0.00     0.029 A 
HETATM   22  C   UNL     1       7.438  22.716  55.221  1.00  0.00     0.002 A 
HETATM   23  C   UNL     1       7.712  22.091  54.007  1.00  0.00     0.000 A 
HETATM   24  C   UNL     1       7.982  22.862  52.883  1.00  0.00     0.002 A 
HETATM   25  C   UNL     1       7.989  24.256  52.979  1.00  0.00     0.029 A 
ENDBRANCH  17  20
ENDBRANCH  15  16
ENDBRANCH   1  15
TORSDOF 3
ENDMDL
MODEL 5
REMARK VINA RESULT:      -8.1      3.095      5.249
REMARK  3 active torsions:
REMARK  status: ('A' for Active; 'I' for Inactive)
REMARK    1  A    between atoms: C_4  and  N_5 
REMARK       I    between atoms: N_5  and  C_6 
REMARK    2  A    between atoms: C_6  and  C_7 
REMARK    3  A    between atoms: C_7  and  C_8 
ROOT
HETATM    1  C   UNL     1       7.282  26.916  54.691  1.00  0.00     0.286 C 
HETATM    2  N   UNL     1       7.173  25.639  55.524  1.00  0.00    -0.056 N 
HETATM    3  H   UNL     1       7.623  25.846  56.441  1.00  0.00     0.278 HD
HETATM    4  H   UNL     1       6.189  25.427  55.730  1.00  0.00     0.278 HD
HETATM    5  C   UNL     1       7.854  24.500  54.831  1.00  0.00     0.209 C 
HETATM    6  C   UNL     1       7.137  24.260  53.482  1.00  0.00     0.115 C 
HETATM    7  N   UNL     1       7.030  25.478  52.682  1.00  0.00    -0.353 N 
HETATM    8  C   UNL     1       6.763  26.708  53.252  1.00  0.00     0.249 C 
HETATM    9  O   UNL     1       6.216  27.588  52.600  1.00  0.00    -0.271 OA
HETATM   10  C   UNL     1       7.823  23.249  55.697  1.00  0.00     0.035 C 
HETATM   11  C   UNL     1       8.494  22.089  54.956  1.00  0.00     0.002 C 
HETATM   12  C   UNL     1       7.887  21.855  53.570  1.00  0.00     0.002 C 
HETATM   13  C   UNL     1       7.834  23.130  52.723  1.00  0.00     0.027 C 
HETATM   14  H   UNL     1       6.643  25.395  51.743  1.00  0.00     0.163 HD
ENDROOT
BRANCH   1  15
HETATM   15  C   UNL     1       6.592  28.095  55.385  1.00  0.00     0.146 C 
BRANCH  15  16
HETATM   16  C   UNL     1       6.427  27.795  56.853  1.00  0.00     0.224 C 
HETATM   17  N   UNL     1       7.309  28.225  57.791  1.00  0.00    -0.327 N 
HETATM   18  H   UNL     1       7.125  27.815  58.702  1.00  0.00     0.169 HD
HETATM   19  O   UNL     1       5.452  27.118  57.211  1.00  0.00    -0.273 OA
BRANCH  17  20
HETATM   20  C   UNL     1       8.429  29.076  57.742  1.00  0.00     0.034 A 
HETATM   21  C   UNL     1       9.585  28.843  56.995  1.00  0.00     0.029 A 
HETATM   22  C   UNL     1      10.644  29.759  57.024  1.00  0.00     0.002 A 
HETATM   23  C   UNL     1      10.553  30.919  57.788  1.00  0.00     0.000 A 
HETATM   24  C   UNL     1       9.395  31.176  58.513  1.00  0.00     0.002 A 
HETATM   25  C   UNL     1       8.337  30.264  58.482  1.00  0.00     0.029 A 
ENDBRANCH  17  20
ENDBRANCH  15  16
ENDBRANCH   1  15
TORSDOF 3
ENDMDL
MODEL 6
REMARK VINA RESULT:      -8.0      2.333      6.297
REMARK  3 active torsions:
REMARK  status: ('A' for Active; 'I' for Inactive)
REMARK    1  A    between atoms: C_4  and  N_5 
REMARK       I    between atoms: N_5  and  C_6 
REMARK    2  A    between atoms: C_6  and  C_7 
REMARK    3  A    between atoms: C_7  and  C_8 
ROOT
HETATM    1  C   UNL     1       5.794  25.935  54.734  1.00  0.00     0.286 C 
HETATM    2  N   UNL     1       7.122  26.366  55.355  1.00  0.00    -0.056 N 
HETATM    3  H   UNL     1       7.554  25.506  55.753  1.00  0.00     0.278 HD
HETATM    4  H   UNL     1       7.767  26.699  54.628  1.00  0.00     0.278 HD
HETATM    5  C   UNL     1       6.896  27.400  56.414  1.00  0.00     0.209 C 
HETATM    6  C   UNL     1       6.249  28.637  55.749  1.00  0.00     0.115 C 
HETATM    7  N   UNL     1       5.058  28.295  54.973  1.00  0.00    -0.353 N 
HETATM    8  C   UNL     1       4.985  27.142  54.215  1.00  0.00     0.249 C 
HETATM    9  O   UNL     1       4.249  27.089  53.238  1.00  0.00    -0.271 OA
HETATM   10  C   UNL     1       8.207  27.767  57.095  1.00  0.00     0.035 C 
HETATM   11  C   UNL     1       7.957  28.849  58.149  1.00  0.00     0.002 C 
HETATM   12  C   UNL     1       7.236  30.070  57.572  1.00  0.00     0.002 C 
HETATM   13  C   UNL     1       5.961  29.699  56.809  1.00  0.00     0.027 C 
HETATM   14  H   UNL     1       4.523  29.060  54.566  1.00  0.00     0.163 HD
ENDROOT
BRANCH   1  15
HETATM   15  C   UNL     1       6.004  24.875  53.648  1.00  0.00     0.146 C 
BRANCH  15  16
HETATM   16  C   UNL     1       7.428  24.929  53.154  1.00  0.00     0.224 C 
HETATM   17  N   UNL     1       8.342  23.972  53.455  1.00  0.00    -0.327 N 
HETATM   18  H   UNL     1       9.280  24.238  53.163  1.00  0.00     0.169 HD
HETATM   19  O   UNL     1       7.774  25.893  52.456  1.00  0.00    -0.273 OA
BRANCH  17  20
HETATM   20  C   UNL     1       8.259  22.732  54.114  1.00  0.00     0.034 A 
HETATM   21  C   UNL     1       8.057  21.500  53.491  1.00  0.00     0.029 A 
HETATM   22  C   UNL     1       7.987  20.325  54.248  1.00  0.00     0.002 A 
HETATM   23  C   UNL     1       8.129  20.368  55.633  1.00  0.00     0.000 A 
HETATM   24  C   UNL     1       8.360  21.586  56.262  1.00  0.00     0.002 A 
HETATM   25  C   UNL     1       8.434  22.758  55.506  1.00  0.00     0.029 A 
ENDBRANCH  17  20
ENDBRANCH  15  16
ENDBRANCH   1  15
TORSDOF 3
ENDMDL
MODEL 7
REMARK VINA RESULT:      -7.9      3.164      7.316
REMARK  3 active torsions:
REMARK  status: ('A' for Active; 'I' for Inactive)
REMARK    1  A    between atoms: C_4  and  N_5 
REMARK       I    between atoms: N_5  and  C_6 
REMARK    2  A    between atoms: C_6  and  C_7 
REMARK    3  A    between atoms: C_7  and  C_8 
ROOT
HETATM    1  C   UNL     1       5.506  27.579  50.893  1.00  0.00     0.286 C 
HETATM    2  N   UNL     1       4.600  26.409  50.511  1.00  0.00    -0.056 N 
HETATM    3  H   UNL     1       5.143  25.541  50.701  1.00  0.00     0.278 HD
HETATM    4  H   UNL     1       3.779  26.373  51.127  1.00  0.00     0.278 HD
HETATM    5  C   UNL     1       4.208  26.498  49.068  1.00  0.00     0.209 C 
HETATM    6  C   UNL     1       3.416  27.810  48.865  1.00  0.00     0.115 C 
HETATM    7  N   UNL     1       4.133  28.979  49.370  1.00  0.00    -0.353 N 
HETATM    8  C   UNL     1       4.867  28.938  50.540  1.00  0.00     0.249 C 
HETATM    9  O   UNL     1       5.049  29.957  51.194  1.00  0.00    -0.271 OA
HETATM   10  C   UNL     1       3.378  25.289  48.661  1.00  0.00     0.035 C 
HETATM   11  C   UNL     1       2.961  25.418  47.193  1.00  0.00     0.002 C 
HETATM   12  C   UNL     1       2.247  26.741  46.905  1.00  0.00     0.002 C 
HETATM   13  C   UNL     1       3.037  27.959  47.391  1.00  0.00     0.027 C 
HETATM   14  H   UNL     1       3.718  29.896  49.205  1.00  0.00     0.163 HD
ENDROOT
BRANCH   1  15
HETATM   15  C   UNL     1       5.919  27.505  52.367  1.00  0.00     0.146 C 
BRANCH  15  16
HETATM   16  C   UNL     1       4.809  26.882  53.175  1.00  0.00     0.224 C 
HETATM   17  N   UNL     1       4.918  25.655  53.744  1.00  0.00    -0.327 N 
HETATM   18  H   UNL     1       4.033  25.333  54.126  1.00  0.00     0.169 HD
HETATM   19  O   UNL     1       3.753  27.516  53.313  1.00  0.00    -0.273 OA
BRANCH  17  20
HETATM   20  C   UNL     1       5.981  24.741  53.868  1.00  0.00     0.034 A 
HETATM   21  C   UNL     1       6.575  24.047  52.813  1.00  0.00     0.029 A 
HETATM   22  C   UNL     1       7.628  23.157  53.053  1.00  0.00     0.002 A 
HETATM   23  C   UNL     1       8.105  22.961  54.347  1.00  0.00     0.000 A 
HETATM   24  C   UNL     1       7.542  23.668  55.402  1.00  0.00     0.002 A 
HETATM   25  C   UNL     1       6.493  24.560  55.162  1.00  0.00     0.029 A 
ENDBRANCH  17  20
ENDBRANCH  15  16
ENDBRANCH   1  15
TORSDOF 3
ENDMDL
MODEL 8
REMARK VINA RESULT:      -7.9      4.104      6.894
REMARK  3 active torsions:
REMARK  status: ('A' for Active; 'I' for Inactive)
REMARK    1  A    between atoms: C_4  and  N_5 
REMARK       I    between atoms: N_5  and  C_6 
REMARK    2  A    between atoms: C_6  and  C_7 
REMARK    3  A    between atoms: C_7  and  C_8 
ROOT
HETATM    1  C   UNL     1       7.116  28.699  57.596  1.00  0.00     0.286 C 
HETATM    2  N   UNL     1       8.413  29.407  57.986  1.00  0.00    -0.056 N 
HETATM    3  H   UNL     1       9.132  28.662  58.104  1.00  0.00     0.278 HD
HETATM    4  H   UNL     1       8.743  30.003  57.216  1.00  0.00     0.278 HD
HETATM    5  C   UNL     1       8.227  30.186  59.251  1.00  0.00     0.209 C 
HETATM    6  C   UNL     1       7.146  31.262  58.998  1.00  0.00     0.115 C 
HETATM    7  N   UNL     1       5.915  30.698  58.449  1.00  0.00    -0.353 N 
HETATM    8  C   UNL     1       5.929  29.682  57.513  1.00  0.00     0.249 C 
HETATM    9  O   UNL     1       4.999  29.548  56.728  1.00  0.00    -0.271 OA
HETATM   10  C   UNL     1       9.539  30.821  59.689  1.00  0.00     0.035 C 
HETATM   11  C   UNL     1       9.318  31.639  60.964  1.00  0.00     0.002 C 
HETATM   12  C   UNL     1       8.195  32.668  60.809  1.00  0.00     0.002 C 
HETATM   13  C   UNL     1       6.895  32.051  60.284  1.00  0.00     0.027 C 
HETATM   14  H   UNL     1       5.121  31.326  58.326  1.00  0.00     0.163 HD
ENDROOT
BRANCH   1  15
HETATM   15  C   UNL     1       7.287  27.894  56.304  1.00  0.00     0.146 C 
BRANCH  15  16
HETATM   16  C   UNL     1       7.744  26.496  56.633  1.00  0.00     0.224 C 
HETATM   17  N   UNL     1       7.526  25.442  55.806  1.00  0.00    -0.327 N 
HETATM   18  H   UNL     1       7.770  24.558  56.245  1.00  0.00     0.169 HD
HETATM   19  O   UNL     1       8.332  26.305  57.707  1.00  0.00    -0.273 OA
BRANCH  17  20
HETATM   20  C   UNL     1       6.999  25.329  54.506  1.00  0.00     0.034 A 
HETATM   21  C   UNL     1       7.748  25.356  53.329  1.00  0.00     0.029 A 
HETATM   22  C   UNL     1       7.117  25.239  52.084  1.00  0.00     0.002 A 
HETATM   23  C   UNL     1       5.736  25.081  52.006  1.00  0.00     0.000 A 
HETATM   24  C   UNL     1       4.983  25.023  53.172  1.00  0.00     0.002 A 
HETATM   25  C   UNL     1       5.613  25.137  54.414  1.00  0.00     0.029 A 
ENDBRANCH  17  20
ENDBRANCH  15  16
ENDBRANCH   1  15
TORSDOF 3
ENDMDL
MODEL 9
REMARK VINA RESULT:      -7.8      2.203      6.692
REMARK  3 active torsions:
REMARK  status: ('A' for Active; 'I' for Inactive)
REMARK    1  A    between atoms: C_4  and  N_5 
REMARK       I    between atoms: N_5  and  C_6 
REMARK    2  A    between atoms: C_6  and  C_7 
REMARK    3  A    between atoms: C_7  and  C_8 
ROOT
HETATM    1  C   UNL     1       6.434  25.698  53.420  1.00  0.00     0.286 C 
HETATM    2  N   UNL     1       5.853  27.091  53.661  1.00  0.00    -0.056 N 
HETATM    3  H   UNL     1       5.494  27.095  54.639  1.00  0.00     0.278 HD
HETATM    4  H   UNL     1       6.594  27.801  53.625  1.00  0.00     0.278 HD
HETATM    5  C   UNL     1       4.758  27.380  52.681  1.00  0.00     0.209 C 
HETATM    6  C   UNL     1       5.364  27.348  51.259  1.00  0.00     0.115 C 
HETATM    7  N   UNL     1       6.102  26.115  50.994  1.00  0.00    -0.353 N 
HETATM    8  C   UNL     1       6.889  25.512  51.957  1.00  0.00     0.249 C 
HETATM    9  O   UNL     1       7.838  24.810  51.632  1.00  0.00    -0.271 OA
HETATM   10  C   UNL     1       4.118  28.729  52.974  1.00  0.00     0.035 C 
HETATM   11  C   UNL     1       3.026  29.019  51.941  1.00  0.00     0.002 C 
HETATM   12  C   UNL     1       3.542  28.916  50.503  1.00  0.00     0.002 C 
HETATM   13  C   UNL     1       4.265  27.595  50.226  1.00  0.00     0.027 C 
HETATM   14  H   UNL     1       6.468  25.975  50.053  1.00  0.00     0.163 HD
ENDROOT
BRANCH   1  15
HETATM   15  C   UNL     1       7.556  25.382  54.415  1.00  0.00     0.146 C 
BRANCH  15  16
HETATM   16  C   UNL     1       6.970  24.785  55.669  1.00  0.00     0.224 C 
HETATM   17  N   UNL     1       6.974  23.450  55.914  1.00  0.00    -0.327 N 
HETATM   18  H   UNL     1       6.415  23.212  56.729  1.00  0.00     0.169 HD
HETATM   19  O   UNL     1       6.455  25.547  56.500  1.00  0.00    -0.273 OA
BRANCH  17  20
HETATM   20  C   UNL     1       7.551  22.350  55.253  1.00  0.00     0.034 A 
HETATM   21  C   UNL     1       7.644  22.201  53.869  1.00  0.00     0.029 A 
HETATM   22  C   UNL     1       8.238  21.059  53.317  1.00  0.00     0.002 A 
HETATM   23  C   UNL     1       8.754  20.064  54.142  1.00  0.00     0.000 A 
HETATM   24  C   UNL     1       8.693  20.215  55.523  1.00  0.00     0.002 A 
HETATM   25  C   UNL     1       8.104  21.356  56.073  1.00  0.00     0.029 A 
ENDBRANCH  17  20
ENDBRANCH  15  16
ENDBRANCH   1  15
TORSDOF 3
ENDMDL
MODEL 10
REMARK VINA RESULT:      -7.8      4.841      7.086
REMARK  3 active torsions:
REMARK  status: ('A' for Active; 'I' for Inactive)
REMARK    1  A    between atoms: C_4  and  N_5 
REMARK       I    between atoms: N_5  and  C_6 
REMARK    2  A    between atoms: C_6  and  C_7 
REMARK    3  A    between atoms: C_7  and  C_8 
ROOT
HETATM    1  C   UNL     1       8.172  28.041  56.952  1.00  0.00     0.286 C 
HETATM    2  N   UNL     1       8.153  26.648  57.580  1.00  0.00    -0.056 N 
HETATM    3  H   UNL     1       8.971  26.604  58.224  1.00  0.00     0.278 HD
HETATM    4  H   UNL     1       7.319  26.530  58.168  1.00  0.00     0.278 HD
HETATM    5  C   UNL     1       8.241  25.592  56.521  1.00  0.00     0.209 C 
HETATM    6  C   UNL     1       7.002  25.727  55.606  1.00  0.00     0.115 C 
HETATM    7  N   UNL     1       6.831  27.084  55.093  1.00  0.00    -0.353 N 
HETATM    8  C   UNL     1       7.079  28.198  55.873  1.00  0.00     0.249 C 
HETATM    9  O   UNL     1       6.507  29.256  55.644  1.00  0.00    -0.271 OA
HETATM   10  C   UNL     1       8.311  24.207  57.148  1.00  0.00     0.035 C 
HETATM   11  C   UNL     1       8.365  23.144  56.048  1.00  0.00     0.002 C 
HETATM   12  C   UNL     1       7.210  23.277  55.052  1.00  0.00     0.002 C 
HETATM   13  C   UNL     1       7.079  24.692  54.482  1.00  0.00     0.027 C 
HETATM   14  H   UNL     1       6.084  27.244  54.418  1.00  0.00     0.163 HD
ENDROOT
BRANCH   1  15
HETATM   15  C   UNL     1       8.085  29.136  58.020  1.00  0.00     0.146 C 
BRANCH  15  16
HETATM   16  C   UNL     1       9.323  29.995  57.968  1.00  0.00     0.224 C 
HETATM   17  N   UNL     1       9.622  30.904  58.931  1.00  0.00    -0.327 N 
HETATM   18  H   UNL     1      10.409  31.491  58.667  1.00  0.00     0.169 HD
HETATM   19  O   UNL     1      10.087  29.871  57.000  1.00  0.00    -0.273 OA
BRANCH  17  20
HETATM   20  C   UNL     1       9.045  31.215  60.176  1.00  0.00     0.034 A 
HETATM   21  C   UNL     1       9.219  30.482  61.351  1.00  0.00     0.029 A 
HETATM   22  C   UNL     1       8.592  30.882  62.536  1.00  0.00     0.002 A 
HETATM   23  C   UNL     1       7.796  32.025  62.562  1.00  0.00     0.000 A 
HETATM   24  C   UNL     1       7.639  32.780  61.406  1.00  0.00     0.002 A 
HETATM   25  C   UNL     1       8.268  32.382  60.224  1.00  0.00     0.029 A 
ENDBRANCH  17  20
ENDBRANCH  15  16
ENDBRANCH   1  15
TORSDOF 3
ENDMDL
