MODEL 1
REMARK VINA RESULT:      -9.4      0.000      0.000
REMARK  6 active torsions:
REMARK  status: ('A' for Active; 'I' for Inactive)
REMARK    1  A    between atoms: C_2  and  C_3 
REMARK    2  A    between atoms: C_3  and  O_4 
REMARK    3  A    between atoms: O_4  and  C_5 
REMARK    4  A    between atoms: C_8  and  C_9 
REMARK    5  A    between atoms: C_9  and  N_10 
REMARK       I    between atoms: N_10  and  C_11 
REMARK       I    between atoms: C_11  and  N_12 
REMARK    6  A    between atoms: N_12  and  C_13 
ROOT
HETATM    1  N   UNL     1       6.985  26.925  55.827  1.00  0.00    -0.339 N 
HETATM    2  C   UNL     1       6.320  25.776  56.080  1.00  0.00     0.316 C 
HETATM    3  N   UNL     1       6.886  24.614  55.693  1.00  0.00    -0.338 N 
HETATM    4  O   UNL     1       5.230  25.739  56.643  1.00  0.00    -0.247 OA
HETATM    5  H   UNL     1       7.715  26.896  55.138  1.00  0.00     0.164 HD
HETATM    6  H   UNL     1       6.295  23.842  55.978  1.00  0.00     0.164 HD
ENDROOT
BRANCH   1   7
HETATM    7  C   UNL     1       6.380  28.213  56.071  1.00  0.00     0.164 C 
BRANCH   7   8
HETATM    8  C   UNL     1       7.222  29.096  56.945  1.00  0.00    -0.021 A 
HETATM    9  C   UNL     1       6.636  29.939  57.886  1.00  0.00     0.128 A 
HETATM   10  N   UNL     1       7.324  30.797  58.676  1.00  0.00    -0.235 NA
HETATM   11  C   UNL     1       8.672  30.812  58.541  1.00  0.00     0.186 A 
HETATM   12  C   UNL     1       9.356  29.984  57.654  1.00  0.00     0.087 A 
HETATM   13  C   UNL     1       8.618  29.114  56.849  1.00  0.00     0.038 A 
HETATM   14 CL   UNL     1      11.073  30.006  57.502  1.00  0.00    -0.080 Cl
BRANCH  11  15
HETATM   15  O   UNL     1       9.406  31.697  59.308  1.00  0.00    -0.333 OA
BRANCH  15  16
HETATM   16  C   UNL     1       8.643  32.338  60.333  1.00  0.00     0.181 C 
BRANCH  16  17
HETATM   17  C   UNL     1       9.211  31.934  61.704  1.00  0.00     0.002 C 
HETATM   18  C   UNL     1       9.437  30.424  61.763  1.00  0.00     0.011 C 
HETATM   19  C   UNL     1       8.284  32.375  62.840  1.00  0.00     0.011 C 
ENDBRANCH  16  17
ENDBRANCH  15  16
ENDBRANCH  11  15
ENDBRANCH   7   8
ENDBRANCH   1   7
BRANCH   3  20
HETATM   20  C   UNL     1       8.136  24.236  55.019  1.00  0.00     0.090 C 
HETATM   21  C   UNL     1       8.831  22.972  55.600  1.00  0.00     0.067 C 
HETATM   22  C   UNL     1       8.672  21.784  54.723  1.00  0.00    -0.013 A 
HETATM   23  C   UNL     1       8.103  21.825  53.472  1.00  0.00     0.035 A 
HETATM   24  C   UNL     1       9.028  20.436  54.903  1.00  0.00     0.148 A 
HETATM   25  N   UNL     1       8.155  20.556  52.978  1.00  0.00    -0.282 N 
HETATM   26  C   UNL     1       7.518  23.006  52.798  1.00  0.00     0.061 C 
HETATM   27  H   UNL     1       7.838  20.209  52.078  1.00  0.00     0.189 HD
HETATM   28  N   UNL     1       8.695  19.684  53.849  1.00  0.00    -0.187 NA
HETATM   29  C   UNL     1       8.039  24.285  53.473  1.00  0.00     0.031 C 
ENDBRANCH   3  20
TORSDOF 6
ENDMDL
MODEL 2
REMARK VINA RESULT:      -9.0      2.846     10.300
REMARK  6 active torsions:
REMARK  status: ('A' for Active; 'I' for Inactive)
REMARK    1  A    between atoms: C_2  and  C_3 
REMARK    2  A    between atoms: C_3  and  O_4 
REMARK    3  A    between atoms: O_4  and  C_5 
REMARK    4  A    between atoms: C_8  and  C_9 
REMARK    5  A    between atoms: C_9  and  N_10 
REMARK       I    between atoms: N_10  and  C_11 
REMARK       I    between atoms: C_11  and  N_12 
REMARK    6  A    between atoms: N_12  and  C_13 
ROOT
HETATM    1  N   UNL     1       9.203  30.274  58.481  1.00  0.00    -0.339 N 
HETATM    2  C   UNL     1       9.487  31.535  58.873  1.00  0.00     0.316 C 
HETATM    3  N   UNL     1       8.816  32.042  59.927  1.00  0.00    -0.338 N 
HETATM    4  O   UNL     1      10.325  32.240  58.318  1.00  0.00    -0.247 OA
HETATM    5  H   UNL     1       8.338  29.874  58.799  1.00  0.00     0.164 HD
HETATM    6  H   UNL     1       9.157  32.975  60.126  1.00  0.00     0.164 HD
ENDROOT
BRANCH   1   7
HETATM    7  C   UNL     1       9.764  29.717  57.273  1.00  0.00     0.164 C 
BRANCH   7   8
HETATM    8  C   UNL     1       8.875  28.686  56.638  1.00  0.00    -0.021 A 
HETATM    9  C   UNL     1       8.622  27.473  57.273  1.00  0.00     0.128 A 
HETATM   10  N   UNL     1       7.871  26.478  56.744  1.00  0.00    -0.235 NA
HETATM   11  C   UNL     1       7.325  26.700  55.525  1.00  0.00     0.186 A 
HETATM   12  C   UNL     1       7.490  27.893  54.824  1.00  0.00     0.087 A 
HETATM   13  C   UNL     1       8.274  28.898  55.393  1.00  0.00     0.038 A 
HETATM   14 CL   UNL     1       6.777  28.166  53.278  1.00  0.00    -0.080 Cl
BRANCH  11  15
HETATM   15  O   UNL     1       6.578  25.696  54.939  1.00  0.00    -0.333 OA
BRANCH  15  16
HETATM   16  C   UNL     1       7.308  24.483  54.733  1.00  0.00     0.181 C 
BRANCH  16  17
HETATM   17  C   UNL     1       7.166  24.059  53.262  1.00  0.00     0.002 C 
HETATM   18  C   UNL     1       7.612  22.609  53.079  1.00  0.00     0.011 C 
HETATM   19  C   UNL     1       7.969  24.980  52.339  1.00  0.00     0.011 C 
ENDBRANCH  16  17
ENDBRANCH  15  16
ENDBRANCH  11  15
ENDBRANCH   7   8
ENDBRANCH   1   7
BRANCH   3  20
HETATM   20  C   UNL     1       7.776  31.544  60.839  1.00  0.00     0.090 C 
HETATM   21  C   UNL     1       8.169  31.559  62.343  1.00  0.00     0.067 C 
HETATM   22  C   UNL     1       7.495  32.649  63.094  1.00  0.00    -0.013 A 
HETATM   23  C   UNL     1       6.525  33.462  62.559  1.00  0.00     0.035 A 
HETATM   24  C   UNL     1       7.640  33.098  64.418  1.00  0.00     0.148 A 
HETATM   25  N   UNL     1       6.141  34.316  63.550  1.00  0.00    -0.282 N 
HETATM   26  C   UNL     1       6.013  33.443  61.170  1.00  0.00     0.061 C 
HETATM   27  H   UNL     1       5.438  35.048  63.524  1.00  0.00     0.189 HD
HETATM   28  N   UNL     1       6.829  34.126  64.690  1.00  0.00    -0.187 NA
HETATM   29  C   UNL     1       6.363  32.096  60.518  1.00  0.00     0.031 C 
ENDBRANCH   3  20
TORSDOF 6
ENDMDL
MODEL 3
REMARK VINA RESULT:      -8.4      5.021      7.766
REMARK  6 active torsions:
REMARK  status: ('A' for Active; 'I' for Inactive)
REMARK    1  A    between atoms: C_2  and  C_3 
REMARK    2  A    between atoms: C_3  and  O_4 
REMARK    3  A    between atoms: O_4  and  C_5 
REMARK    4  A    between atoms: C_8  and  C_9 
REMARK    5  A    between atoms: C_9  and  N_10 
REMARK       I    between atoms: N_10  and  C_11 
REMARK       I    between atoms: C_11  and  N_12 
REMARK    6  A    between atoms: N_12  and  C_13 
ROOT
HETATM    1  N   UNL     1       6.052  26.346  55.250  1.00  0.00    -0.339 N 
HETATM    2  C   UNL     1       5.861  25.335  56.126  1.00  0.00     0.316 C 
HETATM    3  N   UNL     1       6.788  24.357  56.183  1.00  0.00    -0.338 N 
HETATM    4  O   UNL     1       4.887  25.264  56.871  1.00  0.00    -0.247 OA
HETATM    5  H   UNL     1       6.708  26.195  54.504  1.00  0.00     0.164 HD
HETATM    6  H   UNL     1       6.531  23.692  56.903  1.00  0.00     0.164 HD
ENDROOT
BRANCH   1   7
HETATM    7  C   UNL     1       5.035  27.345  55.021  1.00  0.00     0.164 C 
BRANCH   7   8
HETATM    8  C   UNL     1       4.749  27.561  53.562  1.00  0.00    -0.021 A 
HETATM    9  C   UNL     1       5.386  26.797  52.588  1.00  0.00     0.128 A 
HETATM   10  N   UNL     1       5.215  26.964  51.255  1.00  0.00    -0.235 NA
HETATM   11  C   UNL     1       4.352  27.931  50.861  1.00  0.00     0.186 A 
HETATM   12  C   UNL     1       3.640  28.726  51.758  1.00  0.00     0.087 A 
HETATM   13  C   UNL     1       3.842  28.533  53.125  1.00  0.00     0.038 A 
HETATM   14 CL   UNL     1       2.537  29.945  51.241  1.00  0.00    -0.080 Cl
BRANCH  11  15
HETATM   15  O   UNL     1       4.176  28.153  49.509  1.00  0.00    -0.333 OA
BRANCH  15  16
HETATM   16  C   UNL     1       4.326  26.976  48.710  1.00  0.00     0.181 C 
BRANCH  16  17
HETATM   17  C   UNL     1       2.936  26.385  48.426  1.00  0.00     0.002 C 
HETATM   18  C   UNL     1       3.009  25.374  47.283  1.00  0.00     0.011 C 
HETATM   19  C   UNL     1       1.922  27.483  48.097  1.00  0.00     0.011 C 
ENDBRANCH  16  17
ENDBRANCH  15  16
ENDBRANCH  11  15
ENDBRANCH   7   8
ENDBRANCH   1   7
BRANCH   3  20
HETATM   20  C   UNL     1       8.055  24.079  55.492  1.00  0.00     0.090 C 
HETATM   21  C   UNL     1       8.763  22.768  55.936  1.00  0.00     0.067 C 
HETATM   22  C   UNL     1       8.640  21.687  54.925  1.00  0.00    -0.013 A 
HETATM   23  C   UNL     1       8.090  21.863  53.678  1.00  0.00     0.035 A 
HETATM   24  C   UNL     1       9.017  20.333  54.955  1.00  0.00     0.148 A 
HETATM   25  N   UNL     1       8.172  20.660  53.042  1.00  0.00    -0.282 N 
HETATM   26  C   UNL     1       7.494  23.104  53.134  1.00  0.00     0.061 C 
HETATM   27  H   UNL     1       7.875  20.414  52.102  1.00  0.00     0.189 HD
HETATM   28  N   UNL     1       8.713  19.702  53.816  1.00  0.00    -0.187 NA
HETATM   29  C   UNL     1       7.981  24.305  53.960  1.00  0.00     0.031 C 
ENDBRANCH   3  20
TORSDOF 6
ENDMDL
MODEL 4
REMARK VINA RESULT:      -8.4      5.287      8.551
REMARK  6 active torsions:
REMARK  status: ('A' for Active; 'I' for Inactive)
REMARK    1  A    between atoms: C_2  and  C_3 
REMARK    2  A    between atoms: C_3  and  O_4 
REMARK    3  A    between atoms: O_4  and  C_5 
REMARK    4  A    between atoms: C_8  and  C_9 
REMARK    5  A    between atoms: C_9  and  N_10 
REMARK       I    between atoms: N_10  and  C_11 
REMARK       I    between atoms: C_11  and  N_12 
REMARK    6  A    between atoms: N_12  and  C_13 
ROOT
HETATM    1  N   UNL     1       5.553  27.776  52.724  1.00  0.00    -0.339 N 
HETATM    2  C   UNL     1       4.243  27.988  52.473  1.00  0.00     0.316 C 
HETATM    3  N   UNL     1       3.846  28.081  51.188  1.00  0.00    -0.338 N 
HETATM    4  O   UNL     1       3.397  28.099  53.357  1.00  0.00    -0.247 OA
HETATM    5  H   UNL     1       6.204  27.967  51.983  1.00  0.00     0.164 HD
HETATM    6  H   UNL     1       2.841  28.203  51.154  1.00  0.00     0.164 HD
ENDROOT
BRANCH   1   7
HETATM    7  C   UNL     1       6.078  27.817  54.069  1.00  0.00     0.164 C 
BRANCH   7   8
HETATM    8  C   UNL     1       6.617  26.492  54.525  1.00  0.00    -0.021 A 
HETATM    9  C   UNL     1       6.430  25.343  53.761  1.00  0.00     0.128 A 
HETATM   10  N   UNL     1       6.844  24.107  54.128  1.00  0.00    -0.235 NA
HETATM   11  C   UNL     1       7.496  24.002  55.310  1.00  0.00     0.186 A 
HETATM   12  C   UNL     1       7.763  25.096  56.131  1.00  0.00     0.087 A 
HETATM   13  C   UNL     1       7.318  26.356  55.728  1.00  0.00     0.038 A 
HETATM   14 CL   UNL     1       8.604  24.948  57.629  1.00  0.00    -0.080 Cl
BRANCH  11  15
HETATM   15  O   UNL     1       7.906  22.752  55.734  1.00  0.00    -0.333 OA
BRANCH  15  16
HETATM   16  C   UNL     1       9.020  22.235  55.002  1.00  0.00     0.181 C 
BRANCH  16  17
HETATM   17  C   UNL     1       8.782  20.742  54.719  1.00  0.00     0.002 C 
HETATM   18  C   UNL     1       8.025  20.563  53.404  1.00  0.00     0.011 C 
HETATM   19  C   UNL     1       8.017  20.076  55.865  1.00  0.00     0.011 C 
ENDBRANCH  16  17
ENDBRANCH  15  16
ENDBRANCH  11  15
ENDBRANCH   7   8
ENDBRANCH   1   7
BRANCH   3  20
HETATM   20  C   UNL     1       4.516  28.002  49.882  1.00  0.00     0.090 C 
HETATM   21  C   UNL     1       4.652  26.565  49.307  1.00  0.00     0.067 C 
HETATM   22  C   UNL     1       3.705  26.308  48.191  1.00  0.00    -0.013 A 
HETATM   23  C   UNL     1       2.901  27.272  47.632  1.00  0.00     0.035 A 
HETATM   24  C   UNL     1       3.406  25.139  47.470  1.00  0.00     0.148 A 
HETATM   25  N   UNL     1       2.197  26.664  46.636  1.00  0.00    -0.282 N 
HETATM   26  C   UNL     1       2.791  28.689  48.045  1.00  0.00     0.061 C 
HETATM   27  H   UNL     1       1.515  27.065  46.000  1.00  0.00     0.189 HD
HETATM   28  N   UNL     1       2.473  25.351  46.536  1.00  0.00    -0.187 NA
HETATM   29  C   UNL     1       4.025  29.074  48.875  1.00  0.00     0.031 C 
ENDBRANCH   3  20
TORSDOF 6
ENDMDL
MODEL 5
REMARK VINA RESULT:      -8.2      4.789      7.253
REMARK  6 active torsions:
REMARK  status: ('A' for Active; 'I' for Inactive)
REMARK    1  A    between atoms: C_2  and  C_3 
REMARK    2  A    between atoms: C_3  and  O_4 
REMARK    3  A    between atoms: O_4  and  C_5 
REMARK    4  A    between atoms: C_8  and  C_9 
REMARK    5  A    between atoms: C_9  and  N_10 
REMARK       I    between atoms: N_10  and  C_11 
REMARK       I    between atoms: C_11  and  N_12 
REMARK    6  A    between atoms: N_12  and  C_13 
ROOT
HETATM    1  N   UNL     1       6.051  26.540  55.523  1.00  0.00    -0.339 N 
HETATM    2  C   UNL     1       5.836  25.430  56.261  1.00  0.00     0.316 C 
HETATM    3  N   UNL     1       6.737  24.428  56.185  1.00  0.00    -0.338 N 
HETATM    4  O   UNL     1       4.863  25.289  56.997  1.00  0.00    -0.247 OA
HETATM    5  H   UNL     1       6.701  26.470  54.760  1.00  0.00     0.164 HD
HETATM    6  H   UNL     1       6.464  23.683  56.815  1.00  0.00     0.164 HD
ENDROOT
BRANCH   1   7
HETATM    7  C   UNL     1       5.061  27.587  55.432  1.00  0.00     0.164 C 
BRANCH   7   8
HETATM    8  C   UNL     1       4.675  27.902  54.015  1.00  0.00    -0.021 A 
HETATM    9  C   UNL     1       3.940  29.046  53.713  1.00  0.00     0.128 A 
HETATM   10  N   UNL     1       3.516  29.373  52.469  1.00  0.00    -0.235 NA
HETATM   11  C   UNL     1       3.851  28.531  51.463  1.00  0.00     0.186 A 
HETATM   12  C   UNL     1       4.612  27.380  51.656  1.00  0.00     0.087 A 
HETATM   13  C   UNL     1       5.030  27.067  52.950  1.00  0.00     0.038 A 
HETATM   14 CL   UNL     1       5.040  26.323  50.363  1.00  0.00    -0.080 Cl
BRANCH  11  15
HETATM   15  O   UNL     1       3.408  28.814  50.184  1.00  0.00    -0.333 OA
BRANCH  15  16
HETATM   16  C   UNL     1       4.140  29.862  49.543  1.00  0.00     0.181 C 
BRANCH  16  17
HETATM   17  C   UNL     1       4.583  29.382  48.151  1.00  0.00     0.002 C 
HETATM   18  C   UNL     1       4.607  30.551  47.167  1.00  0.00     0.011 C 
HETATM   19  C   UNL     1       3.667  28.271  47.631  1.00  0.00     0.011 C 
ENDBRANCH  16  17
ENDBRANCH  15  16
ENDBRANCH  11  15
ENDBRANCH   7   8
ENDBRANCH   1   7
BRANCH   3  20
HETATM   20  C   UNL     1       7.993  24.209  55.455  1.00  0.00     0.090 C 
HETATM   21  C   UNL     1       8.749  22.906  55.840  1.00  0.00     0.067 C 
HETATM   22  C   UNL     1       8.631  21.854  54.798  1.00  0.00    -0.013 A 
HETATM   23  C   UNL     1       8.046  22.053  53.571  1.00  0.00     0.035 A 
HETATM   24  C   UNL     1       9.047  20.511  54.775  1.00  0.00     0.148 A 
HETATM   25  N   UNL     1       8.146  20.875  52.894  1.00  0.00    -0.282 N 
HETATM   26  C   UNL     1       7.402  23.294  53.082  1.00  0.00     0.061 C 
HETATM   27  H   UNL     1       7.833  20.650  51.954  1.00  0.00     0.189 HD
HETATM   28  N   UNL     1       8.734  19.909  53.623  1.00  0.00    -0.187 NA
HETATM   29  C   UNL     1       7.875  24.481  53.934  1.00  0.00     0.031 C 
ENDBRANCH   3  20
TORSDOF 6
ENDMDL
MODEL 6
REMARK VINA RESULT:      -8.2      2.654      9.500
REMARK  6 active torsions:
REMARK  status: ('A' for Active; 'I' for Inactive)
REMARK    1  A    between atoms: C_2  and  C_3 
REMARK    2  A    between atoms: C_3  and  O_4 
REMARK    3  A    between atoms: O_4  and  C_5 
REMARK    4  A    between atoms: C_8  and  C_9 
REMARK    5  A    between atoms: C_9  and  N_10 
REMARK       I    between atoms: N_10  and  C_11 
REMARK       I    between atoms: C_11  and  N_12 
REMARK    6  A    between atoms: N_12  and  C_13 
ROOT
HETATM    1  N   UNL     1       6.289  27.837  57.096  1.00  0.00    -0.339 N 
HETATM    2  C   UNL     1       7.423  27.624  57.798  1.00  0.00     0.316 C 
HETATM    3  N   UNL     1       8.230  28.676  58.044  1.00  0.00    -0.338 N 
HETATM    4  O   UNL     1       7.754  26.520  58.223  1.00  0.00    -0.247 OA
HETATM    5  H   UNL     1       6.228  28.686  56.562  1.00  0.00     0.164 HD
HETATM    6  H   UNL     1       9.016  28.373  58.606  1.00  0.00     0.164 HD
ENDROOT
BRANCH   1   7
HETATM    7  C   UNL     1       5.455  26.742  56.662  1.00  0.00     0.164 C 
BRANCH   7   8
HETATM    8  C   UNL     1       6.195  25.745  55.817  1.00  0.00    -0.021 A 
HETATM    9  C   UNL     1       6.416  24.447  56.272  1.00  0.00     0.128 A 
HETATM   10  N   UNL     1       7.114  23.508  55.590  1.00  0.00    -0.235 NA
HETATM   11  C   UNL     1       7.608  23.866  54.381  1.00  0.00     0.186 A 
HETATM   12  C   UNL     1       7.412  25.128  53.822  1.00  0.00     0.087 A 
HETATM   13  C   UNL     1       6.694  26.075  54.553  1.00  0.00     0.038 A 
HETATM   14 CL   UNL     1       8.037  25.564  52.276  1.00  0.00    -0.080 Cl
BRANCH  11  15
HETATM   15  O   UNL     1       8.352  22.944  53.669  1.00  0.00    -0.333 OA
BRANCH  15  16
HETATM   16  C   UNL     1       9.223  22.157  54.484  1.00  0.00     0.181 C 
BRANCH  16  17
HETATM   17  C   UNL     1       8.888  20.670  54.281  1.00  0.00     0.002 C 
HETATM   18  C   UNL     1       8.106  20.472  52.983  1.00  0.00     0.011 C 
HETATM   19  C   UNL     1       8.095  20.113  55.466  1.00  0.00     0.011 C 
ENDBRANCH  16  17
ENDBRANCH  15  16
ENDBRANCH  11  15
ENDBRANCH   7   8
ENDBRANCH   1   7
BRANCH   3  20
HETATM   20  C   UNL     1       8.197  30.111  57.728  1.00  0.00     0.090 C 
HETATM   21  C   UNL     1       6.880  30.835  58.127  1.00  0.00     0.067 C 
HETATM   22  C   UNL     1       7.046  31.691  59.330  1.00  0.00    -0.013 A 
HETATM   23  C   UNL     1       8.254  31.933  59.937  1.00  0.00     0.035 A 
HETATM   24  C   UNL     1       6.116  32.418  60.094  1.00  0.00     0.148 A 
HETATM   25  N   UNL     1       8.005  32.770  60.983  1.00  0.00    -0.282 N 
HETATM   26  C   UNL     1       9.571  31.375  59.555  1.00  0.00     0.061 C 
HETATM   27  H   UNL     1       8.658  33.170  61.650  1.00  0.00     0.189 HD
HETATM   28  N   UNL     1       6.697  33.060  61.113  1.00  0.00    -0.187 NA
HETATM   29  C   UNL     1       9.502  30.855  58.110  1.00  0.00     0.031 C 
ENDBRANCH   3  20
TORSDOF 6
ENDMDL
MODEL 7
REMARK VINA RESULT:      -8.1      8.652     15.352
REMARK  6 active torsions:
REMARK  status: ('A' for Active; 'I' for Inactive)
REMARK    1  A    between atoms: C_2  and  C_3 
REMARK    2  A    between atoms: C_3  and  O_4 
REMARK    3  A    between atoms: O_4  and  C_5 
REMARK    4  A    between atoms: C_8  and  C_9 
REMARK    5  A    between atoms: C_9  and  N_10 
REMARK       I    between atoms: N_10  and  C_11 
REMARK       I    between atoms: C_11  and  N_12 
REMARK    6  A    between atoms: N_12  and  C_13 
ROOT
HETATM    1  N   UNL     1       5.933  34.841  67.521  1.00  0.00    -0.339 N 
HETATM    2  C   UNL     1       5.425  34.033  68.478  1.00  0.00     0.316 C 
HETATM    3  N   UNL     1       6.178  33.784  69.568  1.00  0.00    -0.338 N 
HETATM    4  O   UNL     1       4.313  33.517  68.402  1.00  0.00    -0.247 OA
HETATM    5  H   UNL     1       6.926  34.995  67.525  1.00  0.00     0.164 HD
HETATM    6  H   UNL     1       5.658  33.197  70.209  1.00  0.00     0.164 HD
ENDROOT
BRANCH   1   7
HETATM    7  C   UNL     1       5.256  35.032  66.261  1.00  0.00     0.164 C 
BRANCH   7   8
HETATM    8  C   UNL     1       5.747  34.103  65.188  1.00  0.00    -0.021 A 
HETATM    9  C   UNL     1       7.099  33.784  65.083  1.00  0.00     0.128 A 
HETATM   10  N   UNL     1       7.623  32.992  64.117  1.00  0.00    -0.235 NA
HETATM   11  C   UNL     1       6.759  32.473  63.211  1.00  0.00     0.186 A 
HETATM   12  C   UNL     1       5.386  32.704  63.250  1.00  0.00     0.087 A 
HETATM   13  C   UNL     1       4.877  33.528  64.255  1.00  0.00     0.038 A 
HETATM   14 CL   UNL     1       4.298  32.026  62.097  1.00  0.00    -0.080 Cl
BRANCH  11  15
HETATM   15  O   UNL     1       7.261  31.686  62.191  1.00  0.00    -0.333 OA
BRANCH  15  16
HETATM   16  C   UNL     1       7.925  32.430  61.166  1.00  0.00     0.181 C 
BRANCH  16  17
HETATM   17  C   UNL     1       9.336  31.851  60.965  1.00  0.00     0.002 C 
HETATM   18  C   UNL     1       9.644  31.704  59.475  1.00  0.00     0.011 C 
HETATM   19  C   UNL     1       9.488  30.502  61.672  1.00  0.00     0.011 C 
ENDBRANCH  16  17
ENDBRANCH  15  16
ENDBRANCH  11  15
ENDBRANCH   7   8
ENDBRANCH   1   7
BRANCH   3  20
HETATM   20  C   UNL     1       7.512  34.194  70.031  1.00  0.00     0.090 C 
HETATM   21  C   UNL     1       7.841  35.698  69.814  1.00  0.00     0.067 C 
HETATM   22  C   UNL     1       7.794  36.476  71.078  1.00  0.00    -0.013 A 
HETATM   23  C   UNL     1       7.624  35.912  72.319  1.00  0.00     0.035 A 
HETATM   24  C   UNL     1       7.907  37.855  71.330  1.00  0.00     0.148 A 
HETATM   25  N   UNL     1       7.656  36.934  73.221  1.00  0.00    -0.282 N 
HETATM   26  C   UNL     1       7.416  34.479  72.626  1.00  0.00     0.061 C 
HETATM   27  H   UNL     1       7.573  36.896  74.232  1.00  0.00     0.189 HD
HETATM   28  N   UNL     1       7.803  38.136  72.633  1.00  0.00    -0.187 NA
HETATM   29  C   UNL     1       7.877  33.632  71.429  1.00  0.00     0.031 C 
ENDBRANCH   3  20
TORSDOF 6
ENDMDL
MODEL 8
REMARK VINA RESULT:      -8.0      3.479     10.449
REMARK  6 active torsions:
REMARK  status: ('A' for Active; 'I' for Inactive)
REMARK    1  A    between atoms: C_2  and  C_3 
REMARK    2  A    between atoms: C_3  and  O_4 
REMARK    3  A    between atoms: O_4  and  C_5 
REMARK    4  A    between atoms: C_8  and  C_9 
REMARK    5  A    between atoms: C_9  and  N_10 
REMARK       I    between atoms: N_10  and  C_11 
REMARK       I    between atoms: C_11  and  N_12 
REMARK    6  A    between atoms: N_12  and  C_13 
ROOT
HETATM    1  N   UNL     1       8.903  31.700  60.272  1.00  0.00    -0.339 N 
HETATM    2  C   UNL     1       8.751  31.075  61.460  1.00  0.00     0.316 C 
HETATM    3  N   UNL     1       8.181  31.760  62.473  1.00  0.00    -0.338 N 
HETATM    4  O   UNL     1       9.105  29.917  61.662  1.00  0.00    -0.247 OA
HETATM    5  H   UNL     1       8.845  32.703  60.265  1.00  0.00     0.164 HD
HETATM    6  H   UNL     1       8.101  31.157  63.283  1.00  0.00     0.164 HD
ENDROOT
BRANCH   1   7
HETATM    7  C   UNL     1       9.639  31.091  59.190  1.00  0.00     0.164 C 
BRANCH   7   8
HETATM    8  C   UNL     1       8.795  30.169  58.357  1.00  0.00    -0.021 A 
HETATM    9  C   UNL     1       9.382  29.203  57.544  1.00  0.00     0.128 A 
HETATM   10  N   UNL     1       8.691  28.368  56.731  1.00  0.00    -0.235 NA
HETATM   11  C   UNL     1       7.341  28.485  56.733  1.00  0.00     0.186 A 
HETATM   12  C   UNL     1       6.658  29.396  57.535  1.00  0.00     0.087 A 
HETATM   13  C   UNL     1       7.398  30.246  58.359  1.00  0.00     0.038 A 
HETATM   14 CL   UNL     1       4.939  29.524  57.535  1.00  0.00    -0.080 Cl
BRANCH  11  15
HETATM   15  O   UNL     1       6.604  27.672  55.893  1.00  0.00    -0.333 OA
BRANCH  15  16
HETATM   16  C   UNL     1       7.262  26.449  55.553  1.00  0.00     0.181 C 
BRANCH  16  17
HETATM   17  C   UNL     1       6.762  25.336  56.488  1.00  0.00     0.002 C 
HETATM   18  C   UNL     1       6.990  23.965  55.853  1.00  0.00     0.011 C 
HETATM   19  C   UNL     1       5.281  25.522  56.828  1.00  0.00     0.011 C 
ENDBRANCH  16  17
ENDBRANCH  15  16
ENDBRANCH  11  15
ENDBRANCH   7   8
ENDBRANCH   1   7
BRANCH   3  20
HETATM   20  C   UNL     1       7.634  33.114  62.638  1.00  0.00     0.090 C 
HETATM   21  C   UNL     1       6.297  33.371  61.888  1.00  0.00     0.067 C 
HETATM   22  C   UNL     1       5.130  33.409  62.806  1.00  0.00    -0.013 A 
HETATM   23  C   UNL     1       5.231  33.368  64.176  1.00  0.00     0.035 A 
HETATM   24  C   UNL     1       3.749  33.497  62.558  1.00  0.00     0.148 A 
HETATM   25  N   UNL     1       3.961  33.444  64.664  1.00  0.00    -0.282 N 
HETATM   26  C   UNL     1       6.471  33.237  64.974  1.00  0.00     0.061 C 
HETATM   27  H   UNL     1       3.648  33.452  65.630  1.00  0.00     0.189 HD
HETATM   28  N   UNL     1       3.035  33.498  63.689  1.00  0.00    -0.187 NA
HETATM   29  C   UNL     1       7.678  33.619  64.103  1.00  0.00     0.031 C 
ENDBRANCH   3  20
TORSDOF 6
ENDMDL
MODEL 9
REMARK VINA RESULT:      -7.9      5.301      8.569
REMARK  6 active torsions:
REMARK  status: ('A' for Active; 'I' for Inactive)
REMARK    1  A    between atoms: C_2  and  C_3 
REMARK    2  A    between atoms: C_3  and  O_4 
REMARK    3  A    between atoms: O_4  and  C_5 
REMARK    4  A    between atoms: C_8  and  C_9 
REMARK    5  A    between atoms: C_9  and  N_10 
REMARK       I    between atoms: N_10  and  C_11 
REMARK       I    between atoms: C_11  and  N_12 
REMARK    6  A    between atoms: N_12  and  C_13 
ROOT
HETATM    1  N   UNL     1       5.933  28.692  53.100  1.00  0.00    -0.339 N 
HETATM    2  C   UNL     1       4.639  29.046  52.940  1.00  0.00     0.316 C 
HETATM    3  N   UNL     1       4.229  29.427  51.713  1.00  0.00    -0.338 N 
HETATM    4  O   UNL     1       3.820  29.036  53.855  1.00  0.00    -0.247 OA
HETATM    5  H   UNL     1       6.584  28.983  52.393  1.00  0.00     0.164 HD
HETATM    6  H   UNL     1       3.236  29.627  51.737  1.00  0.00     0.164 HD
ENDROOT
BRANCH   1   7
HETATM    7  C   UNL     1       6.483  28.421  54.408  1.00  0.00     0.164 C 
BRANCH   7   8
HETATM    8  C   UNL     1       6.975  27.010  54.551  1.00  0.00    -0.021 A 
HETATM    9  C   UNL     1       7.281  26.484  55.804  1.00  0.00     0.128 A 
HETATM   10  N   UNL     1       7.774  25.239  56.009  1.00  0.00    -0.235 NA
HETATM   11  C   UNL     1       7.959  24.462  54.915  1.00  0.00     0.186 A 
HETATM   12  C   UNL     1       7.652  24.883  53.622  1.00  0.00     0.087 A 
HETATM   13  C   UNL     1       7.151  26.174  53.443  1.00  0.00     0.038 A 
HETATM   14 CL   UNL     1       7.883  23.878  52.241  1.00  0.00    -0.080 Cl
BRANCH  11  15
HETATM   15  O   UNL     1       8.490  23.197  55.081  1.00  0.00    -0.333 OA
BRANCH  15  16
HETATM   16  C   UNL     1       7.582  22.268  55.679  1.00  0.00     0.181 C 
BRANCH  16  17
HETATM   17  C   UNL     1       7.931  20.850  55.197  1.00  0.00     0.002 C 
HETATM   18  C   UNL     1       8.892  20.176  56.175  1.00  0.00     0.011 C 
HETATM   19  C   UNL     1       8.538  20.875  53.792  1.00  0.00     0.011 C 
ENDBRANCH  16  17
ENDBRANCH  15  16
ENDBRANCH  11  15
ENDBRANCH   7   8
ENDBRANCH   1   7
BRANCH   3  20
HETATM   20  C   UNL     1       4.868  29.568  50.397  1.00  0.00     0.090 C 
HETATM   21  C   UNL     1       5.389  28.238  49.782  1.00  0.00     0.067 C 
HETATM   22  C   UNL     1       4.530  27.752  48.673  1.00  0.00    -0.013 A 
HETATM   23  C   UNL     1       3.478  28.464  48.149  1.00  0.00     0.035 A 
HETATM   24  C   UNL     1       4.555  26.561  47.925  1.00  0.00     0.148 A 
HETATM   25  N   UNL     1       2.953  27.706  47.146  1.00  0.00    -0.282 N 
HETATM   26  C   UNL     1       2.984  29.785  48.601  1.00  0.00     0.061 C 
HETATM   27  H   UNL     1       2.173  27.914  46.530  1.00  0.00     0.189 HD
HETATM   28  N   UNL     1       3.582  26.525  47.009  1.00  0.00    -0.187 NA
HETATM   29  C   UNL     1       4.079  30.481  49.425  1.00  0.00     0.031 C 
ENDBRANCH   3  20
TORSDOF 6
ENDMDL
MODEL 10
REMARK VINA RESULT:      -7.7      2.040      2.752
REMARK  6 active torsions:
REMARK  status: ('A' for Active; 'I' for Inactive)
REMARK    1  A    between atoms: C_2  and  C_3 
REMARK    2  A    between atoms: C_3  and  O_4 
REMARK    3  A    between atoms: O_4  and  C_5 
REMARK    4  A    between atoms: C_8  and  C_9 
REMARK    5  A    between atoms: C_9  and  N_10 
REMARK       I    between atoms: N_10  and  C_11 
REMARK       I    between atoms: C_11  and  N_12 
REMARK    6  A    between atoms: N_12  and  C_13 
ROOT
HETATM    1  N   UNL     1       6.198  29.167  56.034  1.00  0.00    -0.339 N 
HETATM    2  C   UNL     1       5.358  28.145  55.757  1.00  0.00     0.316 C 
HETATM    3  N   UNL     1       5.889  26.982  55.326  1.00  0.00    -0.338 N 
HETATM    4  O   UNL     1       4.139  28.223  55.880  1.00  0.00    -0.247 OA
HETATM    5  H   UNL     1       7.127  29.118  55.656  1.00  0.00     0.164 HD
HETATM    6  H   UNL     1       5.149  26.303  55.195  1.00  0.00     0.164 HD
ENDROOT
BRANCH   1   7
HETATM    7  C   UNL     1       5.700  30.484  56.351  1.00  0.00     0.164 C 
BRANCH   7   8
HETATM    8  C   UNL     1       6.170  30.978  57.689  1.00  0.00    -0.021 A 
HETATM    9  C   UNL     1       5.406  31.880  58.426  1.00  0.00     0.128 A 
HETATM   10  N   UNL     1       5.784  32.405  59.616  1.00  0.00    -0.235 NA
HETATM   11  C   UNL     1       6.978  32.004  60.115  1.00  0.00     0.186 A 
HETATM   12  C   UNL     1       7.799  31.081  59.471  1.00  0.00     0.087 A 
HETATM   13  C   UNL     1       7.384  30.561  58.244  1.00  0.00     0.038 A 
HETATM   14 CL   UNL     1       9.310  30.571  60.125  1.00  0.00    -0.080 Cl
BRANCH  11  15
HETATM   15  O   UNL     1       7.412  32.543  61.311  1.00  0.00    -0.333 OA
BRANCH  15  16
HETATM   16  C   UNL     1       6.357  32.793  62.244  1.00  0.00     0.181 C 
BRANCH  16  17
HETATM   17  C   UNL     1       6.817  33.870  63.240  1.00  0.00     0.002 C 
HETATM   18  C   UNL     1       7.420  33.221  64.486  1.00  0.00     0.011 C 
HETATM   19  C   UNL     1       5.662  34.794  63.631  1.00  0.00     0.011 C 
ENDBRANCH  16  17
ENDBRANCH  15  16
ENDBRANCH  11  15
ENDBRANCH   7   8
ENDBRANCH   1   7
BRANCH   3  20
HETATM   20  C   UNL     1       7.249  26.492  55.060  1.00  0.00     0.090 C 
HETATM   21  C   UNL     1       7.576  25.109  55.690  1.00  0.00     0.067 C 
HETATM   22  C   UNL     1       7.605  24.019  54.681  1.00  0.00    -0.013 A 
HETATM   23  C   UNL     1       7.499  24.226  53.326  1.00  0.00     0.035 A 
HETATM   24  C   UNL     1       7.741  22.626  54.814  1.00  0.00     0.148 A 
HETATM   25  N   UNL     1       7.588  23.001  52.736  1.00  0.00    -0.282 N 
HETATM   26  C   UNL     1       7.298  25.520  52.636  1.00  0.00     0.061 C 
HETATM   27  H   UNL     1       7.560  22.765  51.748  1.00  0.00     0.189 HD
HETATM   28  N   UNL     1       7.711  22.004  53.631  1.00  0.00    -0.187 NA
HETATM   29  C   UNL     1       7.686  26.666  53.583  1.00  0.00     0.031 C 
ENDBRANCH   3  20
TORSDOF 6
ENDMDL
