MODEL 1
REMARK VINA RESULT:      -9.3      0.000      0.000
REMARK  2 active torsions:
REMARK  status: ('A' for Active; 'I' for Inactive)
REMARK    1  A    between atoms: N_3  and  C_4 
REMARK    2  A    between atoms: C_12  and  C_13 
REMARK       I    between atoms: C_13  and  N_14 
ROOT
HETATM    1  C   UNL     1       5.409  28.249  54.629  1.00  0.00     0.262 C 
HETATM    2  N   UNL     1       5.669  29.345  55.473  1.00  0.00    -0.311 N 
HETATM    3  C   UNL     1       6.725  29.449  56.417  1.00  0.00     0.064 A 
HETATM    4  C   UNL     1       6.578  30.096  57.662  1.00  0.00     0.061 A 
HETATM    5  C   UNL     1       7.687  30.151  58.528  1.00  0.00     0.032 A 
HETATM    6  C   UNL     1       8.922  29.609  58.174  1.00  0.00     0.002 A 
HETATM    7  C   UNL     1       9.076  29.005  56.936  1.00  0.00     0.002 A 
HETATM    8  C   UNL     1       7.989  28.933  56.065  1.00  0.00     0.032 A 
HETATM    9  N   UNL     1       5.410  30.689  58.188  1.00  0.00    -0.325 N 
HETATM   10  C   UNL     1       4.153  30.909  57.722  1.00  0.00     0.227 C 
HETATM   11  O   UNL     1       3.380  31.496  58.486  1.00  0.00    -0.273 OA
HETATM   12  C   UNL     1       3.685  30.403  56.377  1.00  0.00     0.092 C 
HETATM   13  C   UNL     1       2.461  31.197  55.908  1.00  0.00     0.021 C 
HETATM   14  C   UNL     1       4.797  30.509  55.355  1.00  0.00     0.146 C 
HETATM   15  O   UNL     1       4.697  28.372  53.630  1.00  0.00    -0.267 OA
HETATM   16  H   UNL     1       5.496  31.089  59.117  1.00  0.00     0.169 HD
ENDROOT
BRANCH   1  17
HETATM   17  C   UNL     1       5.898  26.917  54.996  1.00  0.00     0.075 C 
HETATM   18  C   UNL     1       6.829  26.160  54.286  1.00  0.00     0.050 C 
HETATM   19  C   UNL     1       7.634  26.572  53.103  1.00  0.00     0.071 C 
HETATM   20  N   UNL     1       6.922  24.930  54.932  1.00  0.00    -0.238 N 
HETATM   21  N   UNL     1       6.210  24.938  56.090  1.00  0.00    -0.179 NA
HETATM   22  C   UNL     1       5.531  26.081  56.066  1.00  0.00     0.158 C 
BRANCH  20  23
HETATM   23  C   UNL     1       7.612  23.735  54.568  1.00  0.00     0.061 A 
HETATM   24  C   UNL     1       8.574  23.217  55.444  1.00  0.00     0.051 A 
HETATM   25  C   UNL     1       9.241  22.058  55.087  1.00  0.00     0.118 A 
HETATM   26  N   UNL     1       9.005  21.382  53.944  1.00  0.00    -0.273 NA
HETATM   27  C   UNL     1       8.052  21.880  53.130  1.00  0.00     0.118 A 
HETATM   28  C   UNL     1       7.335  23.038  53.392  1.00  0.00     0.051 A 
ENDBRANCH  20  23
ENDBRANCH   1  17
TORSDOF 2
ENDMDL
MODEL 2
REMARK VINA RESULT:      -9.1      1.504      1.959
REMARK  2 active torsions:
REMARK  status: ('A' for Active; 'I' for Inactive)
REMARK    1  A    between atoms: N_3  and  C_4 
REMARK    2  A    between atoms: C_12  and  C_13 
REMARK       I    between atoms: C_13  and  N_14 
ROOT
HETATM    1  C   UNL     1       6.132  28.651  55.883  1.00  0.00     0.262 C 
HETATM    2  N   UNL     1       6.768  29.765  56.464  1.00  0.00    -0.311 N 
HETATM    3  C   UNL     1       8.138  29.858  56.827  1.00  0.00     0.064 A 
HETATM    4  C   UNL     1       8.581  30.554  57.971  1.00  0.00     0.061 A 
HETATM    5  C   UNL     1       9.963  30.594  58.242  1.00  0.00     0.032 A 
HETATM    6  C   UNL     1      10.894  29.989  57.399  1.00  0.00     0.002 A 
HETATM    7  C   UNL     1      10.461  29.335  56.256  1.00  0.00     0.002 A 
HETATM    8  C   UNL     1       9.097  29.277  55.970  1.00  0.00     0.032 A 
HETATM    9  N   UNL     1       7.789  31.214  58.933  1.00  0.00    -0.325 N 
HETATM   10  C   UNL     1       6.461  31.469  59.072  1.00  0.00     0.227 C 
HETATM   11  O   UNL     1       6.128  32.116  60.071  1.00  0.00    -0.273 OA
HETATM   12  C   UNL     1       5.427  30.936  58.108  1.00  0.00     0.092 C 
HETATM   13  C   UNL     1       4.141  31.763  58.199  1.00  0.00     0.021 C 
HETATM   14  C   UNL     1       5.961  30.959  56.692  1.00  0.00     0.146 C 
HETATM   15  O   UNL     1       5.050  28.768  55.305  1.00  0.00    -0.267 OA
HETATM   16  H   UNL     1       8.292  31.643  59.704  1.00  0.00     0.169 HD
ENDROOT
BRANCH   1  17
HETATM   17  C   UNL     1       6.706  27.314  56.059  1.00  0.00     0.075 C 
HETATM   18  C   UNL     1       7.215  26.500  55.047  1.00  0.00     0.050 C 
HETATM   19  C   UNL     1       7.427  26.844  53.614  1.00  0.00     0.071 C 
HETATM   20  N   UNL     1       7.558  25.288  55.641  1.00  0.00    -0.238 N 
HETATM   21  N   UNL     1       7.426  25.360  56.993  1.00  0.00    -0.179 NA
HETATM   22  C   UNL     1       6.829  26.526  57.217  1.00  0.00     0.158 C 
BRANCH  20  23
HETATM   23  C   UNL     1       7.993  24.058  55.066  1.00  0.00     0.061 A 
HETATM   24  C   UNL     1       7.358  23.592  53.907  1.00  0.00     0.051 A 
HETATM   25  C   UNL     1       7.783  22.398  53.353  1.00  0.00     0.118 A 
HETATM   26  N   UNL     1       8.792  21.657  53.854  1.00  0.00    -0.273 NA
HETATM   27  C   UNL     1       9.411  22.140  54.951  1.00  0.00     0.118 A 
HETATM   28  C   UNL     1       9.055  23.320  55.588  1.00  0.00     0.051 A 
ENDBRANCH  20  23
ENDBRANCH   1  17
TORSDOF 2
ENDMDL
MODEL 3
REMARK VINA RESULT:      -8.8      1.530      1.779
REMARK  2 active torsions:
REMARK  status: ('A' for Active; 'I' for Inactive)
REMARK    1  A    between atoms: N_3  and  C_4 
REMARK    2  A    between atoms: C_12  and  C_13 
REMARK       I    between atoms: C_13  and  N_14 
ROOT
HETATM    1  C   UNL     1       6.146  27.147  53.365  1.00  0.00     0.262 C 
HETATM    2  N   UNL     1       6.093  28.314  54.151  1.00  0.00    -0.311 N 
HETATM    3  C   UNL     1       6.694  28.499  55.426  1.00  0.00     0.064 A 
HETATM    4  C   UNL     1       6.091  29.254  56.453  1.00  0.00     0.061 A 
HETATM    5  C   UNL     1       6.770  29.383  57.681  1.00  0.00     0.032 A 
HETATM    6  C   UNL     1       8.022  28.808  57.891  1.00  0.00     0.002 A 
HETATM    7  C   UNL     1       8.630  28.096  56.869  1.00  0.00     0.002 A 
HETATM    8  C   UNL     1       7.974  27.950  55.647  1.00  0.00     0.032 A 
HETATM    9  N   UNL     1       4.835  29.895  56.423  1.00  0.00    -0.325 N 
HETATM   10  C   UNL     1       3.873  30.075  55.480  1.00  0.00     0.227 C 
HETATM   11  O   UNL     1       2.883  30.731  55.825  1.00  0.00    -0.273 OA
HETATM   12  C   UNL     1       3.955  29.453  54.106  1.00  0.00     0.092 C 
HETATM   13  C   UNL     1       3.047  30.205  53.128  1.00  0.00     0.021 C 
HETATM   14  C   UNL     1       5.383  29.464  53.604  1.00  0.00     0.146 C 
HETATM   15  O   UNL     1       5.893  27.183  52.159  1.00  0.00    -0.267 OA
HETATM   16  H   UNL     1       4.561  30.375  57.274  1.00  0.00     0.169 HD
ENDROOT
BRANCH   1  17
HETATM   17  C   UNL     1       6.400  25.852  54.002  1.00  0.00     0.075 C 
HETATM   18  C   UNL     1       7.256  24.858  53.529  1.00  0.00     0.050 C 
HETATM   19  C   UNL     1       8.198  24.932  52.378  1.00  0.00     0.071 C 
HETATM   20  N   UNL     1       7.114  23.767  54.382  1.00  0.00    -0.238 N 
HETATM   21  N   UNL     1       6.328  24.085  55.445  1.00  0.00    -0.179 NA
HETATM   22  C   UNL     1       5.834  25.285  55.158  1.00  0.00     0.158 C 
BRANCH  20  23
HETATM   23  C   UNL     1       7.639  22.443  54.299  1.00  0.00     0.061 A 
HETATM   24  C   UNL     1       7.997  21.783  55.482  1.00  0.00     0.051 A 
HETATM   25  C   UNL     1       8.506  20.499  55.396  1.00  0.00     0.118 A 
HETATM   26  N   UNL     1       8.664  19.833  54.235  1.00  0.00    -0.273 NA
HETATM   27  C   UNL     1       8.283  20.475  53.111  1.00  0.00     0.118 A 
HETATM   28  C   UNL     1       7.771  21.764  53.088  1.00  0.00     0.051 A 
ENDBRANCH  20  23
ENDBRANCH   1  17
TORSDOF 2
ENDMDL
MODEL 4
REMARK VINA RESULT:      -7.7      4.892      8.147
REMARK  2 active torsions:
REMARK  status: ('A' for Active; 'I' for Inactive)
REMARK    1  A    between atoms: N_3  and  C_4 
REMARK    2  A    between atoms: C_12  and  C_13 
REMARK       I    between atoms: C_13  and  N_14 
ROOT
HETATM    1  C   UNL     1       4.936  27.027  51.016  1.00  0.00     0.262 C 
HETATM    2  N   UNL     1       4.801  27.482  49.690  1.00  0.00    -0.311 N 
HETATM    3  C   UNL     1       4.828  28.835  49.258  1.00  0.00     0.064 A 
HETATM    4  C   UNL     1       4.021  29.320  48.208  1.00  0.00     0.061 A 
HETATM    5  C   UNL     1       4.125  30.678  47.849  1.00  0.00     0.032 A 
HETATM    6  C   UNL     1       5.019  31.538  48.485  1.00  0.00     0.002 A 
HETATM    7  C   UNL     1       5.838  31.054  49.492  1.00  0.00     0.002 A 
HETATM    8  C   UNL     1       5.747  29.714  49.869  1.00  0.00     0.032 A 
HETATM    9  N   UNL     1       3.062  28.602  47.462  1.00  0.00    -0.325 N 
HETATM   10  C   UNL     1       2.652  27.306  47.421  1.00  0.00     0.227 C 
HETATM   11  O   UNL     1       1.772  27.036  46.597  1.00  0.00    -0.273 OA
HETATM   12  C   UNL     1       3.177  26.258  48.374  1.00  0.00     0.092 C 
HETATM   13  C   UNL     1       2.950  24.857  47.798  1.00  0.00     0.021 C 
HETATM   14  C   UNL     1       4.650  26.477  48.644  1.00  0.00     0.146 C 
HETATM   15  O   UNL     1       5.231  25.855  51.257  1.00  0.00    -0.267 OA
HETATM   16  H   UNL     1       2.561  29.132  46.757  1.00  0.00     0.169 HD
ENDROOT
BRANCH   1  17
HETATM   17  C   UNL     1       4.617  27.926  52.129  1.00  0.00     0.075 C 
HETATM   18  C   UNL     1       5.479  28.292  53.162  1.00  0.00     0.050 C 
HETATM   19  C   UNL     1       6.930  27.984  53.296  1.00  0.00     0.071 C 
HETATM   20  N   UNL     1       4.738  29.070  54.047  1.00  0.00    -0.238 N 
HETATM   21  N   UNL     1       3.502  29.329  53.542  1.00  0.00    -0.179 NA
HETATM   22  C   UNL     1       3.409  28.567  52.457  1.00  0.00     0.158 C 
BRANCH  20  23
HETATM   23  C   UNL     1       5.070  29.593  55.332  1.00  0.00     0.061 A 
HETATM   24  C   UNL     1       4.978  30.975  55.542  1.00  0.00     0.051 A 
HETATM   25  C   UNL     1       5.301  31.480  56.789  1.00  0.00     0.118 A 
HETATM   26  N   UNL     1       5.685  30.712  57.829  1.00  0.00    -0.273 NA
HETATM   27  C   UNL     1       5.736  29.382  57.615  1.00  0.00     0.118 A 
HETATM   28  C   UNL     1       5.442  28.779  56.401  1.00  0.00     0.051 A 
ENDBRANCH  20  23
ENDBRANCH   1  17
TORSDOF 2
ENDMDL
MODEL 5
REMARK VINA RESULT:      -7.6      2.869      4.699
REMARK  2 active torsions:
REMARK  status: ('A' for Active; 'I' for Inactive)
REMARK    1  A    between atoms: N_3  and  C_4 
REMARK    2  A    between atoms: C_12  and  C_13 
REMARK       I    between atoms: C_13  and  N_14 
ROOT
HETATM    1  C   UNL     1       6.283  31.919  58.019  1.00  0.00     0.262 C 
HETATM    2  N   UNL     1       6.318  32.316  59.369  1.00  0.00    -0.311 N 
HETATM    3  C   UNL     1       7.294  31.944  60.332  1.00  0.00     0.064 A 
HETATM    4  C   UNL     1       6.982  31.702  61.686  1.00  0.00     0.061 A 
HETATM    5  C   UNL     1       8.023  31.343  62.564  1.00  0.00     0.032 A 
HETATM    6  C   UNL     1       9.345  31.246  62.134  1.00  0.00     0.002 A 
HETATM    7  C   UNL     1       9.657  31.518  60.811  1.00  0.00     0.002 A 
HETATM    8  C   UNL     1       8.642  31.870  59.922  1.00  0.00     0.032 A 
HETATM    9  N   UNL     1       5.708  31.744  62.292  1.00  0.00    -0.325 N 
HETATM   10  C   UNL     1       4.457  32.070  61.874  1.00  0.00     0.227 C 
HETATM   11  O   UNL     1       3.561  32.004  62.723  1.00  0.00    -0.273 OA
HETATM   12  C   UNL     1       4.146  32.420  60.437  1.00  0.00     0.092 C 
HETATM   13  C   UNL     1       2.835  33.208  60.356  1.00  0.00     0.021 C 
HETATM   14  C   UNL     1       5.276  33.225  59.832  1.00  0.00     0.146 C 
HETATM   15  O   UNL     1       5.612  32.540  57.192  1.00  0.00    -0.267 OA
HETATM   16  H   UNL     1       5.681  31.518  63.281  1.00  0.00     0.169 HD
ENDROOT
BRANCH   1  17
HETATM   17  C   UNL     1       6.963  30.689  57.606  1.00  0.00     0.075 C 
HETATM   18  C   UNL     1       6.345  29.490  57.246  1.00  0.00     0.050 C 
HETATM   19  C   UNL     1       4.892  29.230  57.059  1.00  0.00     0.071 C 
HETATM   20  N   UNL     1       7.362  28.565  57.028  1.00  0.00    -0.238 N 
HETATM   21  N   UNL     1       8.581  29.164  57.089  1.00  0.00    -0.179 NA
HETATM   22  C   UNL     1       8.336  30.395  57.527  1.00  0.00     0.158 C 
BRANCH  20  23
HETATM   23  C   UNL     1       7.308  27.162  56.773  1.00  0.00     0.061 A 
HETATM   24  C   UNL     1       7.043  26.723  55.469  1.00  0.00     0.051 A 
HETATM   25  C   UNL     1       6.991  25.361  55.227  1.00  0.00     0.118 A 
HETATM   26  N   UNL     1       7.198  24.424  56.174  1.00  0.00    -0.273 NA
HETATM   27  C   UNL     1       7.484  24.869  57.415  1.00  0.00     0.118 A 
HETATM   28  C   UNL     1       7.550  26.210  57.763  1.00  0.00     0.051 A 
ENDBRANCH  20  23
ENDBRANCH   1  17
TORSDOF 2
ENDMDL
MODEL 6
REMARK VINA RESULT:      -7.6      7.566     12.446
REMARK  2 active torsions:
REMARK  status: ('A' for Active; 'I' for Inactive)
REMARK    1  A    between atoms: N_3  and  C_4 
REMARK    2  A    between atoms: C_12  and  C_13 
REMARK       I    between atoms: C_13  and  N_14 
ROOT
HETATM    1  C   UNL     1       3.508  34.508  62.477  1.00  0.00     0.262 C 
HETATM    2  N   UNL     1       4.368  33.493  62.014  1.00  0.00    -0.311 N 
HETATM    3  C   UNL     1       5.665  33.197  62.511  1.00  0.00     0.064 A 
HETATM    4  C   UNL     1       6.725  32.777  61.681  1.00  0.00     0.061 A 
HETATM    5  C   UNL     1       7.975  32.503  62.270  1.00  0.00     0.032 A 
HETATM    6  C   UNL     1       8.177  32.611  63.645  1.00  0.00     0.002 A 
HETATM    7  C   UNL     1       7.125  32.989  64.465  1.00  0.00     0.002 A 
HETATM    8  C   UNL     1       5.881  33.272  63.903  1.00  0.00     0.032 A 
HETATM    9  N   UNL     1       6.707  32.622  60.278  1.00  0.00    -0.325 N 
HETATM   10  C   UNL     1       5.755  32.728  59.314  1.00  0.00     0.227 C 
HETATM   11  O   UNL     1       6.118  32.490  58.157  1.00  0.00    -0.273 OA
HETATM   12  C   UNL     1       4.345  33.183  59.611  1.00  0.00     0.092 C 
HETATM   13  C   UNL     1       3.397  32.734  58.495  1.00  0.00     0.021 C 
HETATM   14  C   UNL     1       3.880  32.633  60.942  1.00  0.00     0.146 C 
HETATM   15  O   UNL     1       2.302  34.480  62.226  1.00  0.00    -0.267 OA
HETATM   16  H   UNL     1       7.581  32.330  59.853  1.00  0.00     0.169 HD
ENDROOT
BRANCH   1  17
HETATM   17  C   UNL     1       4.065  35.670  63.173  1.00  0.00     0.075 C 
HETATM   18  C   UNL     1       4.695  36.762  62.574  1.00  0.00     0.050 C 
HETATM   19  C   UNL     1       4.816  37.066  61.122  1.00  0.00     0.071 C 
HETATM   20  N   UNL     1       5.156  37.574  63.606  1.00  0.00    -0.238 N 
HETATM   21  N   UNL     1       4.717  37.121  64.810  1.00  0.00    -0.179 NA
HETATM   22  C   UNL     1       4.158  35.943  64.549  1.00  0.00     0.158 C 
BRANCH  20  23
HETATM   23  C   UNL     1       5.980  38.738  63.579  1.00  0.00     0.061 A 
HETATM   24  C   UNL     1       6.018  39.565  64.710  1.00  0.00     0.051 A 
HETATM   25  C   UNL     1       6.818  40.694  64.679  1.00  0.00     0.118 A 
HETATM   26  N   UNL     1       7.584  41.039  63.625  1.00  0.00    -0.273 NA
HETATM   27  C   UNL     1       7.558  40.212  62.560  1.00  0.00     0.118 A 
HETATM   28  C   UNL     1       6.783  39.064  62.487  1.00  0.00     0.051 A 
ENDBRANCH  20  23
ENDBRANCH   1  17
TORSDOF 2
ENDMDL
MODEL 7
REMARK VINA RESULT:      -7.6      3.338      4.587
REMARK  2 active torsions:
REMARK  status: ('A' for Active; 'I' for Inactive)
REMARK    1  A    between atoms: N_3  and  C_4 
REMARK    2  A    between atoms: C_12  and  C_13 
REMARK       I    between atoms: C_13  and  N_14 
ROOT
HETATM    1  C   UNL     1       5.507  26.675  51.081  1.00  0.00     0.262 C 
HETATM    2  N   UNL     1       4.902  27.935  51.260  1.00  0.00    -0.311 N 
HETATM    3  C   UNL     1       4.768  28.637  52.488  1.00  0.00     0.064 A 
HETATM    4  C   UNL     1       3.635  29.416  52.804  1.00  0.00     0.061 A 
HETATM    5  C   UNL     1       3.599  30.079  54.047  1.00  0.00     0.032 A 
HETATM    6  C   UNL     1       4.659  30.004  54.949  1.00  0.00     0.002 A 
HETATM    7  C   UNL     1       5.787  29.268  54.623  1.00  0.00     0.002 A 
HETATM    8  C   UNL     1       5.843  28.598  53.401  1.00  0.00     0.032 A 
HETATM    9  N   UNL     1       2.475  29.598  52.023  1.00  0.00    -0.325 N 
HETATM   10  C   UNL     1       2.082  29.205  50.783  1.00  0.00     0.227 C 
HETATM   11  O   UNL     1       0.965  29.586  50.416  1.00  0.00    -0.273 OA
HETATM   12  C   UNL     1       2.917  28.291  49.918  1.00  0.00     0.092 C 
HETATM   13  C   UNL     1       2.503  28.426  48.449  1.00  0.00     0.021 C 
HETATM   14  C   UNL     1       4.388  28.611  50.075  1.00  0.00     0.146 C 
HETATM   15  O   UNL     1       5.873  26.301  49.965  1.00  0.00    -0.267 OA
HETATM   16  H   UNL     1       1.752  30.181  52.433  1.00  0.00     0.169 HD
ENDROOT
BRANCH   1  17
HETATM   17  C   UNL     1       5.606  25.750  52.212  1.00  0.00     0.075 C 
HETATM   18  C   UNL     1       6.776  25.154  52.685  1.00  0.00     0.050 C 
HETATM   19  C   UNL     1       8.177  25.423  52.261  1.00  0.00     0.071 C 
HETATM   20  N   UNL     1       6.397  24.276  53.698  1.00  0.00    -0.238 N 
HETATM   21  N   UNL     1       5.073  24.406  53.979  1.00  0.00    -0.179 NA
HETATM   22  C   UNL     1       4.599  25.206  53.029  1.00  0.00     0.158 C 
BRANCH  20  23
HETATM   23  C   UNL     1       7.155  23.316  54.431  1.00  0.00     0.061 A 
HETATM   24  C   UNL     1       7.400  23.544  55.791  1.00  0.00     0.051 A 
HETATM   25  C   UNL     1       8.136  22.609  56.498  1.00  0.00     0.118 A 
HETATM   26  N   UNL     1       8.621  21.474  55.956  1.00  0.00    -0.273 NA
HETATM   27  C   UNL     1       8.346  21.258  54.654  1.00  0.00     0.118 A 
HETATM   28  C   UNL     1       7.627  22.136  53.856  1.00  0.00     0.051 A 
ENDBRANCH  20  23
ENDBRANCH   1  17
TORSDOF 2
ENDMDL
MODEL 8
REMARK VINA RESULT:      -7.3      3.794      9.070
REMARK  2 active torsions:
REMARK  status: ('A' for Active; 'I' for Inactive)
REMARK    1  A    between atoms: N_3  and  C_4 
REMARK    2  A    between atoms: C_12  and  C_13 
REMARK       I    between atoms: C_13  and  N_14 
ROOT
HETATM    1  C   UNL     1       5.361  30.575  57.670  1.00  0.00     0.262 C 
HETATM    2  N   UNL     1       6.681  30.173  57.948  1.00  0.00    -0.311 N 
HETATM    3  C   UNL     1       7.634  30.887  58.723  1.00  0.00     0.064 A 
HETATM    4  C   UNL     1       9.010  30.910  58.413  1.00  0.00     0.061 A 
HETATM    5  C   UNL     1       9.876  31.644  59.247  1.00  0.00     0.032 A 
HETATM    6  C   UNL     1       9.411  32.319  60.375  1.00  0.00     0.002 A 
HETATM    7  C   UNL     1       8.065  32.266  60.699  1.00  0.00     0.002 A 
HETATM    8  C   UNL     1       7.187  31.551  59.884  1.00  0.00     0.032 A 
HETATM    9  N   UNL     1       9.652  30.298  57.317  1.00  0.00    -0.325 N 
HETATM   10  C   UNL     1       9.254  29.484  56.303  1.00  0.00     0.227 C 
HETATM   11  O   UNL     1      10.134  29.120  55.515  1.00  0.00    -0.273 OA
HETATM   12  C   UNL     1       7.809  29.097  56.093  1.00  0.00     0.092 C 
HETATM   13  C   UNL     1       7.719  27.826  55.243  1.00  0.00     0.021 C 
HETATM   14  C   UNL     1       7.118  28.884  57.423  1.00  0.00     0.146 C 
HETATM   15  O   UNL     1       4.518  29.763  57.285  1.00  0.00    -0.267 OA
HETATM   16  H   UNL     1      10.654  30.447  57.250  1.00  0.00     0.169 HD
ENDROOT
BRANCH   1  17
HETATM   17  C   UNL     1       5.005  31.995  57.734  1.00  0.00     0.075 C 
HETATM   18  C   UNL     1       4.138  32.584  58.655  1.00  0.00     0.050 C 
HETATM   19  C   UNL     1       3.503  31.956  59.846  1.00  0.00     0.071 C 
HETATM   20  N   UNL     1       4.012  33.921  58.288  1.00  0.00    -0.238 N 
HETATM   21  N   UNL     1       4.869  34.227  57.278  1.00  0.00    -0.179 NA
HETATM   22  C   UNL     1       5.378  33.061  56.895  1.00  0.00     0.158 C 
BRANCH  20  23
HETATM   23  C   UNL     1       3.156  34.948  58.787  1.00  0.00     0.061 A 
HETATM   24  C   UNL     1       1.997  35.269  58.069  1.00  0.00     0.051 A 
HETATM   25  C   UNL     1       1.170  36.266  58.557  1.00  0.00     0.118 A 
HETATM   26  N   UNL     1       1.406  36.940  59.700  1.00  0.00    -0.273 NA
HETATM   27  C   UNL     1       2.510  36.593  60.392  1.00  0.00     0.118 A 
HETATM   28  C   UNL     1       3.407  35.616  59.985  1.00  0.00     0.051 A 
ENDBRANCH  20  23
ENDBRANCH   1  17
TORSDOF 2
ENDMDL
MODEL 9
REMARK VINA RESULT:      -7.1      5.972      9.374
REMARK  2 active torsions:
REMARK  status: ('A' for Active; 'I' for Inactive)
REMARK    1  A    between atoms: N_3  and  C_4 
REMARK    2  A    between atoms: C_12  and  C_13 
REMARK       I    between atoms: C_13  and  N_14 
ROOT
HETATM    1  C   UNL     1       3.827  33.749  62.177  1.00  0.00     0.262 C 
HETATM    2  N   UNL     1       3.797  35.156  62.140  1.00  0.00    -0.311 N 
HETATM    3  C   UNL     1       4.008  35.973  60.997  1.00  0.00     0.064 A 
HETATM    4  C   UNL     1       4.679  37.212  61.055  1.00  0.00     0.061 A 
HETATM    5  C   UNL     1       4.834  37.952  59.866  1.00  0.00     0.032 A 
HETATM    6  C   UNL     1       4.321  37.502  58.651  1.00  0.00     0.002 A 
HETATM    7  C   UNL     1       3.631  36.301  58.600  1.00  0.00     0.002 A 
HETATM    8  C   UNL     1       3.471  35.549  59.763  1.00  0.00     0.032 A 
HETATM    9  N   UNL     1       5.266  37.817  62.187  1.00  0.00    -0.325 N 
HETATM   10  C   UNL     1       5.335  37.513  63.510  1.00  0.00     0.227 C 
HETATM   11  O   UNL     1       5.939  38.318  64.227  1.00  0.00    -0.273 OA
HETATM   12  C   UNL     1       4.778  36.228  64.078  1.00  0.00     0.092 C 
HETATM   13  C   UNL     1       4.540  36.375  65.584  1.00  0.00     0.021 C 
HETATM   14  C   UNL     1       3.487  35.857  63.380  1.00  0.00     0.146 C 
HETATM   15  O   UNL     1       3.313  33.128  63.109  1.00  0.00    -0.267 OA
HETATM   16  H   UNL     1       5.727  38.707  62.025  1.00  0.00     0.169 HD
ENDROOT
BRANCH   1  17
HETATM   17  C   UNL     1       4.571  33.011  61.153  1.00  0.00     0.075 C 
HETATM   18  C   UNL     1       5.919  32.656  61.213  1.00  0.00     0.050 C 
HETATM   19  C   UNL     1       6.855  32.808  62.361  1.00  0.00     0.071 C 
HETATM   20  N   UNL     1       6.232  32.062  59.994  1.00  0.00    -0.238 N 
HETATM   21  N   UNL     1       5.115  31.896  59.237  1.00  0.00    -0.179 NA
HETATM   22  C   UNL     1       4.159  32.549  59.890  1.00  0.00     0.158 C 
BRANCH  20  23
HETATM   23  C   UNL     1       7.484  31.638  59.458  1.00  0.00     0.061 A 
HETATM   24  C   UNL     1       7.508  30.543  58.584  1.00  0.00     0.051 A 
HETATM   25  C   UNL     1       8.725  30.134  58.066  1.00  0.00     0.118 A 
HETATM   26  N   UNL     1       9.896  30.742  58.341  1.00  0.00    -0.273 NA
HETATM   27  C   UNL     1       9.846  31.814  59.159  1.00  0.00     0.118 A 
HETATM   28  C   UNL     1       8.681  32.296  59.736  1.00  0.00     0.051 A 
ENDBRANCH  20  23
ENDBRANCH   1  17
TORSDOF 2
ENDMDL
MODEL 10
REMARK VINA RESULT:      -6.9      4.950      8.005
REMARK  2 active torsions:
REMARK  status: ('A' for Active; 'I' for Inactive)
REMARK    1  A    between atoms: N_3  and  C_4 
REMARK    2  A    between atoms: C_12  and  C_13 
REMARK       I    between atoms: C_13  and  N_14 
ROOT
HETATM    1  C   UNL     1       4.876  26.515  51.021  1.00  0.00     0.262 C 
HETATM    2  N   UNL     1       4.978  26.292  52.408  1.00  0.00    -0.311 N 
HETATM    3  C   UNL     1       4.783  27.257  53.432  1.00  0.00     0.064 A 
HETATM    4  C   UNL     1       5.541  27.276  54.621  1.00  0.00     0.061 A 
HETATM    5  C   UNL     1       5.267  28.271  55.580  1.00  0.00     0.032 A 
HETATM    6  C   UNL     1       4.256  29.212  55.392  1.00  0.00     0.002 A 
HETATM    7  C   UNL     1       3.487  29.172  54.239  1.00  0.00     0.002 A 
HETATM    8  C   UNL     1       3.744  28.199  53.273  1.00  0.00     0.032 A 
HETATM    9  N   UNL     1       6.601  26.414  54.976  1.00  0.00    -0.325 N 
HETATM   10  C   UNL     1       7.177  25.320  54.412  1.00  0.00     0.227 C 
HETATM   11  O   UNL     1       8.102  24.800  55.046  1.00  0.00    -0.273 OA
HETATM   12  C   UNL     1       6.775  24.800  53.052  1.00  0.00     0.092 C 
HETATM   13  C   UNL     1       7.195  23.335  52.899  1.00  0.00     0.021 C 
HETATM   14  C   UNL     1       5.280  24.937  52.853  1.00  0.00     0.146 C 
HETATM   15  O   UNL     1       4.732  25.575  50.237  1.00  0.00    -0.267 OA
HETATM   16  H   UNL     1       7.043  26.600  55.871  1.00  0.00     0.169 HD
ENDROOT
BRANCH   1  17
HETATM   17  C   UNL     1       5.053  27.868  50.488  1.00  0.00     0.075 C 
HETATM   18  C   UNL     1       4.185  28.527  49.616  1.00  0.00     0.050 C 
HETATM   19  C   UNL     1       2.842  28.082  49.152  1.00  0.00     0.071 C 
HETATM   20  N   UNL     1       4.787  29.739  49.290  1.00  0.00    -0.238 N 
HETATM   21  N   UNL     1       5.912  29.932  50.029  1.00  0.00    -0.179 NA
HETATM   22  C   UNL     1       6.111  28.778  50.658  1.00  0.00     0.158 C 
BRANCH  20  23
HETATM   23  C   UNL     1       4.417  30.739  48.344  1.00  0.00     0.061 A 
HETATM   24  C   UNL     1       4.611  30.484  46.980  1.00  0.00     0.051 A 
HETATM   25  C   UNL     1       4.250  31.458  46.065  1.00  0.00     0.118 A 
HETATM   26  N   UNL     1       3.702  32.640  46.409  1.00  0.00    -0.273 NA
HETATM   27  C   UNL     1       3.493  32.852  47.725  1.00  0.00     0.118 A 
HETATM   28  C   UNL     1       3.828  31.946  48.720  1.00  0.00     0.051 A 
ENDBRANCH  20  23
ENDBRANCH   1  17
TORSDOF 2
ENDMDL
