MODEL 1
REMARK VINA RESULT:     -11.0      0.000      0.000
REMARK  9 active torsions:
REMARK  status: ('A' for Active; 'I' for Inactive)
REMARK    1  A    between atoms: C_7  and  C_8 
REMARK    2  A    between atoms: C_9  and  O_10 
REMARK    3  A    between atoms: C_13  and  N_14 
REMARK    4  A    between atoms: N_14  and  C_15 
REMARK    5  A    between atoms: C_15  and  N_16 
REMARK       I    between atoms: N_16  and  C_17 
REMARK    6  A    between atoms: C_17  and  C_18 
REMARK    7  A    between atoms: C_21  and  O_22 
REMARK    8  A    between atoms: O_22  and  C_23 
REMARK    9  A    between atoms: C_23  and  C_24 
ROOT
HETATM    1  C   UNL     1       6.631  27.233  56.510  1.00  0.00     0.052 A 
HETATM    2  C   UNL     1       5.378  27.845  56.358  1.00  0.00     0.080 A 
HETATM    3  C   UNL     1       5.113  29.085  56.933  1.00  0.00     0.040 A 
HETATM    4  C   UNL     1       6.092  29.725  57.698  1.00  0.00     0.032 A 
HETATM    5  C   UNL     1       7.351  29.142  57.864  1.00  0.00     0.035 A 
HETATM    6  C   UNL     1       7.609  27.901  57.269  1.00  0.00     0.048 A 
ENDROOT
BRANCH   5   7
HETATM    7  N   UNL     1       8.270  29.782  58.728  1.00  0.00    -0.337 N 
HETATM    8  H   UNL     1       8.132  29.620  59.719  1.00  0.00     0.168 HD
BRANCH   7   9
HETATM    9  C   UNL     1       9.289  30.639  58.392  1.00  0.00     0.157 C 
HETATM   10  S   UNL     1      10.581  30.293  57.382  1.00  0.00    -0.047 SA
BRANCH   9  11
HETATM   11  N   UNL     1       9.229  31.907  58.928  1.00  0.00    -0.201 NA
HETATM   12  C   UNL     1       9.449  32.135  60.268  1.00  0.00     0.237 C 
HETATM   13  O   UNL     1      10.546  32.454  60.708  1.00  0.00    -0.274 OA
HETATM   14  H   UNL     1       9.858  32.475  58.370  1.00  0.00     0.139 HD
BRANCH  12  15
HETATM   15  C   UNL     1       8.264  32.093  61.159  1.00  0.00     0.026 A 
HETATM   16  C   UNL     1       8.454  31.924  62.534  1.00  0.00     0.019 A 
HETATM   17  C   UNL     1       7.364  31.996  63.408  1.00  0.00     0.038 A 
HETATM   18  C   UNL     1       6.087  32.270  62.913  1.00  0.00     0.068 A 
HETATM   19  C   UNL     1       5.899  32.409  61.535  1.00  0.00     0.038 A 
HETATM   20  C   UNL     1       6.981  32.319  60.654  1.00  0.00     0.019 A 
BRANCH  18  21
HETATM   21  O   UNL     1       4.956  32.431  63.665  1.00  0.00    -0.351 OA
BRANCH  21  22
HETATM   22  C   UNL     1       4.632  33.766  64.061  1.00  0.00     0.179 C 
BRANCH  22  23
HETATM   23  C   UNL     1       4.586  33.839  65.596  1.00  0.00     0.002 C 
HETATM   24  C   UNL     1       5.987  34.076  66.159  1.00  0.00     0.011 C 
HETATM   25  C   UNL     1       3.633  34.939  66.070  1.00  0.00     0.011 C 
ENDBRANCH  22  23
ENDBRANCH  21  22
ENDBRANCH  18  21
ENDBRANCH  12  15
ENDBRANCH   9  11
ENDBRANCH   7   9
ENDBRANCH   5   7
BRANCH   1  26
HETATM   26  C   UNL     1       6.891  25.910  55.950  1.00  0.00     0.183 A 
HETATM   27  O   UNL     1       7.107  25.832  54.601  1.00  0.00    -0.288 OA
HETATM   28  C   UNL     1       7.367  24.510  54.380  1.00  0.00     0.112 A 
HETATM   29  C   UNL     1       7.295  23.861  55.601  1.00  0.00     0.094 A 
HETATM   30  C   UNL     1       7.668  23.902  53.162  1.00  0.00    -0.025 A 
HETATM   31  C   UNL     1       7.574  22.489  55.660  1.00  0.00     0.041 A 
HETATM   32  N   UNL     1       6.952  24.753  56.591  1.00  0.00    -0.221 NA
HETATM   33  C   UNL     1       7.914  21.821  54.470  1.00  0.00    -0.059 A 
HETATM   34  C   UNL     1       8.286  20.366  54.498  1.00  0.00     0.048 C 
HETATM   35  C   UNL     1       7.957  22.526  53.251  1.00  0.00     0.016 A 
HETATM   36  C   UNL     1       7.725  24.623  51.854  1.00  0.00     0.051 C 
ENDBRANCH   1  26
BRANCH   2  37
HETATM   37  O   UNL     1       4.346  27.266  55.665  1.00  0.00    -0.360 OA
HETATM   38  H   UNL     1       4.456  26.292  55.699  1.00  0.00     0.217 HD
ENDBRANCH   2  37
TORSDOF 9
ENDMDL
MODEL 2
REMARK VINA RESULT:     -10.9      2.162     11.261
REMARK  9 active torsions:
REMARK  status: ('A' for Active; 'I' for Inactive)
REMARK    1  A    between atoms: C_7  and  C_8 
REMARK    2  A    between atoms: C_9  and  O_10 
REMARK    3  A    between atoms: C_13  and  N_14 
REMARK    4  A    between atoms: N_14  and  C_15 
REMARK    5  A    between atoms: C_15  and  N_16 
REMARK       I    between atoms: N_16  and  C_17 
REMARK    6  A    between atoms: C_17  and  C_18 
REMARK    7  A    between atoms: C_21  and  O_22 
REMARK    8  A    between atoms: O_22  and  C_23 
REMARK    9  A    between atoms: C_23  and  C_24 
ROOT
HETATM    1  C   UNL     1       8.456  30.914  58.877  1.00  0.00     0.052 A 
HETATM    2  C   UNL     1       9.726  31.074  58.304  1.00  0.00     0.080 A 
HETATM    3  C   UNL     1      10.083  30.379  57.151  1.00  0.00     0.040 A 
HETATM    4  C   UNL     1       9.184  29.484  56.567  1.00  0.00     0.032 A 
HETATM    5  C   UNL     1       7.911  29.305  57.114  1.00  0.00     0.035 A 
HETATM    6  C   UNL     1       7.558  30.021  58.265  1.00  0.00     0.048 A 
ENDROOT
BRANCH   5   7
HETATM    7  N   UNL     1       7.077  28.316  56.543  1.00  0.00    -0.337 N 
HETATM    8  H   UNL     1       7.376  27.355  56.673  1.00  0.00     0.168 HD
BRANCH   7   9
HETATM    9  C   UNL     1       5.944  28.498  55.788  1.00  0.00     0.157 C 
HETATM   10  S   UNL     1       4.421  28.889  56.367  1.00  0.00    -0.047 SA
BRANCH   9  11
HETATM   11  N   UNL     1       6.085  28.359  54.424  1.00  0.00    -0.201 NA
HETATM   12  C   UNL     1       5.484  27.328  53.737  1.00  0.00     0.237 C 
HETATM   13  O   UNL     1       4.395  27.451  53.191  1.00  0.00    -0.274 OA
HETATM   14  H   UNL     1       5.811  29.251  54.024  1.00  0.00     0.139 HD
BRANCH  12  15
HETATM   15  C   UNL     1       6.267  26.079  53.582  1.00  0.00     0.026 A 
HETATM   16  C   UNL     1       7.016  25.887  52.416  1.00  0.00     0.019 A 
HETATM   17  C   UNL     1       7.853  24.773  52.296  1.00  0.00     0.038 A 
HETATM   18  C   UNL     1       7.969  23.867  53.351  1.00  0.00     0.068 A 
HETATM   19  C   UNL     1       7.196  24.048  54.502  1.00  0.00     0.038 A 
HETATM   20  C   UNL     1       6.343  25.149  54.623  1.00  0.00     0.019 A 
BRANCH  18  21
HETATM   21  O   UNL     1       8.798  22.779  53.383  1.00  0.00    -0.351 OA
BRANCH  21  22
HETATM   22  C   UNL     1       9.056  22.205  54.668  1.00  0.00     0.179 C 
BRANCH  22  23
HETATM   23  C   UNL     1       8.574  20.745  54.672  1.00  0.00     0.002 C 
HETATM   24  C   UNL     1       7.664  20.489  55.872  1.00  0.00     0.011 C 
HETATM   25  C   UNL     1       7.843  20.399  53.372  1.00  0.00     0.011 C 
ENDBRANCH  22  23
ENDBRANCH  21  22
ENDBRANCH  18  21
ENDBRANCH  12  15
ENDBRANCH   9  11
ENDBRANCH   7   9
ENDBRANCH   5   7
BRANCH   1  26
HETATM   26  C   UNL     1       8.100  31.604  60.113  1.00  0.00     0.183 A 
HETATM   27  O   UNL     1       6.990  32.404  60.086  1.00  0.00    -0.288 OA
HETATM   28  C   UNL     1       6.879  32.866  61.366  1.00  0.00     0.112 A 
HETATM   29  C   UNL     1       7.922  32.323  62.097  1.00  0.00     0.094 A 
HETATM   30  C   UNL     1       5.896  33.715  61.874  1.00  0.00    -0.025 A 
HETATM   31  C   UNL     1       8.010  32.602  63.467  1.00  0.00     0.041 A 
HETATM   32  N   UNL     1       8.718  31.552  61.282  1.00  0.00    -0.221 NA
HETATM   33  C   UNL     1       7.032  33.429  64.048  1.00  0.00    -0.059 A 
HETATM   34  C   UNL     1       7.050  33.699  65.526  1.00  0.00     0.048 C 
HETATM   35  C   UNL     1       6.000  33.968  63.256  1.00  0.00     0.016 A 
HETATM   36  C   UNL     1       4.787  34.299  61.060  1.00  0.00     0.051 C 
ENDBRANCH   1  26
BRANCH   2  37
HETATM   37  O   UNL     1      10.685  31.896  58.839  1.00  0.00    -0.360 OA
HETATM   38  H   UNL     1      11.558  31.458  58.742  1.00  0.00     0.217 HD
ENDBRANCH   2  37
TORSDOF 9
ENDMDL
MODEL 3
REMARK VINA RESULT:     -10.8      1.004      1.721
REMARK  9 active torsions:
REMARK  status: ('A' for Active; 'I' for Inactive)
REMARK    1  A    between atoms: C_7  and  C_8 
REMARK    2  A    between atoms: C_9  and  O_10 
REMARK    3  A    between atoms: C_13  and  N_14 
REMARK    4  A    between atoms: N_14  and  C_15 
REMARK    5  A    between atoms: C_15  and  N_16 
REMARK       I    between atoms: N_16  and  C_17 
REMARK    6  A    between atoms: C_17  and  C_18 
REMARK    7  A    between atoms: C_21  and  O_22 
REMARK    8  A    between atoms: O_22  and  C_23 
REMARK    9  A    between atoms: C_23  and  C_24 
ROOT
HETATM    1  C   UNL     1       6.791  26.758  56.012  1.00  0.00     0.052 A 
HETATM    2  C   UNL     1       5.519  27.280  55.738  1.00  0.00     0.080 A 
HETATM    3  C   UNL     1       5.111  28.494  56.287  1.00  0.00     0.040 A 
HETATM    4  C   UNL     1       5.961  29.193  57.148  1.00  0.00     0.032 A 
HETATM    5  C   UNL     1       7.235  28.698  57.437  1.00  0.00     0.035 A 
HETATM    6  C   UNL     1       7.639  27.485  56.867  1.00  0.00     0.048 A 
ENDROOT
BRANCH   5   7
HETATM    7  N   UNL     1       8.015  29.393  58.390  1.00  0.00    -0.337 N 
HETATM    8  H   UNL     1       7.729  29.289  59.358  1.00  0.00     0.168 HD
BRANCH   7   9
HETATM    9  C   UNL     1       9.076  30.234  58.162  1.00  0.00     0.157 C 
HETATM   10  S   UNL     1      10.546  29.811  57.478  1.00  0.00    -0.047 SA
BRANCH   9  11
HETATM   11  N   UNL     1       8.902  31.555  58.519  1.00  0.00    -0.201 NA
HETATM   12  C   UNL     1       9.190  32.003  59.789  1.00  0.00     0.237 C 
HETATM   13  O   UNL     1      10.270  32.502  60.080  1.00  0.00    -0.274 OA
HETATM   14  H   UNL     1       9.417  32.098  57.833  1.00  0.00     0.139 HD
BRANCH  12  15
HETATM   15  C   UNL     1       8.087  31.966  60.779  1.00  0.00     0.026 A 
HETATM   16  C   UNL     1       8.396  31.810  62.134  1.00  0.00     0.019 A 
HETATM   17  C   UNL     1       7.385  31.888  63.098  1.00  0.00     0.038 A 
HETATM   18  C   UNL     1       6.070  32.154  62.713  1.00  0.00     0.068 A 
HETATM   19  C   UNL     1       5.762  32.280  61.355  1.00  0.00     0.038 A 
HETATM   20  C   UNL     1       6.764  32.184  60.384  1.00  0.00     0.019 A 
BRANCH  18  21
HETATM   21  O   UNL     1       5.007  32.319  63.558  1.00  0.00    -0.351 OA
BRANCH  21  22
HETATM   22  C   UNL     1       4.196  33.479  63.354  1.00  0.00     0.179 C 
BRANCH  22  23
HETATM   23  C   UNL     1       4.505  34.508  64.454  1.00  0.00     0.002 C 
HETATM   24  C   UNL     1       4.764  33.803  65.784  1.00  0.00     0.011 C 
HETATM   25  C   UNL     1       5.705  35.380  64.076  1.00  0.00     0.011 C 
ENDBRANCH  22  23
ENDBRANCH  21  22
ENDBRANCH  18  21
ENDBRANCH  12  15
ENDBRANCH   9  11
ENDBRANCH   7   9
ENDBRANCH   5   7
BRANCH   1  26
HETATM   26  C   UNL     1       7.200  25.462  55.477  1.00  0.00     0.183 A 
HETATM   27  O   UNL     1       7.494  24.477  56.380  1.00  0.00    -0.288 OA
HETATM   28  C   UNL     1       7.788  23.391  55.606  1.00  0.00     0.112 A 
HETATM   29  C   UNL     1       7.657  23.775  54.281  1.00  0.00     0.094 A 
HETATM   30  C   UNL     1       8.142  22.115  56.043  1.00  0.00    -0.025 A 
HETATM   31  C   UNL     1       7.858  22.823  53.275  1.00  0.00     0.041 A 
HETATM   32  N   UNL     1       7.321  25.107  54.208  1.00  0.00    -0.221 NA
HETATM   33  C   UNL     1       8.188  21.508  53.649  1.00  0.00    -0.059 A 
HETATM   34  C   UNL     1       8.345  20.440  52.604  1.00  0.00     0.048 C 
HETATM   35  C   UNL     1       8.324  21.174  55.010  1.00  0.00     0.016 A 
HETATM   36  C   UNL     1       8.290  21.729  57.478  1.00  0.00     0.051 C 
ENDBRANCH   1  26
BRANCH   2  37
HETATM   37  O   UNL     1       4.606  26.637  54.943  1.00  0.00    -0.360 OA
HETATM   38  H   UNL     1       4.155  27.306  54.383  1.00  0.00     0.217 HD
ENDBRANCH   2  37
TORSDOF 9
ENDMDL
MODEL 4
REMARK VINA RESULT:     -10.7      1.080      1.140
REMARK  9 active torsions:
REMARK  status: ('A' for Active; 'I' for Inactive)
REMARK    1  A    between atoms: C_7  and  C_8 
REMARK    2  A    between atoms: C_9  and  O_10 
REMARK    3  A    between atoms: C_13  and  N_14 
REMARK    4  A    between atoms: N_14  and  C_15 
REMARK    5  A    between atoms: C_15  and  N_16 
REMARK       I    between atoms: N_16  and  C_17 
REMARK    6  A    between atoms: C_17  and  C_18 
REMARK    7  A    between atoms: C_21  and  O_22 
REMARK    8  A    between atoms: O_22  and  C_23 
REMARK    9  A    between atoms: C_23  and  C_24 
ROOT
HETATM    1  C   UNL     1       6.813  27.289  56.617  1.00  0.00     0.052 A 
HETATM    2  C   UNL     1       5.653  27.977  56.234  1.00  0.00     0.080 A 
HETATM    3  C   UNL     1       5.335  29.212  56.795  1.00  0.00     0.040 A 
HETATM    4  C   UNL     1       6.161  29.769  57.775  1.00  0.00     0.032 A 
HETATM    5  C   UNL     1       7.325  29.108  58.175  1.00  0.00     0.035 A 
HETATM    6  C   UNL     1       7.641  27.874  57.592  1.00  0.00     0.048 A 
ENDROOT
BRANCH   5   7
HETATM    7  N   UNL     1       8.071  29.666  59.239  1.00  0.00    -0.337 N 
HETATM    8  H   UNL     1       7.720  29.479  60.172  1.00  0.00     0.168 HD
BRANCH   7   9
HETATM    9  C   UNL     1       9.180  30.473  59.162  1.00  0.00     0.157 C 
HETATM   10  S   UNL     1       9.961  30.951  57.759  1.00  0.00    -0.047 SA
BRANCH   9  11
HETATM   11  N   UNL     1       9.682  30.943  60.356  1.00  0.00    -0.201 NA
HETATM   12  C   UNL     1       9.046  30.701  61.553  1.00  0.00     0.237 C 
HETATM   13  O   UNL     1       9.346  29.760  62.277  1.00  0.00    -0.274 OA
HETATM   14  H   UNL     1      10.643  30.617  60.400  1.00  0.00     0.139 HD
BRANCH  12  15
HETATM   15  C   UNL     1       8.046  31.702  61.995  1.00  0.00     0.026 A 
HETATM   16  C   UNL     1       8.190  32.296  63.253  1.00  0.00     0.019 A 
HETATM   17  C   UNL     1       7.328  33.326  63.645  1.00  0.00     0.038 A 
HETATM   18  C   UNL     1       6.342  33.786  62.770  1.00  0.00     0.068 A 
HETATM   19  C   UNL     1       6.185  33.169  61.526  1.00  0.00     0.038 A 
HETATM   20  C   UNL     1       7.029  32.126  61.134  1.00  0.00     0.019 A 
BRANCH  18  21
HETATM   21  O   UNL     1       5.484  34.824  63.008  1.00  0.00    -0.351 OA
BRANCH  21  22
HETATM   22  C   UNL     1       4.169  34.483  63.453  1.00  0.00     0.179 C 
BRANCH  22  23
HETATM   23  C   UNL     1       3.956  35.042  64.869  1.00  0.00     0.002 C 
HETATM   24  C   UNL     1       4.435  34.037  65.915  1.00  0.00     0.011 C 
HETATM   25  C   UNL     1       4.678  36.379  65.051  1.00  0.00     0.011 C 
ENDBRANCH  22  23
ENDBRANCH  21  22
ENDBRANCH  18  21
ENDBRANCH  12  15
ENDBRANCH   9  11
ENDBRANCH   7   9
ENDBRANCH   5   7
BRANCH   1  26
HETATM   26  C   UNL     1       7.120  25.973  56.067  1.00  0.00     0.183 A 
HETATM   27  O   UNL     1       7.250  25.876  54.708  1.00  0.00    -0.288 OA
HETATM   28  C   UNL     1       7.579  24.568  54.495  1.00  0.00     0.112 A 
HETATM   29  C   UNL     1       7.630  23.945  55.731  1.00  0.00     0.094 A 
HETATM   30  C   UNL     1       7.837  23.952  53.271  1.00  0.00    -0.025 A 
HETATM   31  C   UNL     1       7.999  22.595  55.797  1.00  0.00     0.041 A 
HETATM   32  N   UNL     1       7.298  24.837  56.724  1.00  0.00    -0.221 NA
HETATM   33  C   UNL     1       8.302  21.922  54.600  1.00  0.00    -0.059 A 
HETATM   34  C   UNL     1       8.766  20.493  54.631  1.00  0.00     0.048 C 
HETATM   35  C   UNL     1       8.219  22.599  53.368  1.00  0.00     0.016 A 
HETATM   36  C   UNL     1       7.762  24.644  51.950  1.00  0.00     0.051 C 
ENDBRANCH   1  26
BRANCH   2  37
HETATM   37  O   UNL     1       4.764  27.482  55.315  1.00  0.00    -0.360 OA
HETATM   38  H   UNL     1       3.924  27.982  55.394  1.00  0.00     0.217 HD
ENDBRANCH   2  37
TORSDOF 9
ENDMDL
MODEL 5
REMARK VINA RESULT:     -10.1      2.427     11.057
REMARK  9 active torsions:
REMARK  status: ('A' for Active; 'I' for Inactive)
REMARK    1  A    between atoms: C_7  and  C_8 
REMARK    2  A    between atoms: C_9  and  O_10 
REMARK    3  A    between atoms: C_13  and  N_14 
REMARK    4  A    between atoms: N_14  and  C_15 
REMARK    5  A    between atoms: C_15  and  N_16 
REMARK       I    between atoms: N_16  and  C_17 
REMARK    6  A    between atoms: C_17  and  C_18 
REMARK    7  A    between atoms: C_21  and  O_22 
REMARK    8  A    between atoms: O_22  and  C_23 
REMARK    9  A    between atoms: C_23  and  C_24 
ROOT
HETATM    1  C   UNL     1       4.979  32.022  58.662  1.00  0.00     0.052 A 
HETATM    2  C   UNL     1       3.813  32.667  58.226  1.00  0.00     0.080 A 
HETATM    3  C   UNL     1       3.350  32.504  56.922  1.00  0.00     0.040 A 
HETATM    4  C   UNL     1       4.066  31.713  56.019  1.00  0.00     0.032 A 
HETATM    5  C   UNL     1       5.230  31.056  56.426  1.00  0.00     0.035 A 
HETATM    6  C   UNL     1       5.676  31.216  57.744  1.00  0.00     0.048 A 
ENDROOT
BRANCH   5   7
HETATM    7  N   UNL     1       5.968  30.350  55.448  1.00  0.00    -0.337 N 
HETATM    8  H   UNL     1       6.217  30.875  54.617  1.00  0.00     0.168 HD
BRANCH   7   9
HETATM    9  C   UNL     1       6.341  29.028  55.462  1.00  0.00     0.157 C 
HETATM   10  S   UNL     1       7.886  28.438  55.732  1.00  0.00    -0.047 SA
BRANCH   9  11
HETATM   11  N   UNL     1       5.341  28.105  55.246  1.00  0.00    -0.201 NA
HETATM   12  C   UNL     1       5.335  26.884  55.883  1.00  0.00     0.237 C 
HETATM   13  O   UNL     1       4.718  26.688  56.922  1.00  0.00    -0.274 OA
HETATM   14  H   UNL     1       4.469  28.594  55.423  1.00  0.00     0.139 HD
BRANCH  12  15
HETATM   15  C   UNL     1       6.021  25.765  55.194  1.00  0.00     0.026 A 
HETATM   16  C   UNL     1       6.055  25.747  53.796  1.00  0.00     0.019 A 
HETATM   17  C   UNL     1       6.793  24.767  53.124  1.00  0.00     0.038 A 
HETATM   18  C   UNL     1       7.526  23.824  53.847  1.00  0.00     0.068 A 
HETATM   19  C   UNL     1       7.465  23.829  55.244  1.00  0.00     0.038 A 
HETATM   20  C   UNL     1       6.714  24.793  55.922  1.00  0.00     0.019 A 
BRANCH  18  21
HETATM   21  O   UNL     1       8.336  22.860  53.312  1.00  0.00    -0.351 OA
BRANCH  21  22
HETATM   22  C   UNL     1       9.175  22.147  54.224  1.00  0.00     0.179 C 
BRANCH  22  23
HETATM   23  C   UNL     1       8.869  20.644  54.120  1.00  0.00     0.002 C 
HETATM   24  C   UNL     1       8.268  20.131  55.428  1.00  0.00     0.011 C 
HETATM   25  C   UNL     1       7.921  20.352  52.954  1.00  0.00     0.011 C 
ENDBRANCH  22  23
ENDBRANCH  21  22
ENDBRANCH  18  21
ENDBRANCH  12  15
ENDBRANCH   9  11
ENDBRANCH   7   9
ENDBRANCH   5   7
BRANCH   1  26
HETATM   26  C   UNL     1       5.492  32.233  60.012  1.00  0.00     0.183 A 
HETATM   27  O   UNL     1       6.815  31.959  60.230  1.00  0.00    -0.288 OA
HETATM   28  C   UNL     1       7.014  32.291  61.539  1.00  0.00     0.112 A 
HETATM   29  C   UNL     1       5.807  32.746  62.043  1.00  0.00     0.094 A 
HETATM   30  C   UNL     1       8.207  32.212  62.257  1.00  0.00    -0.025 A 
HETATM   31  C   UNL     1       5.750  33.201  63.366  1.00  0.00     0.041 A 
HETATM   32  N   UNL     1       4.832  32.669  61.074  1.00  0.00    -0.221 NA
HETATM   33  C   UNL     1       6.927  33.176  64.136  1.00  0.00    -0.059 A 
HETATM   34  C   UNL     1       6.926  33.718  65.538  1.00  0.00     0.048 C 
HETATM   35  C   UNL     1       8.125  32.689  63.580  1.00  0.00     0.016 A 
HETATM   36  C   UNL     1       9.494  31.704  61.694  1.00  0.00     0.051 C 
ENDBRANCH   1  26
BRANCH   2  37
HETATM   37  O   UNL     1       3.076  33.497  59.031  1.00  0.00    -0.360 OA
HETATM   38  H   UNL     1       2.414  33.962  58.475  1.00  0.00     0.217 HD
ENDBRANCH   2  37
TORSDOF 9
ENDMDL
MODEL 6
REMARK VINA RESULT:     -10.1      3.025     11.424
REMARK  9 active torsions:
REMARK  status: ('A' for Active; 'I' for Inactive)
REMARK    1  A    between atoms: C_7  and  C_8 
REMARK    2  A    between atoms: C_9  and  O_10 
REMARK    3  A    between atoms: C_13  and  N_14 
REMARK    4  A    between atoms: N_14  and  C_15 
REMARK    5  A    between atoms: C_15  and  N_16 
REMARK       I    between atoms: N_16  and  C_17 
REMARK    6  A    between atoms: C_17  and  C_18 
REMARK    7  A    between atoms: C_21  and  O_22 
REMARK    8  A    between atoms: O_22  and  C_23 
REMARK    9  A    between atoms: C_23  and  C_24 
ROOT
HETATM    1  C   UNL     1       8.682  30.506  58.894  1.00  0.00     0.052 A 
HETATM    2  C   UNL     1       9.823  30.842  58.153  1.00  0.00     0.080 A 
HETATM    3  C   UNL     1      10.217  30.074  57.059  1.00  0.00     0.040 A 
HETATM    4  C   UNL     1       9.488  28.936  56.704  1.00  0.00     0.032 A 
HETATM    5  C   UNL     1       8.344  28.579  57.423  1.00  0.00     0.035 A 
HETATM    6  C   UNL     1       7.951  29.367  58.511  1.00  0.00     0.048 A 
ENDROOT
BRANCH   5   7
HETATM    7  N   UNL     1       7.702  27.365  57.085  1.00  0.00    -0.337 N 
HETATM    8  H   UNL     1       8.264  26.525  57.177  1.00  0.00     0.168 HD
BRANCH   7   9
HETATM    9  C   UNL     1       6.431  27.189  56.596  1.00  0.00     0.157 C 
HETATM   10  S   UNL     1       5.136  28.232  56.806  1.00  0.00    -0.047 SA
BRANCH   9  11
HETATM   11  N   UNL     1       6.211  26.051  55.849  1.00  0.00    -0.201 NA
HETATM   12  C   UNL     1       6.904  25.806  54.685  1.00  0.00     0.237 C 
HETATM   13  O   UNL     1       7.920  25.123  54.658  1.00  0.00    -0.274 OA
HETATM   14  H   UNL     1       6.322  25.272  56.491  1.00  0.00     0.139 HD
BRANCH  12  15
HETATM   15  C   UNL     1       6.303  26.311  53.428  1.00  0.00     0.026 A 
HETATM   16  C   UNL     1       6.235  27.691  53.214  1.00  0.00     0.019 A 
HETATM   17  C   UNL     1       5.780  28.190  51.989  1.00  0.00     0.038 A 
HETATM   18  C   UNL     1       5.422  27.312  50.964  1.00  0.00     0.068 A 
HETATM   19  C   UNL     1       5.464  25.933  51.194  1.00  0.00     0.038 A 
HETATM   20  C   UNL     1       5.900  25.427  52.422  1.00  0.00     0.019 A 
BRANCH  18  21
HETATM   21  O   UNL     1       5.026  27.671  49.705  1.00  0.00    -0.351 OA
BRANCH  21  22
HETATM   22  C   UNL     1       3.673  27.375  49.348  1.00  0.00     0.179 C 
BRANCH  22  23
HETATM   23  C   UNL     1       3.653  26.712  47.961  1.00  0.00     0.002 C 
HETATM   24  C   UNL     1       5.049  26.735  47.340  1.00  0.00     0.011 C 
HETATM   25  C   UNL     1       3.134  25.274  48.042  1.00  0.00     0.011 C 
ENDBRANCH  22  23
ENDBRANCH  21  22
ENDBRANCH  18  21
ENDBRANCH  12  15
ENDBRANCH   9  11
ENDBRANCH   7   9
ENDBRANCH   5   7
BRANCH   1  26
HETATM   26  C   UNL     1       8.298  31.280  60.071  1.00  0.00     0.183 A 
HETATM   27  O   UNL     1       7.152  32.024  59.985  1.00  0.00    -0.288 OA
HETATM   28  C   UNL     1       7.025  32.586  61.223  1.00  0.00     0.112 A 
HETATM   29  C   UNL     1       8.096  32.155  61.989  1.00  0.00     0.094 A 
HETATM   30  C   UNL     1       6.006  33.428  61.666  1.00  0.00    -0.025 A 
HETATM   31  C   UNL     1       8.176  32.552  63.329  1.00  0.00     0.041 A 
HETATM   32  N   UNL     1       8.924  31.356  61.235  1.00  0.00    -0.221 NA
HETATM   33  C   UNL     1       7.163  33.379  63.848  1.00  0.00    -0.059 A 
HETATM   34  C   UNL     1       7.175  33.773  65.298  1.00  0.00     0.048 C 
HETATM   35  C   UNL     1       6.104  33.801  63.021  1.00  0.00     0.016 A 
HETATM   36  C   UNL     1       4.868  33.889  60.816  1.00  0.00     0.051 C 
ENDBRANCH   1  26
BRANCH   2  37
HETATM   37  O   UNL     1      10.622  31.913  58.460  1.00  0.00    -0.360 OA
HETATM   38  H   UNL     1      11.196  32.105  57.687  1.00  0.00     0.217 HD
ENDBRANCH   2  37
TORSDOF 9
ENDMDL
MODEL 7
REMARK VINA RESULT:     -10.0      4.666      6.644
REMARK  9 active torsions:
REMARK  status: ('A' for Active; 'I' for Inactive)
REMARK    1  A    between atoms: C_7  and  C_8 
REMARK    2  A    between atoms: C_9  and  O_10 
REMARK    3  A    between atoms: C_13  and  N_14 
REMARK    4  A    between atoms: N_14  and  C_15 
REMARK    5  A    between atoms: C_15  and  N_16 
REMARK       I    between atoms: N_16  and  C_17 
REMARK    6  A    between atoms: C_17  and  C_18 
REMARK    7  A    between atoms: C_21  and  O_22 
REMARK    8  A    between atoms: O_22  and  C_23 
REMARK    9  A    between atoms: C_23  and  C_24 
ROOT
HETATM    1  C   UNL     1       5.373  27.371  51.759  1.00  0.00     0.052 A 
HETATM    2  C   UNL     1       4.597  27.238  50.599  1.00  0.00     0.080 A 
HETATM    3  C   UNL     1       3.916  28.329  50.065  1.00  0.00     0.040 A 
HETATM    4  C   UNL     1       3.975  29.572  50.701  1.00  0.00     0.032 A 
HETATM    5  C   UNL     1       4.743  29.735  51.857  1.00  0.00     0.035 A 
HETATM    6  C   UNL     1       5.435  28.634  52.376  1.00  0.00     0.048 A 
ENDROOT
BRANCH   5   7
HETATM    7  N   UNL     1       4.690  30.986  52.516  1.00  0.00    -0.337 N 
HETATM    8  H   UNL     1       5.574  31.474  52.612  1.00  0.00     0.168 HD
BRANCH   7   9
HETATM    9  C   UNL     1       3.600  31.593  53.090  1.00  0.00     0.157 C 
HETATM   10  S   UNL     1       3.027  33.129  52.746  1.00  0.00    -0.047 SA
BRANCH   9  11
HETATM   11  N   UNL     1       2.907  30.855  54.026  1.00  0.00    -0.201 NA
HETATM   12  C   UNL     1       2.998  31.130  55.372  1.00  0.00     0.237 C 
HETATM   13  O   UNL     1       2.191  31.845  55.952  1.00  0.00    -0.274 OA
HETATM   14  H   UNL     1       1.936  30.874  53.731  1.00  0.00     0.139 HD
BRANCH  12  15
HETATM   15  C   UNL     1       4.058  30.424  56.130  1.00  0.00     0.026 A 
HETATM   16  C   UNL     1       4.453  29.147  55.717  1.00  0.00     0.019 A 
HETATM   17  C   UNL     1       5.530  28.509  56.343  1.00  0.00     0.038 A 
HETATM   18  C   UNL     1       6.234  29.158  57.359  1.00  0.00     0.068 A 
HETATM   19  C   UNL     1       5.817  30.422  57.786  1.00  0.00     0.038 A 
HETATM   20  C   UNL     1       4.730  31.058  57.179  1.00  0.00     0.019 A 
BRANCH  18  21
HETATM   21  O   UNL     1       7.340  28.671  58.001  1.00  0.00    -0.351 OA
BRANCH  21  22
HETATM   22  C   UNL     1       8.518  28.494  57.210  1.00  0.00     0.179 C 
BRANCH  22  23
HETATM   23  C   UNL     1       9.339  29.793  57.232  1.00  0.00     0.002 C 
HETATM   24  C   UNL     1       9.422  30.346  58.654  1.00  0.00     0.011 C 
HETATM   25  C   UNL     1      10.745  29.569  56.670  1.00  0.00     0.011 C 
ENDBRANCH  22  23
ENDBRANCH  21  22
ENDBRANCH  18  21
ENDBRANCH  12  15
ENDBRANCH   9  11
ENDBRANCH   7   9
ENDBRANCH   5   7
BRANCH   1  26
HETATM   26  C   UNL     1       6.045  26.217  52.348  1.00  0.00     0.183 A 
HETATM   27  O   UNL     1       5.966  26.072  53.707  1.00  0.00    -0.288 OA
HETATM   28  C   UNL     1       6.629  24.906  53.958  1.00  0.00     0.112 A 
HETATM   29  C   UNL     1       7.073  24.408  52.743  1.00  0.00     0.094 A 
HETATM   30  C   UNL     1       6.825  24.296  55.197  1.00  0.00    -0.025 A 
HETATM   31  C   UNL     1       7.747  23.181  52.717  1.00  0.00     0.041 A 
HETATM   32  N   UNL     1       6.731  25.270  51.727  1.00  0.00    -0.221 NA
HETATM   33  C   UNL     1       7.951  22.499  53.930  1.00  0.00    -0.059 A 
HETATM   34  C   UNL     1       8.609  21.149  53.938  1.00  0.00     0.048 C 
HETATM   35  C   UNL     1       7.493  23.057  55.139  1.00  0.00     0.016 A 
HETATM   36  C   UNL     1       6.348  24.860  56.495  1.00  0.00     0.051 C 
ENDBRANCH   1  26
BRANCH   2  37
HETATM   37  O   UNL     1       4.445  26.046  49.939  1.00  0.00    -0.360 OA
HETATM   38  H   UNL     1       5.323  25.759  49.609  1.00  0.00     0.217 HD
ENDBRANCH   2  37
TORSDOF 9
ENDMDL
MODEL 8
REMARK VINA RESULT:      -9.9      2.751      4.205
REMARK  9 active torsions:
REMARK  status: ('A' for Active; 'I' for Inactive)
REMARK    1  A    between atoms: C_7  and  C_8 
REMARK    2  A    between atoms: C_9  and  O_10 
REMARK    3  A    between atoms: C_13  and  N_14 
REMARK    4  A    between atoms: N_14  and  C_15 
REMARK    5  A    between atoms: C_15  and  N_16 
REMARK       I    between atoms: N_16  and  C_17 
REMARK    6  A    between atoms: C_17  and  C_18 
REMARK    7  A    between atoms: C_21  and  O_22 
REMARK    8  A    between atoms: O_22  and  C_23 
REMARK    9  A    between atoms: C_23  and  C_24 
ROOT
HETATM    1  C   UNL     1       6.667  26.390  56.413  1.00  0.00     0.052 A 
HETATM    2  C   UNL     1       7.558  27.154  57.180  1.00  0.00     0.080 A 
HETATM    3  C   UNL     1       7.166  28.370  57.733  1.00  0.00     0.040 A 
HETATM    4  C   UNL     1       5.877  28.860  57.503  1.00  0.00     0.032 A 
HETATM    5  C   UNL     1       4.966  28.120  56.746  1.00  0.00     0.035 A 
HETATM    6  C   UNL     1       5.369  26.891  56.207  1.00  0.00     0.048 A 
ENDROOT
BRANCH   5   7
HETATM    7  N   UNL     1       3.711  28.705  56.461  1.00  0.00    -0.337 N 
HETATM    8  H   UNL     1       2.897  28.159  56.723  1.00  0.00     0.168 HD
BRANCH   7   9
HETATM    9  C   UNL     1       3.459  29.896  55.824  1.00  0.00     0.157 C 
HETATM   10  S   UNL     1       3.868  30.280  54.246  1.00  0.00    -0.047 SA
BRANCH   9  11
HETATM   11  N   UNL     1       2.792  30.856  56.556  1.00  0.00    -0.201 NA
HETATM   12  C   UNL     1       3.302  32.125  56.716  1.00  0.00     0.237 C 
HETATM   13  O   UNL     1       2.983  33.056  55.988  1.00  0.00    -0.274 OA
HETATM   14  H   UNL     1       1.857  30.902  56.165  1.00  0.00     0.139 HD
BRANCH  12  15
HETATM   15  C   UNL     1       4.177  32.353  57.891  1.00  0.00     0.026 A 
HETATM   16  C   UNL     1       3.596  32.472  59.157  1.00  0.00     0.019 A 
HETATM   17  C   UNL     1       4.405  32.572  60.294  1.00  0.00     0.038 A 
HETATM   18  C   UNL     1       5.794  32.519  60.171  1.00  0.00     0.068 A 
HETATM   19  C   UNL     1       6.370  32.429  58.900  1.00  0.00     0.038 A 
HETATM   20  C   UNL     1       5.568  32.348  57.758  1.00  0.00     0.019 A 
BRANCH  18  21
HETATM   21  O   UNL     1       6.690  32.539  61.205  1.00  0.00    -0.351 OA
BRANCH  21  22
HETATM   22  C   UNL     1       6.157  32.767  62.513  1.00  0.00     0.179 C 
BRANCH  22  23
HETATM   23  C   UNL     1       7.212  32.380  63.561  1.00  0.00     0.002 C 
HETATM   24  C   UNL     1       8.518  31.977  62.877  1.00  0.00     0.011 C 
HETATM   25  C   UNL     1       7.463  33.526  64.545  1.00  0.00     0.011 C 
ENDBRANCH  22  23
ENDBRANCH  21  22
ENDBRANCH  18  21
ENDBRANCH  12  15
ENDBRANCH   9  11
ENDBRANCH   7   9
ENDBRANCH   5   7
BRANCH   1  26
HETATM   26  C   UNL     1       7.094  25.141  55.791  1.00  0.00     0.183 A 
HETATM   27  O   UNL     1       7.420  24.105  56.625  1.00  0.00    -0.288 OA
HETATM   28  C   UNL     1       7.725  23.078  55.779  1.00  0.00     0.112 A 
HETATM   29  C   UNL     1       7.569  23.543  54.484  1.00  0.00     0.094 A 
HETATM   30  C   UNL     1       8.110  21.784  56.129  1.00  0.00    -0.025 A 
HETATM   31  C   UNL     1       7.774  22.662  53.416  1.00  0.00     0.041 A 
HETATM   32  N   UNL     1       7.205  24.870  54.500  1.00  0.00    -0.221 NA
HETATM   33  C   UNL     1       8.135  21.333  53.700  1.00  0.00    -0.059 A 
HETATM   34  C   UNL     1       8.300  20.337  52.587  1.00  0.00     0.048 C 
HETATM   35  C   UNL     1       8.296  20.915  55.035  1.00  0.00     0.016 A 
HETATM   36  C   UNL     1       8.285  21.310  57.534  1.00  0.00     0.051 C 
ENDBRANCH   1  26
BRANCH   2  37
HETATM   37  O   UNL     1       8.854  26.772  57.415  1.00  0.00    -0.360 OA
HETATM   38  H   UNL     1       8.873  26.222  58.227  1.00  0.00     0.217 HD
ENDBRANCH   2  37
TORSDOF 9
ENDMDL
MODEL 9
REMARK VINA RESULT:      -9.9      2.537      3.389
REMARK  9 active torsions:
REMARK  status: ('A' for Active; 'I' for Inactive)
REMARK    1  A    between atoms: C_7  and  C_8 
REMARK    2  A    between atoms: C_9  and  O_10 
REMARK    3  A    between atoms: C_13  and  N_14 
REMARK    4  A    between atoms: N_14  and  C_15 
REMARK    5  A    between atoms: C_15  and  N_16 
REMARK       I    between atoms: N_16  and  C_17 
REMARK    6  A    between atoms: C_17  and  C_18 
REMARK    7  A    between atoms: C_21  and  O_22 
REMARK    8  A    between atoms: O_22  and  C_23 
REMARK    9  A    between atoms: C_23  and  C_24 
ROOT
HETATM    1  C   UNL     1       6.738  27.183  56.767  1.00  0.00     0.052 A 
HETATM    2  C   UNL     1       7.815  27.897  57.311  1.00  0.00     0.080 A 
HETATM    3  C   UNL     1       7.621  29.139  57.911  1.00  0.00     0.040 A 
HETATM    4  C   UNL     1       6.344  29.705  57.951  1.00  0.00     0.032 A 
HETATM    5  C   UNL     1       5.250  29.016  57.420  1.00  0.00     0.035 A 
HETATM    6  C   UNL     1       5.457  27.761  56.833  1.00  0.00     0.048 A 
ENDROOT
BRANCH   5   7
HETATM    7  N   UNL     1       4.000  29.675  57.397  1.00  0.00    -0.337 N 
HETATM    8  H   UNL     1       3.294  29.308  58.026  1.00  0.00     0.168 HD
BRANCH   7   9
HETATM    9  C   UNL     1       3.606  30.713  56.588  1.00  0.00     0.157 C 
HETATM   10  S   UNL     1       3.771  30.789  54.923  1.00  0.00    -0.047 SA
BRANCH   9  11
HETATM   11  N   UNL     1       3.006  31.786  57.213  1.00  0.00    -0.201 NA
HETATM   12  C   UNL     1       3.741  32.850  57.685  1.00  0.00     0.237 C 
HETATM   13  O   UNL     1       3.918  33.868  57.028  1.00  0.00    -0.274 OA
HETATM   14  H   UNL     1       2.289  32.113  56.574  1.00  0.00     0.139 HD
BRANCH  12  15
HETATM   15  C   UNL     1       4.221  32.765  59.085  1.00  0.00     0.026 A 
HETATM   16  C   UNL     1       3.303  32.483  60.102  1.00  0.00     0.019 A 
HETATM   17  C   UNL     1       3.748  32.283  61.413  1.00  0.00     0.038 A 
HETATM   18  C   UNL     1       5.112  32.332  61.705  1.00  0.00     0.068 A 
HETATM   19  C   UNL     1       6.022  32.643  60.690  1.00  0.00     0.038 A 
HETATM   20  C   UNL     1       5.584  32.863  59.381  1.00  0.00     0.019 A 
BRANCH  18  21
HETATM   21  O   UNL     1       5.677  32.091  62.927  1.00  0.00    -0.351 OA
BRANCH  21  22
HETATM   22  C   UNL     1       6.775  32.926  63.305  1.00  0.00     0.179 C 
BRANCH  22  23
HETATM   23  C   UNL     1       6.278  33.995  64.291  1.00  0.00     0.002 C 
HETATM   24  C   UNL     1       5.888  35.269  63.543  1.00  0.00     0.011 C 
HETATM   25  C   UNL     1       5.093  33.482  65.113  1.00  0.00     0.011 C 
ENDBRANCH  22  23
ENDBRANCH  21  22
ENDBRANCH  18  21
ENDBRANCH  12  15
ENDBRANCH   9  11
ENDBRANCH   7   9
ENDBRANCH   5   7
BRANCH   1  26
HETATM   26  C   UNL     1       6.949  25.905  56.094  1.00  0.00     0.183 A 
HETATM   27  O   UNL     1       7.143  25.936  54.740  1.00  0.00    -0.288 OA
HETATM   28  C   UNL     1       7.358  24.630  54.404  1.00  0.00     0.112 A 
HETATM   29  C   UNL     1       7.283  23.881  55.567  1.00  0.00     0.094 A 
HETATM   30  C   UNL     1       7.624  24.119  53.133  1.00  0.00    -0.025 A 
HETATM   31  C   UNL     1       7.518  22.502  55.504  1.00  0.00     0.041 A 
HETATM   32  N   UNL     1       6.982  24.697  56.633  1.00  0.00    -0.221 NA
HETATM   33  C   UNL     1       7.821  21.928  54.257  1.00  0.00    -0.059 A 
HETATM   34  C   UNL     1       8.146  20.464  54.156  1.00  0.00     0.048 C 
HETATM   35  C   UNL     1       7.870  22.732  53.102  1.00  0.00     0.016 A 
HETATM   36  C   UNL     1       7.686  24.946  51.891  1.00  0.00     0.051 C 
ENDBRANCH   1  26
BRANCH   2  37
HETATM   37  O   UNL     1       9.107  27.437  57.273  1.00  0.00    -0.360 OA
HETATM   38  H   UNL     1       9.090  26.478  57.071  1.00  0.00     0.217 HD
ENDBRANCH   2  37
TORSDOF 9
ENDMDL
MODEL 10
REMARK VINA RESULT:      -9.6      2.680      3.620
REMARK  9 active torsions:
REMARK  status: ('A' for Active; 'I' for Inactive)
REMARK    1  A    between atoms: C_7  and  C_8 
REMARK    2  A    between atoms: C_9  and  O_10 
REMARK    3  A    between atoms: C_13  and  N_14 
REMARK    4  A    between atoms: N_14  and  C_15 
REMARK    5  A    between atoms: C_15  and  N_16 
REMARK       I    between atoms: N_16  and  C_17 
REMARK    6  A    between atoms: C_17  and  C_18 
REMARK    7  A    between atoms: C_21  and  O_22 
REMARK    8  A    between atoms: O_22  and  C_23 
REMARK    9  A    between atoms: C_23  and  C_24 
ROOT
HETATM    1  C   UNL     1       5.802  27.038  54.254  1.00  0.00     0.052 A 
HETATM    2  C   UNL     1       4.561  27.249  53.638  1.00  0.00     0.080 A 
HETATM    3  C   UNL     1       3.885  28.458  53.784  1.00  0.00     0.040 A 
HETATM    4  C   UNL     1       4.428  29.472  54.577  1.00  0.00     0.032 A 
HETATM    5  C   UNL     1       5.665  29.292  55.202  1.00  0.00     0.035 A 
HETATM    6  C   UNL     1       6.341  28.077  55.035  1.00  0.00     0.048 A 
ENDROOT
BRANCH   5   7
HETATM    7  N   UNL     1       6.122  30.309  56.072  1.00  0.00    -0.337 N 
HETATM    8  H   UNL     1       6.402  31.178  55.631  1.00  0.00     0.168 HD
BRANCH   7   9
HETATM    9  C   UNL     1       6.285  30.245  57.435  1.00  0.00     0.157 C 
HETATM   10  S   UNL     1       7.743  30.162  58.254  1.00  0.00    -0.047 SA
BRANCH   9  11
HETATM   11  N   UNL     1       5.134  30.265  58.193  1.00  0.00    -0.201 NA
HETATM   12  C   UNL     1       4.272  31.339  58.168  1.00  0.00     0.237 C 
HETATM   13  O   UNL     1       3.291  31.376  57.436  1.00  0.00    -0.274 OA
HETATM   14  H   UNL     1       4.634  29.412  57.963  1.00  0.00     0.139 HD
BRANCH  12  15
HETATM   15  C   UNL     1       4.513  32.415  59.158  1.00  0.00     0.026 A 
HETATM   16  C   UNL     1       3.686  33.543  59.150  1.00  0.00     0.019 A 
HETATM   17  C   UNL     1       3.818  34.518  60.145  1.00  0.00     0.038 A 
HETATM   18  C   UNL     1       4.753  34.351  61.168  1.00  0.00     0.068 A 
HETATM   19  C   UNL     1       5.597  33.236  61.155  1.00  0.00     0.038 A 
HETATM   20  C   UNL     1       5.484  32.268  60.153  1.00  0.00     0.019 A 
BRANCH  18  21
HETATM   21  O   UNL     1       4.934  35.194  62.230  1.00  0.00    -0.351 OA
BRANCH  21  22
HETATM   22  C   UNL     1       3.757  35.619  62.923  1.00  0.00     0.179 C 
BRANCH  22  23
HETATM   23  C   UNL     1       3.865  37.122  63.223  1.00  0.00     0.002 C 
HETATM   24  C   UNL     1       5.262  37.462  63.742  1.00  0.00     0.011 C 
HETATM   25  C   UNL     1       3.544  37.960  61.983  1.00  0.00     0.011 C 
ENDBRANCH  22  23
ENDBRANCH  21  22
ENDBRANCH  18  21
ENDBRANCH  12  15
ENDBRANCH   9  11
ENDBRANCH   7   9
ENDBRANCH   5   7
BRANCH   1  26
HETATM   26  C   UNL     1       6.486  25.754  54.143  1.00  0.00     0.183 A 
HETATM   27  O   UNL     1       7.008  25.221  55.290  1.00  0.00    -0.288 OA
HETATM   28  C   UNL     1       7.530  24.023  54.895  1.00  0.00     0.112 A 
HETATM   29  C   UNL     1       7.298  23.894  53.536  1.00  0.00     0.094 A 
HETATM   30  C   UNL     1       8.170  23.076  55.695  1.00  0.00    -0.025 A 
HETATM   31  C   UNL     1       7.695  22.719  52.886  1.00  0.00     0.041 A 
HETATM   32  N   UNL     1       6.668  25.019  53.057  1.00  0.00    -0.221 NA
HETATM   33  C   UNL     1       8.319  21.710  53.642  1.00  0.00    -0.059 A 
HETATM   34  C   UNL     1       8.700  20.407  52.999  1.00  0.00     0.048 C 
HETATM   35  C   UNL     1       8.546  21.898  55.019  1.00  0.00     0.016 A 
HETATM   36  C   UNL     1       8.421  23.244  57.158  1.00  0.00     0.051 C 
ENDBRANCH   1  26
BRANCH   2  37
HETATM   37  O   UNL     1       3.934  26.292  52.881  1.00  0.00    -0.360 OA
HETATM   38  H   UNL     1       4.539  26.023  52.157  1.00  0.00     0.217 HD
ENDBRANCH   2  37
TORSDOF 9
ENDMDL
