MODEL 1
REMARK VINA RESULT:     -10.0      0.000      0.000
REMARK  6 active torsions:
REMARK  status: ('A' for Active; 'I' for Inactive)
REMARK    1  A    between atoms: N_4  and  C_5 
REMARK    2  A    between atoms: C_13  and  C_14 
REMARK       I    between atoms: C_14  and  N_15 
REMARK    3  A    between atoms: N_15  and  C_16 
REMARK    4  A    between atoms: C_16  and  C_17 
REMARK    5  A    between atoms: C_17  and  O_18 
REMARK    6  A    between atoms: C_17  and  C_19 
ROOT
HETATM    1  C   UNL     1       8.299  29.526  58.192  1.00  0.00     0.257 C 
HETATM    2  N   UNL     1       7.516  28.406  58.058  1.00  0.00    -0.354 N 
HETATM    3  O   UNL     1       9.373  29.639  57.608  1.00  0.00    -0.267 OA
HETATM    4  H   UNL     1       6.566  28.422  58.412  1.00  0.00     0.162 HD
ENDROOT
BRANCH   1   5
HETATM    5  C   UNL     1       7.767  30.588  59.035  1.00  0.00     0.098 C 
HETATM    6  C   UNL     1       6.673  31.442  58.725  1.00  0.00     0.070 C 
HETATM    7  C   UNL     1       5.827  31.441  57.502  1.00  0.00     0.073 C 
HETATM    8  N   UNL     1       6.442  32.344  59.683  1.00  0.00    -0.170 NA
HETATM    9  N   UNL     1       7.313  32.039  60.687  1.00  0.00    -0.221 N 
HETATM   10  C   UNL     1       8.190  31.051  60.264  1.00  0.00     0.145 C 
HETATM   11 CL   UNL     1       9.616  30.661  61.129  1.00  0.00    -0.061 Cl
BRANCH   9  12
HETATM   12  C   UNL     1       7.169  32.717  61.938  1.00  0.00     0.060 A 
HETATM   13  C   UNL     1       7.866  32.336  63.090  1.00  0.00     0.031 A 
HETATM   14  C   UNL     1       7.674  33.024  64.293  1.00  0.00     0.002 A 
HETATM   15  C   UNL     1       6.776  34.086  64.363  1.00  0.00     0.000 A 
HETATM   16  C   UNL     1       6.058  34.460  63.231  1.00  0.00     0.002 A 
HETATM   17  C   UNL     1       6.246  33.776  62.028  1.00  0.00     0.031 A 
ENDBRANCH   9  12
ENDBRANCH   1   5
BRANCH   2  18
HETATM   18  C   UNL     1       7.830  27.367  57.092  1.00  0.00     0.159 C 
BRANCH  18  19
HETATM   19  C   UNL     1       7.306  25.981  57.511  1.00  0.00     0.169 C 
BRANCH  19  20
HETATM   20  O   UNL     1       7.984  25.561  58.700  1.00  0.00    -0.389 OA
HETATM   21  H   UNL     1       7.319  25.124  59.262  1.00  0.00     0.210 HD
ENDBRANCH  19  20
BRANCH  19  22
HETATM   22  C   UNL     1       7.433  24.938  56.416  1.00  0.00    -0.025 A 
HETATM   23  C   UNL     1       6.643  24.980  55.256  1.00  0.00     0.053 A 
HETATM   24  C   UNL     1       6.778  24.000  54.275  1.00  0.00     0.138 A 
HETATM   25  F   UNL     1       6.015  24.084  53.175  1.00  0.00    -0.204 F 
HETATM   26  C   UNL     1       7.689  22.959  54.430  1.00  0.00     0.072 A 
HETATM   27 CL   UNL     1       7.862  21.750  53.219  1.00  0.00    -0.081 Cl
HETATM   28  C   UNL     1       8.472  22.895  55.582  1.00  0.00     0.028 A 
HETATM   29  C   UNL     1       8.344  23.878  56.569  1.00  0.00     0.012 A 
ENDBRANCH  19  22
ENDBRANCH  18  19
ENDBRANCH   2  18
TORSDOF 6
ENDMDL
MODEL 2
REMARK VINA RESULT:      -9.8      4.192     10.073
REMARK  6 active torsions:
REMARK  status: ('A' for Active; 'I' for Inactive)
REMARK    1  A    between atoms: N_4  and  C_5 
REMARK    2  A    between atoms: C_13  and  C_14 
REMARK       I    between atoms: C_14  and  N_15 
REMARK    3  A    between atoms: N_15  and  C_16 
REMARK    4  A    between atoms: C_16  and  C_17 
REMARK    5  A    between atoms: C_17  and  O_18 
REMARK    6  A    between atoms: C_17  and  C_19 
ROOT
HETATM    1  C   UNL     1       7.374  30.825  58.741  1.00  0.00     0.257 C 
HETATM    2  N   UNL     1       7.597  30.838  60.096  1.00  0.00    -0.354 N 
HETATM    3  O   UNL     1       6.836  31.766  58.164  1.00  0.00    -0.267 OA
HETATM    4  H   UNL     1       8.195  30.128  60.505  1.00  0.00     0.162 HD
ENDROOT
BRANCH   1   5
HETATM    5  C   UNL     1       7.845  29.650  58.020  1.00  0.00     0.098 C 
HETATM    6  C   UNL     1       9.179  29.399  57.597  1.00  0.00     0.070 C 
HETATM    7  C   UNL     1      10.380  30.253  57.798  1.00  0.00     0.073 C 
HETATM    8  N   UNL     1       9.294  28.250  56.926  1.00  0.00    -0.170 NA
HETATM    9  N   UNL     1       8.060  27.672  56.981  1.00  0.00    -0.221 N 
HETATM   10  C   UNL     1       7.152  28.556  57.544  1.00  0.00     0.145 C 
HETATM   11 CL   UNL     1       5.460  28.304  57.465  1.00  0.00    -0.061 Cl
BRANCH   9  12
HETATM   12  C   UNL     1       7.921  26.328  56.513  1.00  0.00     0.060 A 
HETATM   13  C   UNL     1       8.417  25.225  57.219  1.00  0.00     0.031 A 
HETATM   14  C   UNL     1       8.270  23.932  56.706  1.00  0.00     0.002 A 
HETATM   15  C   UNL     1       7.641  23.727  55.480  1.00  0.00     0.000 A 
HETATM   16  C   UNL     1       7.165  24.816  54.756  1.00  0.00     0.002 A 
HETATM   17  C   UNL     1       7.311  26.108  55.264  1.00  0.00     0.031 A 
ENDBRANCH   9  12
ENDBRANCH   1   5
BRANCH   2  18
HETATM   18  C   UNL     1       7.365  32.029  60.896  1.00  0.00     0.159 C 
BRANCH  18  19
HETATM   19  C   UNL     1       7.958  31.924  62.313  1.00  0.00     0.169 C 
BRANCH  19  20
HETATM   20  O   UNL     1       8.217  30.549  62.615  1.00  0.00    -0.389 OA
HETATM   21  H   UNL     1       8.760  30.537  63.423  1.00  0.00     0.210 HD
ENDBRANCH  19  20
BRANCH  19  22
HETATM   22  C   UNL     1       7.082  32.559  63.376  1.00  0.00    -0.025 A 
HETATM   23  C   UNL     1       7.621  33.115  64.547  1.00  0.00     0.053 A 
HETATM   24  C   UNL     1       6.785  33.681  65.509  1.00  0.00     0.138 A 
HETATM   25  F   UNL     1       7.341  34.214  66.608  1.00  0.00    -0.204 F 
HETATM   26  C   UNL     1       5.405  33.697  65.330  1.00  0.00     0.072 A 
HETATM   27 CL   UNL     1       4.371  34.398  66.512  1.00  0.00    -0.081 Cl
HETATM   28  C   UNL     1       4.852  33.138  64.179  1.00  0.00     0.028 A 
HETATM   29  C   UNL     1       5.686  32.572  63.208  1.00  0.00     0.012 A 
ENDBRANCH  19  22
ENDBRANCH  18  19
ENDBRANCH   2  18
TORSDOF 6
ENDMDL
MODEL 3
REMARK VINA RESULT:      -9.8      4.550      9.643
REMARK  6 active torsions:
REMARK  status: ('A' for Active; 'I' for Inactive)
REMARK    1  A    between atoms: N_4  and  C_5 
REMARK    2  A    between atoms: C_13  and  C_14 
REMARK       I    between atoms: C_14  and  N_15 
REMARK    3  A    between atoms: N_15  and  C_16 
REMARK    4  A    between atoms: C_16  and  C_17 
REMARK    5  A    between atoms: C_17  and  O_18 
REMARK    6  A    between atoms: C_17  and  C_19 
ROOT
HETATM    1  C   UNL     1       5.817  27.139  54.391  1.00  0.00     0.257 C 
HETATM    2  N   UNL     1       4.935  27.300  55.430  1.00  0.00    -0.354 N 
HETATM    3  O   UNL     1       6.332  28.099  53.824  1.00  0.00    -0.267 OA
HETATM    4  H   UNL     1       4.669  26.492  55.982  1.00  0.00     0.162 HD
ENDROOT
BRANCH   1   5
HETATM    5  C   UNL     1       6.138  25.767  54.022  1.00  0.00     0.098 C 
HETATM    6  C   UNL     1       5.938  25.166  52.750  1.00  0.00     0.070 C 
HETATM    7  C   UNL     1       5.379  25.789  51.520  1.00  0.00     0.073 C 
HETATM    8  N   UNL     1       6.299  23.880  52.729  1.00  0.00    -0.170 NA
HETATM    9  N   UNL     1       6.838  23.635  53.958  1.00  0.00    -0.221 N 
HETATM   10  C   UNL     1       6.648  24.733  54.782  1.00  0.00     0.145 C 
HETATM   11 CL   UNL     1       6.890  24.659  56.476  1.00  0.00    -0.061 Cl
BRANCH   9  12
HETATM   12  C   UNL     1       7.496  22.383  54.170  1.00  0.00     0.060 A 
HETATM   13  C   UNL     1       7.692  21.837  55.444  1.00  0.00     0.031 A 
HETATM   14  C   UNL     1       8.359  20.617  55.596  1.00  0.00     0.002 A 
HETATM   15  C   UNL     1       8.847  19.936  54.484  1.00  0.00     0.000 A 
HETATM   16  C   UNL     1       8.681  20.479  53.213  1.00  0.00     0.002 A 
HETATM   17  C   UNL     1       8.017  21.697  53.057  1.00  0.00     0.031 A 
ENDBRANCH   9  12
ENDBRANCH   1   5
BRANCH   2  18
HETATM   18  C   UNL     1       4.689  28.601  56.028  1.00  0.00     0.159 C 
BRANCH  18  19
HETATM   19  C   UNL     1       5.234  28.714  57.464  1.00  0.00     0.169 C 
BRANCH  19  20
HETATM   20  O   UNL     1       4.452  29.668  58.191  1.00  0.00    -0.389 OA
HETATM   21  H   UNL     1       4.908  29.817  59.039  1.00  0.00     0.210 HD
ENDBRANCH  19  20
BRANCH  19  22
HETATM   22  C   UNL     1       6.709  29.066  57.518  1.00  0.00    -0.025 A 
HETATM   23  C   UNL     1       7.159  30.299  58.017  1.00  0.00     0.053 A 
HETATM   24  C   UNL     1       8.521  30.594  58.043  1.00  0.00     0.138 A 
HETATM   25  F   UNL     1       8.912  31.777  58.540  1.00  0.00    -0.204 F 
HETATM   26  C   UNL     1       9.456  29.678  57.568  1.00  0.00     0.072 A 
HETATM   27 CL   UNL     1      11.138  30.037  57.603  1.00  0.00    -0.081 Cl
HETATM   28  C   UNL     1       9.025  28.455  57.058  1.00  0.00     0.028 A 
HETATM   29  C   UNL     1       7.659  28.151  57.033  1.00  0.00     0.012 A 
ENDBRANCH  19  22
ENDBRANCH  18  19
ENDBRANCH   2  18
TORSDOF 6
ENDMDL
MODEL 4
REMARK VINA RESULT:      -9.8      3.572     10.106
REMARK  6 active torsions:
REMARK  status: ('A' for Active; 'I' for Inactive)
REMARK    1  A    between atoms: N_4  and  C_5 
REMARK    2  A    between atoms: C_13  and  C_14 
REMARK       I    between atoms: C_14  and  N_15 
REMARK    3  A    between atoms: N_15  and  C_16 
REMARK    4  A    between atoms: C_16  and  C_17 
REMARK    5  A    between atoms: C_17  and  O_18 
REMARK    6  A    between atoms: C_17  and  C_19 
ROOT
HETATM    1  C   UNL     1       7.195  27.619  54.878  1.00  0.00     0.257 C 
HETATM    2  N   UNL     1       6.605  28.025  56.050  1.00  0.00    -0.354 N 
HETATM    3  O   UNL     1       7.838  28.394  54.175  1.00  0.00    -0.267 OA
HETATM    4  H   UNL     1       6.235  27.326  56.684  1.00  0.00     0.162 HD
ENDROOT
BRANCH   1   5
HETATM    5  C   UNL     1       7.048  26.211  54.535  1.00  0.00     0.098 C 
HETATM    6  C   UNL     1       6.219  25.674  53.513  1.00  0.00     0.070 C 
HETATM    7  C   UNL     1       5.336  26.409  52.568  1.00  0.00     0.073 C 
HETATM    8  N   UNL     1       6.270  24.340  53.461  1.00  0.00    -0.170 NA
HETATM    9  N   UNL     1       7.211  23.977  54.380  1.00  0.00    -0.221 N 
HETATM   10  C   UNL     1       7.609  25.088  55.109  1.00  0.00     0.145 C 
HETATM   11 CL   UNL     1       8.515  24.957  56.557  1.00  0.00    -0.061 Cl
BRANCH   9  12
HETATM   12  C   UNL     1       7.630  22.611  54.416  1.00  0.00     0.060 A 
HETATM   13  C   UNL     1       7.643  21.854  55.593  1.00  0.00     0.031 A 
HETATM   14  C   UNL     1       8.080  20.525  55.576  1.00  0.00     0.002 A 
HETATM   15  C   UNL     1       8.519  19.942  54.390  1.00  0.00     0.000 A 
HETATM   16  C   UNL     1       8.534  20.690  53.216  1.00  0.00     0.002 A 
HETATM   17  C   UNL     1       8.100  22.017  53.229  1.00  0.00     0.031 A 
ENDBRANCH   9  12
ENDBRANCH   1   5
BRANCH   2  18
HETATM   18  C   UNL     1       6.846  29.344  56.609  1.00  0.00     0.159 C 
BRANCH  18  19
HETATM   19  C   UNL     1       7.949  29.348  57.683  1.00  0.00     0.169 C 
BRANCH  19  20
HETATM   20  O   UNL     1       8.053  28.039  58.255  1.00  0.00    -0.389 OA
HETATM   21  H   UNL     1       8.479  28.147  59.125  1.00  0.00     0.210 HD
ENDBRANCH  19  20
BRANCH  19  22
HETATM   22  C   UNL     1       7.733  30.396  58.758  1.00  0.00    -0.025 A 
HETATM   23  C   UNL     1       8.535  30.453  59.910  1.00  0.00     0.053 A 
HETATM   24  C   UNL     1       8.302  31.424  60.883  1.00  0.00     0.138 A 
HETATM   25  F   UNL     1       9.099  31.454  61.962  1.00  0.00    -0.204 F 
HETATM   26  C   UNL     1       7.269  32.345  60.736  1.00  0.00     0.072 A 
HETATM   27 CL   UNL     1       6.982  33.547  61.933  1.00  0.00    -0.081 Cl
HETATM   28  C   UNL     1       6.456  32.294  59.605  1.00  0.00     0.028 A 
HETATM   29  C   UNL     1       6.687  31.324  58.622  1.00  0.00     0.012 A 
ENDBRANCH  19  22
ENDBRANCH  18  19
ENDBRANCH   2  18
TORSDOF 6
ENDMDL
MODEL 5
REMARK VINA RESULT:      -9.6      2.917      4.195
REMARK  6 active torsions:
REMARK  status: ('A' for Active; 'I' for Inactive)
REMARK    1  A    between atoms: N_4  and  C_5 
REMARK    2  A    between atoms: C_13  and  C_14 
REMARK       I    between atoms: C_14  and  N_15 
REMARK    3  A    between atoms: N_15  and  C_16 
REMARK    4  A    between atoms: C_16  and  C_17 
REMARK    5  A    between atoms: C_17  and  O_18 
REMARK    6  A    between atoms: C_17  and  C_19 
ROOT
HETATM    1  C   UNL     1       5.807  27.163  55.375  1.00  0.00     0.257 C 
HETATM    2  N   UNL     1       6.113  27.103  54.038  1.00  0.00    -0.354 N 
HETATM    3  O   UNL     1       5.318  26.206  55.971  1.00  0.00    -0.267 OA
HETATM    4  H   UNL     1       6.671  27.843  53.626  1.00  0.00     0.162 HD
ENDROOT
BRANCH   1   5
HETATM    5  C   UNL     1       6.129  28.409  56.057  1.00  0.00     0.098 C 
HETATM    6  C   UNL     1       5.420  29.637  55.949  1.00  0.00     0.070 C 
HETATM    7  C   UNL     1       4.203  29.925  55.144  1.00  0.00     0.073 C 
HETATM    8  N   UNL     1       5.978  30.614  56.669  1.00  0.00    -0.170 NA
HETATM    9  N   UNL     1       7.006  30.025  57.345  1.00  0.00    -0.221 N 
HETATM   10  C   UNL     1       7.174  28.722  56.902  1.00  0.00     0.145 C 
HETATM   11 CL   UNL     1       8.568  27.800  57.278  1.00  0.00    -0.061 Cl
BRANCH   9  12
HETATM   12  C   UNL     1       7.675  30.785  58.354  1.00  0.00     0.060 A 
HETATM   13  C   UNL     1       6.988  31.503  59.341  1.00  0.00     0.031 A 
HETATM   14  C   UNL     1       7.692  32.246  60.295  1.00  0.00     0.002 A 
HETATM   15  C   UNL     1       9.083  32.292  60.267  1.00  0.00     0.000 A 
HETATM   16  C   UNL     1       9.778  31.603  59.278  1.00  0.00     0.002 A 
HETATM   17  C   UNL     1       9.080  30.861  58.323  1.00  0.00     0.031 A 
ENDBRANCH   9  12
ENDBRANCH   1   5
BRANCH   2  18
HETATM   18  C   UNL     1       6.035  25.859  53.292  1.00  0.00     0.159 C 
BRANCH  18  19
HETATM   19  C   UNL     1       7.418  25.262  52.975  1.00  0.00     0.169 C 
BRANCH  19  20
HETATM   20  O   UNL     1       7.565  25.141  51.555  1.00  0.00    -0.389 OA
HETATM   21  H   UNL     1       8.470  24.817  51.394  1.00  0.00     0.210 HD
ENDBRANCH  19  20
BRANCH  19  22
HETATM   22  C   UNL     1       7.667  23.932  53.662  1.00  0.00    -0.025 A 
HETATM   23  C   UNL     1       7.705  22.724  52.948  1.00  0.00     0.053 A 
HETATM   24  C   UNL     1       7.927  21.519  53.612  1.00  0.00     0.138 A 
HETATM   25  F   UNL     1       7.970  20.388  52.892  1.00  0.00    -0.204 F 
HETATM   26  C   UNL     1       8.105  21.490  54.992  1.00  0.00     0.072 A 
HETATM   27 CL   UNL     1       8.383  20.006  55.816  1.00  0.00    -0.081 Cl
HETATM   28  C   UNL     1       8.057  22.680  55.718  1.00  0.00     0.028 A 
HETATM   29  C   UNL     1       7.839  23.893  55.056  1.00  0.00     0.012 A 
ENDBRANCH  19  22
ENDBRANCH  18  19
ENDBRANCH   2  18
TORSDOF 6
ENDMDL
MODEL 6
REMARK VINA RESULT:      -9.4      4.091      9.661
REMARK  6 active torsions:
REMARK  status: ('A' for Active; 'I' for Inactive)
REMARK    1  A    between atoms: N_4  and  C_5 
REMARK    2  A    between atoms: C_13  and  C_14 
REMARK       I    between atoms: C_14  and  N_15 
REMARK    3  A    between atoms: N_15  and  C_16 
REMARK    4  A    between atoms: C_16  and  C_17 
REMARK    5  A    between atoms: C_17  and  O_18 
REMARK    6  A    between atoms: C_17  and  C_19 
ROOT
HETATM    1  C   UNL     1       9.144  31.260  59.105  1.00  0.00     0.257 C 
HETATM    2  N   UNL     1       8.860  30.884  60.395  1.00  0.00    -0.354 N 
HETATM    3  O   UNL     1       9.599  32.368  58.839  1.00  0.00    -0.267 OA
HETATM    4  H   UNL     1       8.653  29.911  60.592  1.00  0.00     0.162 HD
ENDROOT
BRANCH   1   5
HETATM    5  C   UNL     1       8.911  30.257  58.074  1.00  0.00     0.098 C 
HETATM    6  C   UNL     1       9.899  29.637  57.263  1.00  0.00     0.070 C 
HETATM    7  C   UNL     1      11.371  29.852  57.285  1.00  0.00     0.073 C 
HETATM    8  N   UNL     1       9.374  28.782  56.381  1.00  0.00    -0.170 NA
HETATM    9  N   UNL     1       8.040  28.745  56.661  1.00  0.00    -0.221 N 
HETATM   10  C   UNL     1       7.732  29.711  57.608  1.00  0.00     0.145 C 
HETATM   11 CL   UNL     1       6.120  30.178  57.948  1.00  0.00    -0.061 Cl
BRANCH   9  12
HETATM   12  C   UNL     1       7.237  27.762  56.003  1.00  0.00     0.060 A 
HETATM   13  C   UNL     1       6.435  26.851  56.700  1.00  0.00     0.031 A 
HETATM   14  C   UNL     1       5.682  25.896  56.006  1.00  0.00     0.002 A 
HETATM   15  C   UNL     1       5.732  25.832  54.616  1.00  0.00     0.000 A 
HETATM   16  C   UNL     1       6.545  26.716  53.912  1.00  0.00     0.002 A 
HETATM   17  C   UNL     1       7.298  27.670  54.600  1.00  0.00     0.031 A 
ENDBRANCH   9  12
ENDBRANCH   1   5
BRANCH   2  18
HETATM   18  C   UNL     1       9.237  31.708  61.530  1.00  0.00     0.159 C 
BRANCH  18  19
HETATM   19  C   UNL     1       8.337  31.484  62.759  1.00  0.00     0.169 C 
BRANCH  19  20
HETATM   20  O   UNL     1       7.487  30.356  62.521  1.00  0.00    -0.389 OA
HETATM   21  H   UNL     1       8.001  29.564  62.758  1.00  0.00     0.210 HD
ENDBRANCH  19  20
BRANCH  19  22
HETATM   22  C   UNL     1       7.523  32.708  63.136  1.00  0.00    -0.025 A 
HETATM   23  C   UNL     1       6.831  33.464  62.175  1.00  0.00     0.053 A 
HETATM   24  C   UNL     1       6.101  34.588  62.555  1.00  0.00     0.138 A 
HETATM   25  F   UNL     1       5.443  35.275  61.609  1.00  0.00    -0.204 F 
HETATM   26  C   UNL     1       6.052  34.987  63.887  1.00  0.00     0.072 A 
HETATM   27 CL   UNL     1       5.148  36.372  64.361  1.00  0.00    -0.081 Cl
HETATM   28  C   UNL     1       6.743  34.256  64.852  1.00  0.00     0.028 A 
HETATM   29  C   UNL     1       7.474  33.123  64.478  1.00  0.00     0.012 A 
ENDBRANCH  19  22
ENDBRANCH  18  19
ENDBRANCH   2  18
TORSDOF 6
ENDMDL
MODEL 7
REMARK VINA RESULT:      -9.4      5.873      9.588
REMARK  6 active torsions:
REMARK  status: ('A' for Active; 'I' for Inactive)
REMARK    1  A    between atoms: N_4  and  C_5 
REMARK    2  A    between atoms: C_13  and  C_14 
REMARK       I    between atoms: C_14  and  N_15 
REMARK    3  A    between atoms: N_15  and  C_16 
REMARK    4  A    between atoms: C_16  and  C_17 
REMARK    5  A    between atoms: C_17  and  O_18 
REMARK    6  A    between atoms: C_17  and  C_19 
ROOT
HETATM    1  C   UNL     1       5.605  27.357  55.121  1.00  0.00     0.257 C 
HETATM    2  N   UNL     1       5.793  28.185  54.042  1.00  0.00    -0.354 N 
HETATM    3  O   UNL     1       4.740  27.577  55.964  1.00  0.00    -0.267 OA
HETATM    4  H   UNL     1       6.393  27.879  53.284  1.00  0.00     0.162 HD
ENDROOT
BRANCH   1   5
HETATM    5  C   UNL     1       6.464  26.181  55.190  1.00  0.00     0.098 C 
HETATM    6  C   UNL     1       7.546  25.979  56.089  1.00  0.00     0.070 C 
HETATM    7  C   UNL     1       8.037  26.895  57.153  1.00  0.00     0.073 C 
HETATM    8  N   UNL     1       8.168  24.815  55.886  1.00  0.00    -0.170 NA
HETATM    9  N   UNL     1       7.446  24.181  54.918  1.00  0.00    -0.221 N 
HETATM   10  C   UNL     1       6.480  25.039  54.415  1.00  0.00     0.145 C 
HETATM   11 CL   UNL     1       5.620  24.705  52.971  1.00  0.00    -0.061 Cl
BRANCH   9  12
HETATM   12  C   UNL     1       7.759  22.817  54.625  1.00  0.00     0.060 A 
HETATM   13  C   UNL     1       8.065  22.372  53.333  1.00  0.00     0.031 A 
HETATM   14  C   UNL     1       8.346  21.022  53.098  1.00  0.00     0.002 A 
HETATM   15  C   UNL     1       8.312  20.102  54.143  1.00  0.00     0.000 A 
HETATM   16  C   UNL     1       7.986  20.526  55.427  1.00  0.00     0.002 A 
HETATM   17  C   UNL     1       7.703  21.872  55.667  1.00  0.00     0.031 A 
ENDBRANCH   9  12
ENDBRANCH   1   5
BRANCH   2  18
HETATM   18  C   UNL     1       4.875  29.271  53.745  1.00  0.00     0.159 C 
BRANCH  18  19
HETATM   19  C   UNL     1       3.755  28.860  52.771  1.00  0.00     0.169 C 
BRANCH  19  20
HETATM   20  O   UNL     1       3.097  27.693  53.275  1.00  0.00    -0.389 OA
HETATM   21  H   UNL     1       3.725  27.256  53.878  1.00  0.00     0.210 HD
ENDBRANCH  19  20
BRANCH  19  22
HETATM   22  C   UNL     1       4.248  28.637  51.354  1.00  0.00    -0.025 A 
HETATM   23  C   UNL     1       4.318  27.355  50.786  1.00  0.00     0.053 A 
HETATM   24  C   UNL     1       4.785  27.185  49.484  1.00  0.00     0.138 A 
HETATM   25  F   UNL     1       4.824  25.945  48.973  1.00  0.00    -0.204 F 
HETATM   26  C   UNL     1       5.198  28.279  48.728  1.00  0.00     0.072 A 
HETATM   27 CL   UNL     1       5.771  28.074  47.119  1.00  0.00    -0.081 Cl
HETATM   28  C   UNL     1       5.147  29.558  49.281  1.00  0.00     0.028 A 
HETATM   29  C   UNL     1       4.675  29.735  50.587  1.00  0.00     0.012 A 
ENDBRANCH  19  22
ENDBRANCH  18  19
ENDBRANCH   2  18
TORSDOF 6
ENDMDL
MODEL 8
REMARK VINA RESULT:      -9.1      3.827      9.984
REMARK  6 active torsions:
REMARK  status: ('A' for Active; 'I' for Inactive)
REMARK    1  A    between atoms: N_4  and  C_5 
REMARK    2  A    between atoms: C_13  and  C_14 
REMARK       I    between atoms: C_14  and  N_15 
REMARK    3  A    between atoms: N_15  and  C_16 
REMARK    4  A    between atoms: C_16  and  C_17 
REMARK    5  A    between atoms: C_17  and  O_18 
REMARK    6  A    between atoms: C_17  and  C_19 
ROOT
HETATM    1  C   UNL     1       8.177  29.702  57.901  1.00  0.00     0.257 C 
HETATM    2  N   UNL     1       7.418  30.224  58.919  1.00  0.00    -0.354 N 
HETATM    3  O   UNL     1       9.402  29.785  57.898  1.00  0.00    -0.267 OA
HETATM    4  H   UNL     1       6.434  29.986  58.973  1.00  0.00     0.162 HD
ENDROOT
BRANCH   1   5
HETATM    5  C   UNL     1       7.451  29.011  56.843  1.00  0.00     0.098 C 
HETATM    6  C   UNL     1       6.355  29.524  56.098  1.00  0.00     0.070 C 
HETATM    7  C   UNL     1       5.715  30.861  56.213  1.00  0.00     0.073 C 
HETATM    8  N   UNL     1       5.876  28.640  55.219  1.00  0.00    -0.170 NA
HETATM    9  N   UNL     1       6.711  27.563  55.295  1.00  0.00    -0.221 N 
HETATM   10  C   UNL     1       7.599  27.732  56.347  1.00  0.00     0.145 C 
HETATM   11 CL   UNL     1       8.560  26.447  56.948  1.00  0.00    -0.061 Cl
BRANCH   9  12
HETATM   12  C   UNL     1       6.565  26.524  54.324  1.00  0.00     0.060 A 
HETATM   13  C   UNL     1       5.419  25.726  54.236  1.00  0.00     0.031 A 
HETATM   14  C   UNL     1       5.335  24.710  53.278  1.00  0.00     0.002 A 
HETATM   15  C   UNL     1       6.397  24.471  52.408  1.00  0.00     0.000 A 
HETATM   16  C   UNL     1       7.552  25.242  52.500  1.00  0.00     0.002 A 
HETATM   17  C   UNL     1       7.640  26.256  53.456  1.00  0.00     0.031 A 
ENDBRANCH   9  12
ENDBRANCH   1   5
BRANCH   2  18
HETATM   18  C   UNL     1       8.024  30.754  60.128  1.00  0.00     0.159 C 
BRANCH  18  19
HETATM   19  C   UNL     1       7.902  32.285  60.240  1.00  0.00     0.169 C 
BRANCH  19  20
HETATM   20  O   UNL     1       9.140  32.886  59.844  1.00  0.00    -0.389 OA
HETATM   21  H   UNL     1       9.253  33.682  60.394  1.00  0.00     0.210 HD
ENDBRANCH  19  20
BRANCH  19  22
HETATM   22  C   UNL     1       7.488  32.753  61.622  1.00  0.00    -0.025 A 
HETATM   23  C   UNL     1       6.386  33.600  61.819  1.00  0.00     0.053 A 
HETATM   24  C   UNL     1       6.039  34.019  63.103  1.00  0.00     0.138 A 
HETATM   25  F   UNL     1       4.971  34.818  63.250  1.00  0.00    -0.204 F 
HETATM   26  C   UNL     1       6.782  33.613  64.208  1.00  0.00     0.072 A 
HETATM   27 CL   UNL     1       6.354  34.124  65.794  1.00  0.00    -0.081 Cl
HETATM   28  C   UNL     1       7.886  32.782  64.029  1.00  0.00     0.028 A 
HETATM   29  C   UNL     1       8.237  32.355  62.743  1.00  0.00     0.012 A 
ENDBRANCH  19  22
ENDBRANCH  18  19
ENDBRANCH   2  18
TORSDOF 6
ENDMDL
MODEL 9
REMARK VINA RESULT:      -9.1      2.636      3.324
REMARK  6 active torsions:
REMARK  status: ('A' for Active; 'I' for Inactive)
REMARK    1  A    between atoms: N_4  and  C_5 
REMARK    2  A    between atoms: C_13  and  C_14 
REMARK       I    between atoms: C_14  and  N_15 
REMARK    3  A    between atoms: N_15  and  C_16 
REMARK    4  A    between atoms: C_16  and  C_17 
REMARK    5  A    between atoms: C_17  and  O_18 
REMARK    6  A    between atoms: C_17  and  C_19 
ROOT
HETATM    1  C   UNL     1       5.894  28.505  55.637  1.00  0.00     0.257 C 
HETATM    2  N   UNL     1       6.117  27.179  55.914  1.00  0.00    -0.354 N 
HETATM    3  O   UNL     1       5.507  28.880  54.534  1.00  0.00    -0.267 OA
HETATM    4  H   UNL     1       6.266  26.893  56.875  1.00  0.00     0.162 HD
ENDROOT
BRANCH   1   5
HETATM    5  C   UNL     1       6.104  29.438  56.736  1.00  0.00     0.098 C 
HETATM    6  C   UNL     1       5.161  30.374  57.240  1.00  0.00     0.070 C 
HETATM    7  C   UNL     1       3.764  30.604  56.782  1.00  0.00     0.073 C 
HETATM    8  N   UNL     1       5.658  31.119  58.231  1.00  0.00    -0.170 NA
HETATM    9  N   UNL     1       6.906  30.620  58.468  1.00  0.00    -0.221 N 
HETATM   10  C   UNL     1       7.227  29.679  57.502  1.00  0.00     0.145 C 
HETATM   11 CL   UNL     1       8.824  29.097  57.285  1.00  0.00    -0.061 Cl
BRANCH   9  12
HETATM   12  C   UNL     1       7.616  31.093  59.616  1.00  0.00     0.060 A 
HETATM   13  C   UNL     1       8.726  30.425  60.146  1.00  0.00     0.031 A 
HETATM   14  C   UNL     1       9.374  30.922  61.283  1.00  0.00     0.002 A 
HETATM   15  C   UNL     1       8.914  32.078  61.908  1.00  0.00     0.000 A 
HETATM   16  C   UNL     1       7.797  32.738  61.406  1.00  0.00     0.002 A 
HETATM   17  C   UNL     1       7.146  32.245  60.272  1.00  0.00     0.031 A 
ENDBRANCH   9  12
ENDBRANCH   1   5
BRANCH   2  18
HETATM   18  C   UNL     1       5.750  26.131  54.976  1.00  0.00     0.159 C 
BRANCH  18  19
HETATM   19  C   UNL     1       6.899  25.747  54.026  1.00  0.00     0.169 C 
BRANCH  19  20
HETATM   20  O   UNL     1       6.525  26.067  52.681  1.00  0.00    -0.389 OA
HETATM   21  H   UNL     1       7.184  26.705  52.352  1.00  0.00     0.210 HD
ENDBRANCH  19  20
BRANCH  19  22
HETATM   22  C   UNL     1       7.311  24.292  54.144  1.00  0.00    -0.025 A 
HETATM   23  C   UNL     1       7.467  23.664  55.390  1.00  0.00     0.053 A 
HETATM   24  C   UNL     1       7.857  22.328  55.462  1.00  0.00     0.138 A 
HETATM   25  F   UNL     1       7.981  21.759  56.671  1.00  0.00    -0.204 F 
HETATM   26  C   UNL     1       8.107  21.597  54.304  1.00  0.00     0.072 A 
HETATM   27 CL   UNL     1       8.585  19.946  54.388  1.00  0.00    -0.081 Cl
HETATM   28  C   UNL     1       7.970  22.209  53.059  1.00  0.00     0.028 A 
HETATM   29  C   UNL     1       7.575  23.549  52.980  1.00  0.00     0.012 A 
ENDBRANCH  19  22
ENDBRANCH  18  19
ENDBRANCH   2  18
TORSDOF 6
ENDMDL
MODEL 10
REMARK VINA RESULT:      -9.1      6.440      9.948
REMARK  6 active torsions:
REMARK  status: ('A' for Active; 'I' for Inactive)
REMARK    1  A    between atoms: N_4  and  C_5 
REMARK    2  A    between atoms: C_13  and  C_14 
REMARK       I    between atoms: C_14  and  N_15 
REMARK    3  A    between atoms: N_15  and  C_16 
REMARK    4  A    between atoms: C_16  and  C_17 
REMARK    5  A    between atoms: C_17  and  O_18 
REMARK    6  A    between atoms: C_17  and  C_19 
ROOT
HETATM    1  C   UNL     1       5.017  28.013  53.436  1.00  0.00     0.257 C 
HETATM    2  N   UNL     1       5.476  28.896  52.490  1.00  0.00    -0.354 N 
HETATM    3  O   UNL     1       3.897  28.115  53.929  1.00  0.00    -0.267 OA
HETATM    4  H   UNL     1       6.328  28.680  51.985  1.00  0.00     0.162 HD
ENDROOT
BRANCH   1   5
HETATM    5  C   UNL     1       5.918  26.926  53.795  1.00  0.00     0.098 C 
HETATM    6  C   UNL     1       7.076  27.026  54.614  1.00  0.00     0.070 C 
HETATM    7  C   UNL     1       7.619  28.234  55.290  1.00  0.00     0.073 C 
HETATM    8  N   UNL     1       7.719  25.862  54.733  1.00  0.00    -0.170 NA
HETATM    9  N   UNL     1       6.944  24.949  54.080  1.00  0.00    -0.221 N 
HETATM   10  C   UNL     1       5.912  25.598  53.419  1.00  0.00     0.145 C 
HETATM   11 CL   UNL     1       4.951  24.820  52.234  1.00  0.00    -0.061 Cl
BRANCH   9  12
HETATM   12  C   UNL     1       7.279  23.565  54.203  1.00  0.00     0.060 A 
HETATM   13  C   UNL     1       7.330  22.905  55.437  1.00  0.00     0.031 A 
HETATM   14  C   UNL     1       7.681  21.553  55.502  1.00  0.00     0.002 A 
HETATM   15  C   UNL     1       7.998  20.849  54.343  1.00  0.00     0.000 A 
HETATM   16  C   UNL     1       7.975  21.498  53.112  1.00  0.00     0.002 A 
HETATM   17  C   UNL     1       7.626  22.849  53.042  1.00  0.00     0.031 A 
ENDBRANCH   9  12
ENDBRANCH   1   5
BRANCH   2  18
HETATM   18  C   UNL     1       4.606  29.897  51.896  1.00  0.00     0.159 C 
BRANCH  18  19
HETATM   19  C   UNL     1       4.861  30.096  50.391  1.00  0.00     0.169 C 
BRANCH  19  20
HETATM   20  O   UNL     1       4.279  31.336  49.974  1.00  0.00    -0.389 OA
HETATM   21  H   UNL     1       4.973  32.014  50.060  1.00  0.00     0.210 HD
ENDBRANCH  19  20
BRANCH  19  22
HETATM   22  C   UNL     1       4.354  28.945  49.542  1.00  0.00    -0.025 A 
HETATM   23  C   UNL     1       5.221  28.157  48.767  1.00  0.00     0.053 A 
HETATM   24  C   UNL     1       4.720  27.113  47.991  1.00  0.00     0.138 A 
HETATM   25  F   UNL     1       5.582  26.375  47.276  1.00  0.00    -0.204 F 
HETATM   26  C   UNL     1       3.355  26.840  47.962  1.00  0.00     0.072 A 
HETATM   27 CL   UNL     1       2.734  25.551  47.008  1.00  0.00    -0.081 Cl
HETATM   28  C   UNL     1       2.480  27.621  48.715  1.00  0.00     0.028 A 
HETATM   29  C   UNL     1       2.977  28.668  49.500  1.00  0.00     0.012 A 
ENDBRANCH  19  22
ENDBRANCH  18  19
ENDBRANCH   2  18
TORSDOF 6
ENDMDL
