MODEL 1
REMARK VINA RESULT:      -8.6      0.000      0.000
REMARK  4 active torsions:
REMARK  status: ('A' for Active; 'I' for Inactive)
REMARK    1  A    between atoms: C_2  and  O_3 
REMARK    2  A    between atoms: O_3  and  C_4 
REMARK    3  A    between atoms: C_10  and  N_11 
REMARK       I    between atoms: N_11  and  C_12 
REMARK    4  A    between atoms: C_12  and  C_13 
ROOT
HETATM    1  N   UNL     1       7.294  24.195  56.069  1.00  0.00    -0.320 N 
HETATM    2  C   UNL     1       7.864  25.152  56.884  1.00  0.00     0.257 C 
HETATM    3  O   UNL     1       8.923  25.052  57.491  1.00  0.00    -0.267 OA
HETATM    4  H   UNL     1       6.482  24.444  55.514  1.00  0.00     0.169 HD
ENDROOT
BRANCH   2   5
HETATM    5  C   UNL     1       7.121  26.434  56.985  1.00  0.00     0.052 A 
HETATM    6  C   UNL     1       7.725  27.488  57.674  1.00  0.00     0.136 A 
HETATM    7  N   UNL     1       7.193  28.719  57.867  1.00  0.00    -0.238 NA
HETATM    8  C   UNL     1       5.955  28.876  57.351  1.00  0.00     0.177 A 
HETATM    9  C   UNL     1       5.279  27.870  56.671  1.00  0.00     0.083 A 
HETATM   10  N   UNL     1       5.204  30.014  57.427  1.00  0.00    -0.214 NA
HETATM   11  N   UNL     1       4.073  28.439  56.351  1.00  0.00    -0.342 N 
HETATM   12  C   UNL     1       5.835  26.608  56.459  1.00  0.00     0.052 A 
HETATM   13  H   UNL     1       3.311  27.991  55.859  1.00  0.00     0.167 HD
HETATM   14  C   UNL     1       4.070  29.730  56.821  1.00  0.00     0.103 A 
HETATM   15  C   UNL     1       2.909  30.636  56.657  1.00  0.00     0.091 C 
ENDBRANCH   2   5
BRANCH   1  16
HETATM   16  C   UNL     1       7.744  22.871  55.852  1.00  0.00     0.070 A 
HETATM   17  C   UNL     1       7.673  22.366  54.540  1.00  0.00     0.117 A 
HETATM   18  C   UNL     1       8.022  21.034  54.270  1.00  0.00     0.069 A 
HETATM   19 CL   UNL     1       7.863  20.353  52.692  1.00  0.00    -0.081 Cl
HETATM   20  C   UNL     1       8.501  20.219  55.296  1.00  0.00     0.027 A 
HETATM   21  C   UNL     1       8.610  20.725  56.589  1.00  0.00     0.004 A 
HETATM   22  C   UNL     1       8.227  22.042  56.868  1.00  0.00     0.032 A 
BRANCH  17  23
HETATM   23  O   UNL     1       7.192  23.191  53.547  1.00  0.00    -0.347 OA
BRANCH  23  24
HETATM   24  C   UNL     1       8.276  23.759  52.793  1.00  0.00     0.171 C 
HETATM   25  C   UNL     1       7.878  25.164  52.382  1.00  0.00     0.034 C 
ENDBRANCH  23  24
ENDBRANCH  17  23
ENDBRANCH   1  16
TORSDOF 4
ENDMDL
MODEL 2
REMARK VINA RESULT:      -8.4      3.605      7.832
REMARK  4 active torsions:
REMARK  status: ('A' for Active; 'I' for Inactive)
REMARK    1  A    between atoms: C_2  and  O_3 
REMARK    2  A    between atoms: O_3  and  C_4 
REMARK    3  A    between atoms: C_10  and  N_11 
REMARK       I    between atoms: N_11  and  C_12 
REMARK    4  A    between atoms: C_12  and  C_13 
ROOT
HETATM    1  N   UNL     1       6.977  27.612  56.869  1.00  0.00    -0.320 N 
HETATM    2  C   UNL     1       7.142  27.229  55.553  1.00  0.00     0.257 C 
HETATM    3  O   UNL     1       7.196  27.973  54.581  1.00  0.00    -0.267 OA
HETATM    4  H   UNL     1       7.082  26.916  57.599  1.00  0.00     0.169 HD
ENDROOT
BRANCH   2   5
HETATM    5  C   UNL     1       7.309  25.771  55.325  1.00  0.00     0.052 A 
HETATM    6  C   UNL     1       7.301  24.929  56.439  1.00  0.00     0.136 A 
HETATM    7  N   UNL     1       7.444  23.581  56.418  1.00  0.00    -0.238 NA
HETATM    8  C   UNL     1       7.638  23.063  55.186  1.00  0.00     0.177 A 
HETATM    9  C   UNL     1       7.681  23.836  54.032  1.00  0.00     0.083 A 
HETATM   10  N   UNL     1       7.824  21.741  54.905  1.00  0.00    -0.214 NA
HETATM   11  N   UNL     1       7.920  22.927  53.033  1.00  0.00    -0.342 N 
HETATM   12  C   UNL     1       7.516  25.222  54.054  1.00  0.00     0.052 A 
HETATM   13  H   UNL     1       8.028  23.133  52.049  1.00  0.00     0.167 HD
HETATM   14  C   UNL     1       7.996  21.678  53.600  1.00  0.00     0.103 A 
HETATM   15  C   UNL     1       8.257  20.455  52.805  1.00  0.00     0.091 C 
ENDBRANCH   2   5
BRANCH   1  16
HETATM   16  C   UNL     1       6.725  28.915  57.360  1.00  0.00     0.070 A 
HETATM   17  C   UNL     1       7.809  29.626  57.908  1.00  0.00     0.117 A 
HETATM   18  C   UNL     1       7.613  30.887  58.490  1.00  0.00     0.069 A 
HETATM   19 CL   UNL     1       8.901  31.750  59.250  1.00  0.00    -0.081 Cl
HETATM   20  C   UNL     1       6.346  31.472  58.473  1.00  0.00     0.027 A 
HETATM   21  C   UNL     1       5.276  30.788  57.899  1.00  0.00     0.004 A 
HETATM   22  C   UNL     1       5.463  29.514  57.352  1.00  0.00     0.032 A 
BRANCH  17  23
HETATM   23  O   UNL     1       9.049  29.024  57.914  1.00  0.00    -0.347 OA
BRANCH  23  24
HETATM   24  C   UNL     1       9.813  29.427  56.766  1.00  0.00     0.171 C 
HETATM   25  C   UNL     1      11.194  29.839  57.239  1.00  0.00     0.034 C 
ENDBRANCH  23  24
ENDBRANCH  17  23
ENDBRANCH   1  16
TORSDOF 4
ENDMDL
MODEL 3
REMARK VINA RESULT:      -8.4      1.517      1.684
REMARK  4 active torsions:
REMARK  status: ('A' for Active; 'I' for Inactive)
REMARK    1  A    between atoms: C_2  and  O_3 
REMARK    2  A    between atoms: O_3  and  C_4 
REMARK    3  A    between atoms: C_10  and  N_11 
REMARK       I    between atoms: N_11  and  C_12 
REMARK    4  A    between atoms: C_12  and  C_13 
ROOT
HETATM    1  N   UNL     1       8.100  24.272  56.526  1.00  0.00    -0.320 N 
HETATM    2  C   UNL     1       6.929  24.996  56.632  1.00  0.00     0.257 C 
HETATM    3  O   UNL     1       5.792  24.561  56.502  1.00  0.00    -0.267 OA
HETATM    4  H   UNL     1       8.975  24.714  56.786  1.00  0.00     0.169 HD
ENDROOT
BRANCH   2   5
HETATM    5  C   UNL     1       7.091  26.432  56.978  1.00  0.00     0.052 A 
HETATM    6  C   UNL     1       8.385  26.913  57.188  1.00  0.00     0.136 A 
HETATM    7  N   UNL     1       8.717  28.185  57.514  1.00  0.00    -0.238 NA
HETATM    8  C   UNL     1       7.660  29.013  57.664  1.00  0.00     0.177 A 
HETATM    9  C   UNL     1       6.342  28.606  57.494  1.00  0.00     0.083 A 
HETATM   10  N   UNL     1       7.731  30.333  58.005  1.00  0.00    -0.214 NA
HETATM   11  N   UNL     1       5.609  29.733  57.764  1.00  0.00    -0.342 N 
HETATM   12  C   UNL     1       6.004  27.298  57.142  1.00  0.00     0.052 A 
HETATM   13  H   UNL     1       4.602  29.809  57.752  1.00  0.00     0.167 HD
HETATM   14  C   UNL     1       6.483  30.750  58.064  1.00  0.00     0.103 A 
HETATM   15  C   UNL     1       6.028  32.115  58.418  1.00  0.00     0.091 C 
ENDBRANCH   2   5
BRANCH   1  16
HETATM   16  C   UNL     1       8.242  22.918  56.139  1.00  0.00     0.070 A 
HETATM   17  C   UNL     1       8.392  22.646  54.766  1.00  0.00     0.117 A 
HETATM   18  C   UNL     1       8.451  21.322  54.306  1.00  0.00     0.069 A 
HETATM   19 CL   UNL     1       8.545  20.947  52.623  1.00  0.00    -0.081 Cl
HETATM   20  C   UNL     1       8.424  20.266  55.217  1.00  0.00     0.027 A 
HETATM   21  C   UNL     1       8.314  20.532  56.581  1.00  0.00     0.004 A 
HETATM   22  C   UNL     1       8.217  21.850  57.039  1.00  0.00     0.032 A 
BRANCH  17  23
HETATM   23  O   UNL     1       8.412  23.706  53.888  1.00  0.00    -0.347 OA
BRANCH  23  24
HETATM   24  C   UNL     1       7.165  23.802  53.181  1.00  0.00     0.171 C 
HETATM   25  C   UNL     1       7.318  24.849  52.093  1.00  0.00     0.034 C 
ENDBRANCH  23  24
ENDBRANCH  17  23
ENDBRANCH   1  16
TORSDOF 4
ENDMDL
MODEL 4
REMARK VINA RESULT:      -8.4      3.057      4.611
REMARK  4 active torsions:
REMARK  status: ('A' for Active; 'I' for Inactive)
REMARK    1  A    between atoms: C_2  and  O_3 
REMARK    2  A    between atoms: O_3  and  C_4 
REMARK    3  A    between atoms: C_10  and  N_11 
REMARK       I    between atoms: N_11  and  C_12 
REMARK    4  A    between atoms: C_12  and  C_13 
ROOT
HETATM    1  N   UNL     1       7.003  27.219  55.431  1.00  0.00    -0.320 N 
HETATM    2  C   UNL     1       7.929  28.202  55.144  1.00  0.00     0.257 C 
HETATM    3  O   UNL     1       8.348  28.503  54.033  1.00  0.00    -0.267 OA
HETATM    4  H   UNL     1       6.635  27.153  56.373  1.00  0.00     0.169 HD
ENDROOT
BRANCH   2   5
HETATM    5  C   UNL     1       8.416  28.985  56.309  1.00  0.00     0.052 A 
HETATM    6  C   UNL     1       9.654  29.622  56.199  1.00  0.00     0.136 A 
HETATM    7  N   UNL     1      10.251  30.369  57.158  1.00  0.00    -0.238 NA
HETATM    8  C   UNL     1       9.557  30.447  58.314  1.00  0.00     0.177 A 
HETATM    9  C   UNL     1       8.330  29.825  58.510  1.00  0.00     0.083 A 
HETATM   10  N   UNL     1       9.953  31.124  59.431  1.00  0.00    -0.214 NA
HETATM   11  N   UNL     1       8.002  30.137  59.804  1.00  0.00    -0.342 N 
HETATM   12  C   UNL     1       7.708  29.069  57.514  1.00  0.00     0.052 A 
HETATM   13  H   UNL     1       7.173  29.840  60.300  1.00  0.00     0.167 HD
HETATM   14  C   UNL     1       9.004  30.922  60.321  1.00  0.00     0.103 A 
HETATM   15  C   UNL     1       8.978  31.435  61.712  1.00  0.00     0.091 C 
ENDBRANCH   2   5
BRANCH   1  16
HETATM   16  C   UNL     1       6.435  26.285  54.533  1.00  0.00     0.070 A 
HETATM   17  C   UNL     1       7.103  25.058  54.360  1.00  0.00     0.117 A 
HETATM   18  C   UNL     1       6.641  24.123  53.421  1.00  0.00     0.069 A 
HETATM   19 CL   UNL     1       7.485  22.647  53.117  1.00  0.00    -0.081 Cl
HETATM   20  C   UNL     1       5.478  24.380  52.697  1.00  0.00     0.027 A 
HETATM   21  C   UNL     1       4.791  25.576  52.892  1.00  0.00     0.004 A 
HETATM   22  C   UNL     1       5.270  26.527  53.800  1.00  0.00     0.032 A 
BRANCH  17  23
HETATM   23  O   UNL     1       8.252  24.831  55.085  1.00  0.00    -0.347 OA
BRANCH  23  24
HETATM   24  C   UNL     1       7.962  24.068  56.267  1.00  0.00     0.171 C 
HETATM   25  C   UNL     1       8.696  24.704  57.432  1.00  0.00     0.034 C 
ENDBRANCH  23  24
ENDBRANCH  17  23
ENDBRANCH   1  16
TORSDOF 4
ENDMDL
MODEL 5
REMARK VINA RESULT:      -8.3      2.311      3.877
REMARK  4 active torsions:
REMARK  status: ('A' for Active; 'I' for Inactive)
REMARK    1  A    between atoms: C_2  and  O_3 
REMARK    2  A    between atoms: O_3  and  C_4 
REMARK    3  A    between atoms: C_10  and  N_11 
REMARK       I    between atoms: N_11  and  C_12 
REMARK    4  A    between atoms: C_12  and  C_13 
ROOT
HETATM    1  N   UNL     1       7.369  26.521  55.250  1.00  0.00    -0.320 N 
HETATM    2  C   UNL     1       6.281  27.356  55.407  1.00  0.00     0.257 C 
HETATM    3  O   UNL     1       5.180  27.219  54.887  1.00  0.00    -0.267 OA
HETATM    4  H   UNL     1       8.184  26.663  55.837  1.00  0.00     0.169 HD
ENDROOT
BRANCH   2   5
HETATM    5  C   UNL     1       6.477  28.501  56.332  1.00  0.00     0.052 A 
HETATM    6  C   UNL     1       5.879  29.719  56.004  1.00  0.00     0.136 A 
HETATM    7  N   UNL     1       5.957  30.863  56.726  1.00  0.00    -0.238 NA
HETATM    8  C   UNL     1       6.718  30.766  57.838  1.00  0.00     0.177 A 
HETATM    9  C   UNL     1       7.363  29.597  58.222  1.00  0.00     0.083 A 
HETATM   10  N   UNL     1       6.963  31.780  58.718  1.00  0.00    -0.214 NA
HETATM   11  N   UNL     1       8.029  29.947  59.368  1.00  0.00    -0.342 N 
HETATM   12  C   UNL     1       7.268  28.415  57.485  1.00  0.00     0.052 A 
HETATM   13  H   UNL     1       8.621  29.345  59.923  1.00  0.00     0.167 HD
HETATM   14  C   UNL     1       7.759  31.268  59.633  1.00  0.00     0.103 A 
HETATM   15  C   UNL     1       8.331  31.979  60.801  1.00  0.00     0.091 C 
ENDBRANCH   2   5
BRANCH   1  16
HETATM   16  C   UNL     1       7.483  25.409  54.382  1.00  0.00     0.070 A 
HETATM   17  C   UNL     1       7.402  24.126  54.954  1.00  0.00     0.117 A 
HETATM   18  C   UNL     1       7.593  22.982  54.165  1.00  0.00     0.069 A 
HETATM   19 CL   UNL     1       7.590  21.395  54.846  1.00  0.00    -0.081 Cl
HETATM   20  C   UNL     1       7.803  23.110  52.792  1.00  0.00     0.027 A 
HETATM   21  C   UNL     1       7.845  24.378  52.214  1.00  0.00     0.004 A 
HETATM   22  C   UNL     1       7.694  25.521  53.006  1.00  0.00     0.032 A 
BRANCH  17  23
HETATM   23  O   UNL     1       7.198  24.027  56.313  1.00  0.00    -0.347 OA
BRANCH  23  24
HETATM   24  C   UNL     1       8.382  23.545  56.969  1.00  0.00     0.171 C 
HETATM   25  C   UNL     1       9.002  24.701  57.732  1.00  0.00     0.034 C 
ENDBRANCH  23  24
ENDBRANCH  17  23
ENDBRANCH   1  16
TORSDOF 4
ENDMDL
MODEL 6
REMARK VINA RESULT:      -8.2      6.456      8.838
REMARK  4 active torsions:
REMARK  status: ('A' for Active; 'I' for Inactive)
REMARK    1  A    between atoms: C_2  and  O_3 
REMARK    2  A    between atoms: O_3  and  C_4 
REMARK    3  A    between atoms: C_10  and  N_11 
REMARK       I    between atoms: N_11  and  C_12 
REMARK    4  A    between atoms: C_12  and  C_13 
ROOT
HETATM    1  N   UNL     1       8.211  31.516  60.160  1.00  0.00    -0.320 N 
HETATM    2  C   UNL     1       8.503  31.234  61.480  1.00  0.00     0.257 C 
HETATM    3  O   UNL     1       9.467  30.600  61.891  1.00  0.00    -0.267 OA
HETATM    4  H   UNL     1       7.458  32.162  59.953  1.00  0.00     0.169 HD
ENDROOT
BRANCH   2   5
HETATM    5  C   UNL     1       7.563  31.802  62.481  1.00  0.00     0.052 A 
HETATM    6  C   UNL     1       6.207  31.495  62.354  1.00  0.00     0.136 A 
HETATM    7  N   UNL     1       5.215  31.928  63.169  1.00  0.00    -0.238 NA
HETATM    8  C   UNL     1       5.627  32.749  64.158  1.00  0.00     0.177 A 
HETATM    9  C   UNL     1       6.955  33.119  64.339  1.00  0.00     0.083 A 
HETATM   10  N   UNL     1       4.820  33.326  65.095  1.00  0.00    -0.214 NA
HETATM   11  N   UNL     1       6.920  33.964  65.418  1.00  0.00    -0.342 N 
HETATM   12  C   UNL     1       7.978  32.659  63.508  1.00  0.00     0.052 A 
HETATM   13  H   UNL     1       7.709  34.441  65.831  1.00  0.00     0.167 HD
HETATM   14  C   UNL     1       5.618  34.059  65.845  1.00  0.00     0.103 A 
HETATM   15  C   UNL     1       5.214  34.904  66.993  1.00  0.00     0.091 C 
ENDBRANCH   2   5
BRANCH   1  16
HETATM   16  C   UNL     1       8.887  31.044  59.010  1.00  0.00     0.070 A 
HETATM   17  C   UNL     1       8.209  30.126  58.187  1.00  0.00     0.117 A 
HETATM   18  C   UNL     1       8.852  29.554  57.079  1.00  0.00     0.069 A 
HETATM   19 CL   UNL     1       8.084  28.359  56.098  1.00  0.00    -0.081 Cl
HETATM   20  C   UNL     1      10.152  29.941  56.752  1.00  0.00     0.027 A 
HETATM   21  C   UNL     1      10.814  30.878  57.543  1.00  0.00     0.004 A 
HETATM   22  C   UNL     1      10.188  31.421  58.670  1.00  0.00     0.032 A 
BRANCH  17  23
HETATM   23  O   UNL     1       6.927  29.759  58.534  1.00  0.00    -0.347 OA
BRANCH  23  24
HETATM   24  C   UNL     1       5.963  30.531  57.800  1.00  0.00     0.171 C 
HETATM   25  C   UNL     1       4.880  29.589  57.309  1.00  0.00     0.034 C 
ENDBRANCH  23  24
ENDBRANCH  17  23
ENDBRANCH   1  16
TORSDOF 4
ENDMDL
MODEL 7
REMARK VINA RESULT:      -8.2      3.483      4.640
REMARK  4 active torsions:
REMARK  status: ('A' for Active; 'I' for Inactive)
REMARK    1  A    between atoms: C_2  and  O_3 
REMARK    2  A    between atoms: O_3  and  C_4 
REMARK    3  A    between atoms: C_10  and  N_11 
REMARK       I    between atoms: N_11  and  C_12 
REMARK    4  A    between atoms: C_12  and  C_13 
ROOT
HETATM    1  N   UNL     1       6.703  23.888  53.110  1.00  0.00    -0.320 N 
HETATM    2  C   UNL     1       7.297  24.961  52.476  1.00  0.00     0.257 C 
HETATM    3  O   UNL     1       8.474  25.050  52.148  1.00  0.00    -0.267 OA
HETATM    4  H   UNL     1       5.694  23.875  53.209  1.00  0.00     0.169 HD
ENDROOT
BRANCH   2   5
HETATM    5  C   UNL     1       6.391  26.086  52.133  1.00  0.00     0.052 A 
HETATM    6  C   UNL     1       6.446  27.236  52.923  1.00  0.00     0.136 A 
HETATM    7  N   UNL     1       5.692  28.350  52.758  1.00  0.00    -0.238 NA
HETATM    8  C   UNL     1       4.805  28.275  51.743  1.00  0.00     0.177 A 
HETATM    9  C   UNL     1       4.674  27.159  50.925  1.00  0.00     0.083 A 
HETATM   10  N   UNL     1       3.926  29.256  51.387  1.00  0.00    -0.214 NA
HETATM   11  N   UNL     1       3.662  27.496  50.064  1.00  0.00    -0.342 N 
HETATM   12  C   UNL     1       5.463  26.019  51.086  1.00  0.00     0.052 A 
HETATM   13  H   UNL     1       3.282  26.914  49.330  1.00  0.00     0.167 HD
HETATM   14  C   UNL     1       3.242  28.767  50.373  1.00  0.00     0.103 A 
HETATM   15  C   UNL     1       2.145  29.444  49.642  1.00  0.00     0.091 C 
ENDBRANCH   2   5
BRANCH   1  16
HETATM   16  C   UNL     1       7.337  22.726  53.611  1.00  0.00     0.070 A 
HETATM   17  C   UNL     1       7.457  22.602  55.008  1.00  0.00     0.117 A 
HETATM   18  C   UNL     1       8.150  21.519  55.569  1.00  0.00     0.069 A 
HETATM   19 CL   UNL     1       8.395  21.379  57.273  1.00  0.00    -0.081 Cl
HETATM   20  C   UNL     1       8.673  20.524  54.744  1.00  0.00     0.027 A 
HETATM   21  C   UNL     1       8.524  20.623  53.362  1.00  0.00     0.004 A 
HETATM   22  C   UNL     1       7.866  21.721  52.798  1.00  0.00     0.032 A 
BRANCH  17  23
HETATM   23  O   UNL     1       6.936  23.601  55.801  1.00  0.00    -0.347 OA
BRANCH  23  24
HETATM   24  C   UNL     1       7.983  24.442  56.310  1.00  0.00     0.171 C 
HETATM   25  C   UNL     1       7.560  25.887  56.127  1.00  0.00     0.034 C 
ENDBRANCH  23  24
ENDBRANCH  17  23
ENDBRANCH   1  16
TORSDOF 4
ENDMDL
MODEL 8
REMARK VINA RESULT:      -8.1      3.931      5.523
REMARK  4 active torsions:
REMARK  status: ('A' for Active; 'I' for Inactive)
REMARK    1  A    between atoms: C_2  and  O_3 
REMARK    2  A    between atoms: O_3  and  C_4 
REMARK    3  A    between atoms: C_10  and  N_11 
REMARK       I    between atoms: N_11  and  C_12 
REMARK    4  A    between atoms: C_12  and  C_13 
ROOT
HETATM    1  N   UNL     1       6.773  25.389  53.946  1.00  0.00    -0.320 N 
HETATM    2  C   UNL     1       6.954  26.618  53.344  1.00  0.00     0.257 C 
HETATM    3  O   UNL     1       7.783  27.465  53.654  1.00  0.00    -0.267 OA
HETATM    4  H   UNL     1       6.144  24.720  53.515  1.00  0.00     0.169 HD
ENDROOT
BRANCH   2   5
HETATM    5  C   UNL     1       6.071  26.900  52.182  1.00  0.00     0.052 A 
HETATM    6  C   UNL     1       5.705  28.227  51.944  1.00  0.00     0.136 A 
HETATM    7  N   UNL     1       4.908  28.663  50.939  1.00  0.00    -0.238 NA
HETATM    8  C   UNL     1       4.429  27.682  50.145  1.00  0.00     0.177 A 
HETATM    9  C   UNL     1       4.728  26.337  50.329  1.00  0.00     0.083 A 
HETATM   10  N   UNL     1       3.596  27.863  49.079  1.00  0.00    -0.214 NA
HETATM   11  N   UNL     1       4.025  25.702  49.337  1.00  0.00    -0.342 N 
HETATM   12  C   UNL     1       5.564  25.892  51.355  1.00  0.00     0.052 A 
HETATM   13  H   UNL     1       3.993  24.706  49.170  1.00  0.00     0.167 HD
HETATM   14  C   UNL     1       3.360  26.657  48.606  1.00  0.00     0.103 A 
HETATM   15  C   UNL     1       2.490  26.317  47.456  1.00  0.00     0.091 C 
ENDBRANCH   2   5
BRANCH   1  16
HETATM   16  C   UNL     1       7.418  24.896  55.105  1.00  0.00     0.070 A 
HETATM   17  C   UNL     1       7.621  23.506  55.194  1.00  0.00     0.117 A 
HETATM   18  C   UNL     1       8.177  22.942  56.352  1.00  0.00     0.069 A 
HETATM   19 CL   UNL     1       8.360  21.235  56.535  1.00  0.00    -0.081 Cl
HETATM   20  C   UNL     1       8.589  23.766  57.400  1.00  0.00     0.027 A 
HETATM   21  C   UNL     1       8.425  25.146  57.300  1.00  0.00     0.004 A 
HETATM   22  C   UNL     1       7.836  25.708  56.162  1.00  0.00     0.032 A 
BRANCH  17  23
HETATM   23  O   UNL     1       7.202  22.715  54.147  1.00  0.00    -0.347 OA
BRANCH  23  24
HETATM   24  C   UNL     1       8.318  22.324  53.331  1.00  0.00     0.171 C 
HETATM   25  C   UNL     1       8.151  20.859  52.973  1.00  0.00     0.034 C 
ENDBRANCH  23  24
ENDBRANCH  17  23
ENDBRANCH   1  16
TORSDOF 4
ENDMDL
MODEL 9
REMARK VINA RESULT:      -7.8      6.408      9.886
REMARK  4 active torsions:
REMARK  status: ('A' for Active; 'I' for Inactive)
REMARK    1  A    between atoms: C_2  and  O_3 
REMARK    2  A    between atoms: O_3  and  C_4 
REMARK    3  A    between atoms: C_10  and  N_11 
REMARK       I    between atoms: N_11  and  C_12 
REMARK    4  A    between atoms: C_12  and  C_13 
ROOT
HETATM    1  N   UNL     1       7.306  31.479  60.678  1.00  0.00    -0.320 N 
HETATM    2  C   UNL     1       8.153  31.742  59.620  1.00  0.00     0.257 C 
HETATM    3  O   UNL     1       8.996  32.629  59.566  1.00  0.00    -0.267 OA
HETATM    4  H   UNL     1       6.745  30.635  60.659  1.00  0.00     0.169 HD
ENDROOT
BRANCH   2   5
HETATM    5  C   UNL     1       8.038  30.818  58.462  1.00  0.00     0.052 A 
HETATM    6  C   UNL     1       9.199  30.187  58.010  1.00  0.00     0.136 A 
HETATM    7  N   UNL     1       9.281  29.323  56.970  1.00  0.00    -0.238 NA
HETATM    8  C   UNL     1       8.110  29.111  56.331  1.00  0.00     0.177 A 
HETATM    9  C   UNL     1       6.916  29.717  56.706  1.00  0.00     0.083 A 
HETATM   10  N   UNL     1       7.935  28.299  55.248  1.00  0.00    -0.214 NA
HETATM   11  N   UNL     1       6.007  29.253  55.790  1.00  0.00    -0.342 N 
HETATM   12  C   UNL     1       6.832  30.595  57.788  1.00  0.00     0.052 A 
HETATM   13  H   UNL     1       5.027  29.495  55.744  1.00  0.00     0.167 HD
HETATM   14  C   UNL     1       6.660  28.400  54.934  1.00  0.00     0.103 A 
HETATM   15  C   UNL     1       5.975  27.722  53.808  1.00  0.00     0.091 C 
ENDBRANCH   2   5
BRANCH   1  16
HETATM   16  C   UNL     1       7.152  32.236  61.864  1.00  0.00     0.070 A 
HETATM   17  C   UNL     1       6.108  33.178  61.904  1.00  0.00     0.117 A 
HETATM   18  C   UNL     1       5.952  34.021  63.016  1.00  0.00     0.069 A 
HETATM   19 CL   UNL     1       4.739  35.249  63.064  1.00  0.00    -0.081 Cl
HETATM   20  C   UNL     1       6.798  33.885  64.116  1.00  0.00     0.027 A 
HETATM   21  C   UNL     1       7.810  32.927  64.097  1.00  0.00     0.004 A 
HETATM   22  C   UNL     1       7.991  32.112  62.975  1.00  0.00     0.032 A 
BRANCH  17  23
HETATM   23  O   UNL     1       5.289  33.294  60.803  1.00  0.00    -0.347 OA
BRANCH  23  24
HETATM   24  C   UNL     1       4.082  32.537  60.988  1.00  0.00     0.171 C 
HETATM   25  C   UNL     1       3.679  31.956  59.646  1.00  0.00     0.034 C 
ENDBRANCH  23  24
ENDBRANCH  17  23
ENDBRANCH   1  16
TORSDOF 4
ENDMDL
MODEL 10
REMARK VINA RESULT:      -7.7      4.044      8.032
REMARK  4 active torsions:
REMARK  status: ('A' for Active; 'I' for Inactive)
REMARK    1  A    between atoms: C_2  and  O_3 
REMARK    2  A    between atoms: O_3  and  C_4 
REMARK    3  A    between atoms: C_10  and  N_11 
REMARK       I    between atoms: N_11  and  C_12 
REMARK    4  A    between atoms: C_12  and  C_13 
ROOT
HETATM    1  N   UNL     1       7.067  29.105  56.740  1.00  0.00    -0.320 N 
HETATM    2  C   UNL     1       6.284  27.971  56.659  1.00  0.00     0.257 C 
HETATM    3  O   UNL     1       5.243  27.761  57.271  1.00  0.00    -0.267 OA
HETATM    4  H   UNL     1       7.833  29.219  56.086  1.00  0.00     0.169 HD
ENDROOT
BRANCH   2   5
HETATM    5  C   UNL     1       6.748  26.937  55.699  1.00  0.00     0.052 A 
HETATM    6  C   UNL     1       7.221  27.363  54.456  1.00  0.00     0.136 A 
HETATM    7  N   UNL     1       7.677  26.563  53.463  1.00  0.00    -0.238 NA
HETATM    8  C   UNL     1       7.620  25.243  53.743  1.00  0.00     0.177 A 
HETATM    9  C   UNL     1       7.143  24.739  54.947  1.00  0.00     0.083 A 
HETATM   10  N   UNL     1       8.004  24.238  52.902  1.00  0.00    -0.214 NA
HETATM   11  N   UNL     1       7.235  23.379  54.797  1.00  0.00    -0.342 N 
HETATM   12  C   UNL     1       6.689  25.566  55.975  1.00  0.00     0.052 A 
HETATM   13  H   UNL     1       6.962  22.682  55.476  1.00  0.00     0.167 HD
HETATM   14  C   UNL     1       7.761  23.120  53.554  1.00  0.00     0.103 A 
HETATM   15  C   UNL     1       7.989  21.743  53.055  1.00  0.00     0.091 C 
ENDBRANCH   2   5
BRANCH   1  16
HETATM   16  C   UNL     1       6.901  30.204  57.617  1.00  0.00     0.070 A 
HETATM   17  C   UNL     1       7.978  30.529  58.463  1.00  0.00     0.117 A 
HETATM   18  C   UNL     1       7.850  31.552  59.415  1.00  0.00     0.069 A 
HETATM   19 CL   UNL     1       9.116  31.920  60.530  1.00  0.00    -0.081 Cl
HETATM   20  C   UNL     1       6.671  32.293  59.487  1.00  0.00     0.027 A 
HETATM   21  C   UNL     1       5.616  32.000  58.625  1.00  0.00     0.004 A 
HETATM   22  C   UNL     1       5.727  30.957  57.700  1.00  0.00     0.032 A 
BRANCH  17  23
HETATM   23  O   UNL     1       9.129  29.779  58.374  1.00  0.00    -0.347 OA
BRANCH  23  24
HETATM   24  C   UNL     1      10.151  30.501  57.669  1.00  0.00     0.171 C 
HETATM   25  C   UNL     1      10.907  29.517  56.796  1.00  0.00     0.034 C 
ENDBRANCH  23  24
ENDBRANCH  17  23
ENDBRANCH   1  16
TORSDOF 4
ENDMDL
