MODEL 1
REMARK VINA RESULT:      -9.0      0.000      0.000
REMARK  2 active torsions:
REMARK  status: ('A' for Active; 'I' for Inactive)
REMARK    1  A    between atoms: C_5  and  O_6 
REMARK    2  A    between atoms: C_5  and  C_7 
ROOT
HETATM    1  C   UNL     1       4.518  30.019  56.840  1.00  0.00     0.050 C 
HETATM    2  C   UNL     1       5.715  29.154  56.590  1.00  0.00    -0.035 A 
HETATM    3  C   UNL     1       5.698  27.772  56.683  1.00  0.00     0.051 A 
HETATM    4  C   UNL     1       6.831  26.984  56.431  1.00  0.00     0.018 A 
HETATM    5  C   UNL     1       6.497  25.530  56.647  1.00  0.00     0.199 A 
HETATM    6  C   UNL     1       4.995  25.620  57.078  1.00  0.00     0.266 A 
HETATM    7  O   UNL     1       4.283  24.704  57.466  1.00  0.00    -0.269 OA
HETATM    8  N   UNL     1       4.626  26.960  57.038  1.00  0.00    -0.323 N 
HETATM    9  C   UNL     1       8.040  27.577  56.092  1.00  0.00     0.013 A 
HETATM   10  C   UNL     1       8.081  28.968  55.976  1.00  0.00     0.001 A 
HETATM   11  C   UNL     1       6.933  29.745  56.218  1.00  0.00     0.009 A 
HETATM   12  H   UNL     1       3.707  27.273  57.307  1.00  0.00     0.169 HD
ENDROOT
BRANCH   5  13
HETATM   13  O   UNL     1       7.315  25.055  57.712  1.00  0.00    -0.371 OA
HETATM   14  H   UNL     1       8.108  24.701  57.275  1.00  0.00     0.212 HD
ENDBRANCH   5  13
BRANCH   5  15
HETATM   15  C   UNL     1       6.656  24.733  55.363  1.00  0.00     0.025 A 
HETATM   16  C   UNL     1       7.512  23.591  55.084  1.00  0.00     0.003 A 
HETATM   17  C   UNL     1       7.308  23.222  53.753  1.00  0.00     0.043 A 
HETATM   18  C   UNL     1       8.446  22.825  55.822  1.00  0.00     0.014 A 
HETATM   19  C   UNL     1       7.956  22.141  53.140  1.00  0.00     0.030 A 
HETATM   20  N   UNL     1       6.404  24.102  53.222  1.00  0.00    -0.359 N 
HETATM   21  C   UNL     1       8.855  21.398  53.905  1.00  0.00     0.002 A 
HETATM   22  C   UNL     1       9.099  21.735  55.230  1.00  0.00     0.001 A 
HETATM   23  H   UNL     1       6.089  24.078  52.261  1.00  0.00     0.166 HD
HETATM   24  C   UNL     1       6.026  25.033  54.150  1.00  0.00     0.016 A 
HETATM   25  C   UNL     1       5.099  26.132  53.765  1.00  0.00     0.069 C 
ENDBRANCH   5  15
TORSDOF 2
ENDMDL
MODEL 2
REMARK VINA RESULT:      -8.7      1.419      2.638
REMARK  2 active torsions:
REMARK  status: ('A' for Active; 'I' for Inactive)
REMARK    1  A    between atoms: C_5  and  O_6 
REMARK    2  A    between atoms: C_5  and  C_7 
ROOT
HETATM    1  C   UNL     1       4.865  30.353  57.151  1.00  0.00     0.050 C 
HETATM    2  C   UNL     1       6.106  29.516  57.114  1.00  0.00    -0.035 A 
HETATM    3  C   UNL     1       6.100  28.130  57.127  1.00  0.00     0.051 A 
HETATM    4  C   UNL     1       7.279  27.371  57.078  1.00  0.00     0.018 A 
HETATM    5  C   UNL     1       6.939  25.903  57.140  1.00  0.00     0.199 A 
HETATM    6  C   UNL     1       5.379  25.952  57.250  1.00  0.00     0.266 A 
HETATM    7  O   UNL     1       4.622  25.008  57.428  1.00  0.00    -0.269 OA
HETATM    8  N   UNL     1       4.997  27.289  57.204  1.00  0.00    -0.323 N 
HETATM    9  C   UNL     1       8.518  27.994  57.034  1.00  0.00     0.013 A 
HETATM   10  C   UNL     1       8.552  29.390  57.004  1.00  0.00     0.001 A 
HETATM   11  C   UNL     1       7.362  30.140  57.039  1.00  0.00     0.009 A 
HETATM   12  H   UNL     1       4.035  27.576  57.289  1.00  0.00     0.169 HD
ENDROOT
BRANCH   5  13
HETATM   13  O   UNL     1       7.526  25.377  58.328  1.00  0.00    -0.371 OA
HETATM   14  H   UNL     1       7.446  26.094  58.980  1.00  0.00     0.212 HD
ENDBRANCH   5  13
BRANCH   5  15
HETATM   15  C   UNL     1       7.383  25.182  55.879  1.00  0.00     0.025 A 
HETATM   16  C   UNL     1       7.095  25.491  54.487  1.00  0.00     0.003 A 
HETATM   17  C   UNL     1       7.721  24.523  53.699  1.00  0.00     0.043 A 
HETATM   18  C   UNL     1       6.366  26.495  53.806  1.00  0.00     0.014 A 
HETATM   19  C   UNL     1       7.674  24.516  52.299  1.00  0.00     0.030 A 
HETATM   20  N   UNL     1       8.334  23.642  54.548  1.00  0.00    -0.359 N 
HETATM   21  C   UNL     1       6.961  25.533  51.662  1.00  0.00     0.002 A 
HETATM   22  C   UNL     1       6.313  26.510  52.406  1.00  0.00     0.001 A 
HETATM   23  H   UNL     1       8.847  22.827  54.243  1.00  0.00     0.166 HD
HETATM   24  C   UNL     1       8.120  23.993  55.854  1.00  0.00     0.016 A 
HETATM   25  C   UNL     1       8.640  23.129  56.949  1.00  0.00     0.069 C 
ENDBRANCH   5  15
TORSDOF 2
ENDMDL
MODEL 3
REMARK VINA RESULT:      -8.4     10.569     12.924
REMARK  2 active torsions:
REMARK  status: ('A' for Active; 'I' for Inactive)
REMARK    1  A    between atoms: C_5  and  O_6 
REMARK    2  A    between atoms: C_5  and  C_7 
ROOT
HETATM    1  C   UNL     1       2.763  37.602  60.282  1.00  0.00     0.050 C 
HETATM    2  C   UNL     1       3.566  37.618  61.545  1.00  0.00    -0.035 A 
HETATM    3  C   UNL     1       3.509  36.621  62.506  1.00  0.00     0.051 A 
HETATM    4  C   UNL     1       4.283  36.656  63.676  1.00  0.00     0.018 A 
HETATM    5  C   UNL     1       3.970  35.451  64.527  1.00  0.00     0.199 A 
HETATM    6  C   UNL     1       2.881  34.736  63.660  1.00  0.00     0.266 A 
HETATM    7  O   UNL     1       2.226  33.749  63.965  1.00  0.00    -0.269 OA
HETATM    8  N   UNL     1       2.711  35.483  62.499  1.00  0.00    -0.323 N 
HETATM    9  C   UNL     1       5.137  37.722  63.926  1.00  0.00     0.013 A 
HETATM   10  C   UNL     1       5.225  38.732  62.966  1.00  0.00     0.001 A 
HETATM   11  C   UNL     1       4.454  38.679  61.790  1.00  0.00     0.009 A 
HETATM   12  H   UNL     1       2.035  35.236  61.794  1.00  0.00     0.169 HD
ENDROOT
BRANCH   5  13
HETATM   13  O   UNL     1       3.426  35.924  65.756  1.00  0.00    -0.371 OA
HETATM   14  H   UNL     1       2.788  36.610  65.496  1.00  0.00     0.212 HD
ENDBRANCH   5  13
BRANCH   5  15
HETATM   15  C   UNL     1       5.197  34.573  64.709  1.00  0.00     0.025 A 
HETATM   16  C   UNL     1       6.036  33.938  63.706  1.00  0.00     0.003 A 
HETATM   17  C   UNL     1       7.033  33.224  64.376  1.00  0.00     0.043 A 
HETATM   18  C   UNL     1       6.059  33.890  62.292  1.00  0.00     0.014 A 
HETATM   19  C   UNL     1       8.038  32.499  63.723  1.00  0.00     0.030 A 
HETATM   20  N   UNL     1       6.808  33.376  65.717  1.00  0.00    -0.359 N 
HETATM   21  C   UNL     1       8.039  32.492  62.328  1.00  0.00     0.002 A 
HETATM   22  C   UNL     1       7.061  33.177  61.619  1.00  0.00     0.001 A 
HETATM   23  H   UNL     1       7.373  32.946  66.437  1.00  0.00     0.166 HD
HETATM   24  C   UNL     1       5.700  34.147  65.943  1.00  0.00     0.016 A 
HETATM   25  C   UNL     1       5.231  34.383  67.336  1.00  0.00     0.069 C 
ENDBRANCH   5  15
TORSDOF 2
ENDMDL
MODEL 4
REMARK VINA RESULT:      -8.1      8.434     11.315
REMARK  2 active torsions:
REMARK  status: ('A' for Active; 'I' for Inactive)
REMARK    1  A    between atoms: C_5  and  O_6 
REMARK    2  A    between atoms: C_5  and  C_7 
ROOT
HETATM    1  C   UNL     1       7.009  33.922  65.805  1.00  0.00     0.050 C 
HETATM    2  C   UNL     1       6.833  33.241  64.483  1.00  0.00    -0.035 A 
HETATM    3  C   UNL     1       5.626  33.176  63.805  1.00  0.00     0.051 A 
HETATM    4  C   UNL     1       5.492  32.542  62.560  1.00  0.00     0.018 A 
HETATM    5  C   UNL     1       4.057  32.615  62.106  1.00  0.00     0.199 A 
HETATM    6  C   UNL     1       3.393  33.377  63.301  1.00  0.00     0.266 A 
HETATM    7  O   UNL     1       2.202  33.601  63.463  1.00  0.00    -0.269 OA
HETATM    8  N   UNL     1       4.396  33.679  64.216  1.00  0.00    -0.323 N 
HETATM    9  C   UNL     1       6.584  31.929  61.961  1.00  0.00     0.013 A 
HETATM   10  C   UNL     1       7.816  31.993  62.615  1.00  0.00     0.001 A 
HETATM   11  C   UNL     1       7.940  32.644  63.856  1.00  0.00     0.009 A 
HETATM   12  H   UNL     1       4.207  34.145  65.089  1.00  0.00     0.169 HD
ENDROOT
BRANCH   5  13
HETATM   13  O   UNL     1       3.570  31.280  62.008  1.00  0.00    -0.371 OA
HETATM   14  H   UNL     1       2.618  31.375  61.839  1.00  0.00     0.212 HD
ENDBRANCH   5  13
BRANCH   5  15
HETATM   15  C   UNL     1       3.929  33.399  60.811  1.00  0.00     0.025 A 
HETATM   16  C   UNL     1       3.970  34.836  60.592  1.00  0.00     0.003 A 
HETATM   17  C   UNL     1       3.793  35.063  59.226  1.00  0.00     0.043 A 
HETATM   18  C   UNL     1       4.138  35.978  61.412  1.00  0.00     0.014 A 
HETATM   19  C   UNL     1       3.796  36.338  58.646  1.00  0.00     0.030 A 
HETATM   20  N   UNL     1       3.619  33.843  58.631  1.00  0.00    -0.359 N 
HETATM   21  C   UNL     1       3.984  37.438  59.484  1.00  0.00     0.002 A 
HETATM   22  C   UNL     1       4.151  37.262  60.851  1.00  0.00     0.001 A 
HETATM   23  H   UNL     1       3.449  33.715  57.642  1.00  0.00     0.166 HD
HETATM   24  C   UNL     1       3.661  32.837  59.558  1.00  0.00     0.016 A 
HETATM   25  C   UNL     1       3.423  31.429  59.137  1.00  0.00     0.069 C 
ENDBRANCH   5  15
TORSDOF 2
ENDMDL
MODEL 5
REMARK VINA RESULT:      -7.9     10.986     13.184
REMARK  2 active torsions:
REMARK  status: ('A' for Active; 'I' for Inactive)
REMARK    1  A    between atoms: C_5  and  O_6 
REMARK    2  A    between atoms: C_5  and  C_7 
ROOT
HETATM    1  C   UNL     1       4.614  34.066  67.573  1.00  0.00     0.050 C 
HETATM    2  C   UNL     1       5.274  33.989  66.232  1.00  0.00    -0.035 A 
HETATM    3  C   UNL     1       4.589  34.071  65.030  1.00  0.00     0.051 A 
HETATM    4  C   UNL     1       5.235  34.009  63.786  1.00  0.00     0.018 A 
HETATM    5  C   UNL     1       4.215  34.093  62.680  1.00  0.00     0.199 A 
HETATM    6  C   UNL     1       2.883  34.197  63.495  1.00  0.00     0.266 A 
HETATM    7  O   UNL     1       1.744  34.188  63.051  1.00  0.00    -0.269 OA
HETATM    8  N   UNL     1       3.217  34.203  64.845  1.00  0.00    -0.323 N 
HETATM    9  C   UNL     1       6.611  33.840  63.715  1.00  0.00     0.013 A 
HETATM   10  C   UNL     1       7.329  33.770  64.911  1.00  0.00     0.001 A 
HETATM   11  C   UNL     1       6.670  33.848  66.152  1.00  0.00     0.009 A 
HETATM   12  H   UNL     1       2.520  34.232  65.572  1.00  0.00     0.169 HD
ENDROOT
BRANCH   5  13
HETATM   13  O   UNL     1       4.279  32.875  61.943  1.00  0.00    -0.371 OA
HETATM   14  H   UNL     1       3.561  32.330  62.306  1.00  0.00     0.212 HD
ENDBRANCH   5  13
BRANCH   5  15
HETATM   15  C   UNL     1       4.435  35.328  61.822  1.00  0.00     0.025 A 
HETATM   16  C   UNL     1       5.048  36.600  62.172  1.00  0.00     0.003 A 
HETATM   17  C   UNL     1       5.004  37.418  61.042  1.00  0.00     0.043 A 
HETATM   18  C   UNL     1       5.640  37.149  63.335  1.00  0.00     0.014 A 
HETATM   19  C   UNL     1       5.524  38.718  61.005  1.00  0.00     0.030 A 
HETATM   20  N   UNL     1       4.370  36.713  60.054  1.00  0.00    -0.359 N 
HETATM   21  C   UNL     1       6.117  39.218  62.166  1.00  0.00     0.002 A 
HETATM   22  C   UNL     1       6.173  38.445  63.317  1.00  0.00     0.001 A 
HETATM   23  H   UNL     1       4.184  37.077  59.130  1.00  0.00     0.166 HD
HETATM   24  C   UNL     1       3.991  35.477  60.504  1.00  0.00     0.016 A 
HETATM   25  C   UNL     1       3.221  34.567  59.612  1.00  0.00     0.069 C 
ENDBRANCH   5  15
TORSDOF 2
ENDMDL
MODEL 6
REMARK VINA RESULT:      -7.8      8.320     10.659
REMARK  2 active torsions:
REMARK  status: ('A' for Active; 'I' for Inactive)
REMARK    1  A    between atoms: C_5  and  O_6 
REMARK    2  A    between atoms: C_5  and  C_7 
ROOT
HETATM    1  C   UNL     1       2.412  35.267  58.892  1.00  0.00     0.050 C 
HETATM    2  C   UNL     1       3.278  35.519  60.087  1.00  0.00    -0.035 A 
HETATM    3  C   UNL     1       3.664  34.531  60.980  1.00  0.00     0.051 A 
HETATM    4  C   UNL     1       4.488  34.793  62.085  1.00  0.00     0.018 A 
HETATM    5  C   UNL     1       4.696  33.526  62.874  1.00  0.00     0.199 A 
HETATM    6  C   UNL     1       3.844  32.505  62.048  1.00  0.00     0.266 A 
HETATM    7  O   UNL     1       3.605  31.341  62.336  1.00  0.00    -0.269 OA
HETATM    8  N   UNL     1       3.314  33.186  60.958  1.00  0.00    -0.323 N 
HETATM    9  C   UNL     1       4.938  36.082  62.338  1.00  0.00     0.013 A 
HETATM   10  C   UNL     1       4.577  37.093  61.446  1.00  0.00     0.001 A 
HETATM   11  C   UNL     1       3.762  36.814  60.333  1.00  0.00     0.009 A 
HETATM   12  H   UNL     1       2.700  32.743  60.293  1.00  0.00     0.169 HD
ENDROOT
BRANCH   5  13
HETATM   13  O   UNL     1       4.144  33.733  64.171  1.00  0.00    -0.371 OA
HETATM   14  H   UNL     1       4.911  33.732  64.768  1.00  0.00     0.212 HD
ENDBRANCH   5  13
BRANCH   5  15
HETATM   15  C   UNL     1       6.163  33.129  62.899  1.00  0.00     0.025 A 
HETATM   16  C   UNL     1       6.981  32.546  61.849  1.00  0.00     0.003 A 
HETATM   17  C   UNL     1       8.263  32.352  62.366  1.00  0.00     0.043 A 
HETATM   18  C   UNL     1       6.771  32.157  60.504  1.00  0.00     0.014 A 
HETATM   19  C   UNL     1       9.327  31.823  61.624  1.00  0.00     0.030 A 
HETATM   20  N   UNL     1       8.239  32.759  63.673  1.00  0.00    -0.359 N 
HETATM   21  C   UNL     1       9.086  31.470  60.296  1.00  0.00     0.002 A 
HETATM   22  C   UNL     1       7.824  31.632  59.741  1.00  0.00     0.001 A 
HETATM   23  H   UNL     1       9.034  32.710  64.295  1.00  0.00     0.166 HD
HETATM   24  C   UNL     1       6.990  33.194  64.026  1.00  0.00     0.016 A 
HETATM   25  C   UNL     1       6.720  33.617  65.427  1.00  0.00     0.069 C 
ENDBRANCH   5  15
TORSDOF 2
ENDMDL
MODEL 7
REMARK VINA RESULT:      -7.7      2.898      6.702
REMARK  2 active torsions:
REMARK  status: ('A' for Active; 'I' for Inactive)
REMARK    1  A    between atoms: C_5  and  O_6 
REMARK    2  A    between atoms: C_5  and  C_7 
ROOT
HETATM    1  C   UNL     1       6.877  26.020  52.419  1.00  0.00     0.050 C 
HETATM    2  C   UNL     1       6.658  26.126  53.897  1.00  0.00    -0.035 A 
HETATM    3  C   UNL     1       7.258  27.086  54.696  1.00  0.00     0.051 A 
HETATM    4  C   UNL     1       7.025  27.171  56.077  1.00  0.00     0.018 A 
HETATM    5  C   UNL     1       7.844  28.294  56.662  1.00  0.00     0.199 A 
HETATM    6  C   UNL     1       8.593  28.822  55.393  1.00  0.00     0.266 A 
HETATM    7  O   UNL     1       9.465  29.678  55.355  1.00  0.00    -0.269 OA
HETATM    8  N   UNL     1       8.158  28.072  54.306  1.00  0.00    -0.323 N 
HETATM    9  C   UNL     1       6.184  26.264  56.707  1.00  0.00     0.013 A 
HETATM   10  C   UNL     1       5.554  25.295  55.923  1.00  0.00     0.001 A 
HETATM   11  C   UNL     1       5.785  25.231  54.536  1.00  0.00     0.009 A 
HETATM   12  H   UNL     1       8.524  28.208  53.377  1.00  0.00     0.169 HD
ENDROOT
BRANCH   5  13
HETATM   13  O   UNL     1       8.752  27.719  57.598  1.00  0.00    -0.371 OA
HETATM   14  H   UNL     1       9.557  27.541  57.083  1.00  0.00     0.212 HD
ENDBRANCH   5  13
BRANCH   5  15
HETATM   15  C   UNL     1       6.954  29.367  57.266  1.00  0.00     0.025 A 
HETATM   16  C   UNL     1       5.669  29.868  56.808  1.00  0.00     0.003 A 
HETATM   17  C   UNL     1       5.259  30.863  57.698  1.00  0.00     0.043 A 
HETATM   18  C   UNL     1       4.802  29.584  55.725  1.00  0.00     0.014 A 
HETATM   19  C   UNL     1       4.048  31.558  57.578  1.00  0.00     0.030 A 
HETATM   20  N   UNL     1       6.245  30.999  58.637  1.00  0.00    -0.359 N 
HETATM   21  C   UNL     1       3.212  31.236  56.509  1.00  0.00     0.002 A 
HETATM   22  C   UNL     1       3.583  30.263  55.592  1.00  0.00     0.001 A 
HETATM   23  H   UNL     1       6.216  31.668  59.394  1.00  0.00     0.166 HD
HETATM   24  C   UNL     1       7.283  30.143  58.383  1.00  0.00     0.016 A 
HETATM   25  C   UNL     1       8.497  30.173  59.243  1.00  0.00     0.069 C 
ENDBRANCH   5  15
TORSDOF 2
ENDMDL
MODEL 8
REMARK VINA RESULT:      -7.5      5.490      7.515
REMARK  2 active torsions:
REMARK  status: ('A' for Active; 'I' for Inactive)
REMARK    1  A    between atoms: C_5  and  O_6 
REMARK    2  A    between atoms: C_5  and  C_7 
ROOT
HETATM    1  C   UNL     1       0.940  28.974  46.882  1.00  0.00     0.050 C 
HETATM    2  C   UNL     1       1.914  27.991  47.453  1.00  0.00    -0.035 A 
HETATM    3  C   UNL     1       2.916  28.333  48.348  1.00  0.00     0.051 A 
HETATM    4  C   UNL     1       3.809  27.388  48.878  1.00  0.00     0.018 A 
HETATM    5  C   UNL     1       4.792  28.077  49.790  1.00  0.00     0.199 A 
HETATM    6  C   UNL     1       4.325  29.566  49.679  1.00  0.00     0.266 A 
HETATM    7  O   UNL     1       4.872  30.548  50.162  1.00  0.00    -0.269 OA
HETATM    8  N   UNL     1       3.215  29.597  48.843  1.00  0.00    -0.323 N 
HETATM    9  C   UNL     1       3.730  26.055  48.502  1.00  0.00     0.013 A 
HETATM   10  C   UNL     1       2.719  25.681  47.613  1.00  0.00     0.001 A 
HETATM   11  C   UNL     1       1.822  26.635  47.100  1.00  0.00     0.009 A 
HETATM   12  H   UNL     1       2.753  30.457  48.593  1.00  0.00     0.169 HD
ENDROOT
BRANCH   5  13
HETATM   13  O   UNL     1       6.091  27.897  49.233  1.00  0.00    -0.371 OA
HETATM   14  H   UNL     1       6.560  27.337  49.874  1.00  0.00     0.212 HD
ENDBRANCH   5  13
BRANCH   5  15
HETATM   15  C   UNL     1       4.672  27.564  51.216  1.00  0.00     0.025 A 
HETATM   16  C   UNL     1       5.413  26.506  51.883  1.00  0.00     0.003 A 
HETATM   17  C   UNL     1       4.926  26.404  53.188  1.00  0.00     0.043 A 
HETATM   18  C   UNL     1       6.452  25.615  51.519  1.00  0.00     0.014 A 
HETATM   19  C   UNL     1       5.423  25.496  54.132  1.00  0.00     0.030 A 
HETATM   20  N   UNL     1       3.918  27.320  53.318  1.00  0.00    -0.359 N 
HETATM   21  C   UNL     1       6.461  24.648  53.741  1.00  0.00     0.002 A 
HETATM   22  C   UNL     1       6.968  24.704  52.450  1.00  0.00     0.001 A 
HETATM   23  H   UNL     1       3.374  27.448  54.160  1.00  0.00     0.166 HD
HETATM   24  C   UNL     1       3.724  28.001  52.146  1.00  0.00     0.016 A 
HETATM   25  C   UNL     1       2.625  29.001  52.043  1.00  0.00     0.069 C 
ENDBRANCH   5  15
TORSDOF 2
ENDMDL
MODEL 9
REMARK VINA RESULT:      -7.5      9.310     11.788
REMARK  2 active torsions:
REMARK  status: ('A' for Active; 'I' for Inactive)
REMARK    1  A    between atoms: C_5  and  O_6 
REMARK    2  A    between atoms: C_5  and  C_7 
ROOT
HETATM    1  C   UNL     1       5.526  34.436  67.361  1.00  0.00     0.050 C 
HETATM    2  C   UNL     1       5.835  33.991  65.965  1.00  0.00    -0.035 A 
HETATM    3  C   UNL     1       4.881  33.870  64.967  1.00  0.00     0.051 A 
HETATM    4  C   UNL     1       5.200  33.463  63.663  1.00  0.00     0.018 A 
HETATM    5  C   UNL     1       3.946  33.401  62.830  1.00  0.00     0.199 A 
HETATM    6  C   UNL     1       2.860  33.822  63.875  1.00  0.00     0.266 A 
HETATM    7  O   UNL     1       1.647  33.830  63.716  1.00  0.00    -0.269 OA
HETATM    8  N   UNL     1       3.513  34.098  65.071  1.00  0.00    -0.323 N 
HETATM    9  C   UNL     1       6.508  33.142  63.326  1.00  0.00     0.013 A 
HETATM   10  C   UNL     1       7.492  33.270  64.308  1.00  0.00     0.001 A 
HETATM   11  C   UNL     1       7.160  33.693  65.609  1.00  0.00     0.009 A 
HETATM   12  H   UNL     1       3.017  34.362  65.907  1.00  0.00     0.169 HD
ENDROOT
BRANCH   5  13
HETATM   13  O   UNL     1       3.772  32.048  62.418  1.00  0.00    -0.371 OA
HETATM   14  H   UNL     1       2.899  32.030  61.990  1.00  0.00     0.212 HD
ENDBRANCH   5  13
BRANCH   5  15
HETATM   15  C   UNL     1       4.006  34.381  61.670  1.00  0.00     0.025 A 
HETATM   16  C   UNL     1       4.061  34.121  60.241  1.00  0.00     0.003 A 
HETATM   17  C   UNL     1       4.118  35.352  59.586  1.00  0.00     0.043 A 
HETATM   18  C   UNL     1       4.069  32.964  59.425  1.00  0.00     0.014 A 
HETATM   19  C   UNL     1       4.161  35.488  58.192  1.00  0.00     0.030 A 
HETATM   20  N   UNL     1       4.133  36.324  60.550  1.00  0.00    -0.359 N 
HETATM   21  C   UNL     1       4.147  34.325  57.421  1.00  0.00     0.002 A 
HETATM   22  C   UNL     1       4.104  33.077  58.029  1.00  0.00     0.001 A 
HETATM   23  H   UNL     1       4.192  37.314  60.354  1.00  0.00     0.166 HD
HETATM   24  C   UNL     1       4.102  35.771  61.801  1.00  0.00     0.016 A 
HETATM   25  C   UNL     1       4.182  36.647  63.002  1.00  0.00     0.069 C 
ENDBRANCH   5  15
TORSDOF 2
ENDMDL
MODEL 10
REMARK VINA RESULT:      -7.5      8.513     12.077
REMARK  2 active torsions:
REMARK  status: ('A' for Active; 'I' for Inactive)
REMARK    1  A    between atoms: C_5  and  O_6 
REMARK    2  A    between atoms: C_5  and  C_7 
ROOT
HETATM    1  C   UNL     1       8.904  31.473  62.101  1.00  0.00     0.050 C 
HETATM    2  C   UNL     1       7.639  31.840  61.391  1.00  0.00    -0.035 A 
HETATM    3  C   UNL     1       6.505  32.312  62.033  1.00  0.00     0.051 A 
HETATM    4  C   UNL     1       5.335  32.661  61.340  1.00  0.00     0.018 A 
HETATM    5  C   UNL     1       4.279  33.106  62.320  1.00  0.00     0.199 A 
HETATM    6  C   UNL     1       5.032  32.938  63.682  1.00  0.00     0.266 A 
HETATM    7  O   UNL     1       4.566  33.077  64.804  1.00  0.00    -0.269 OA
HETATM    8  N   UNL     1       6.321  32.501  63.398  1.00  0.00    -0.323 N 
HETATM    9  C   UNL     1       5.265  32.522  59.961  1.00  0.00     0.013 A 
HETATM   10  C   UNL     1       6.399  32.063  59.287  1.00  0.00     0.001 A 
HETATM   11  C   UNL     1       7.570  31.731  59.992  1.00  0.00     0.009 A 
HETATM   12  H   UNL     1       6.990  32.291  64.122  1.00  0.00     0.169 HD
ENDROOT
BRANCH   5  13
HETATM   13  O   UNL     1       3.188  32.197  62.216  1.00  0.00    -0.371 OA
HETATM   14  H   UNL     1       2.703  32.483  61.423  1.00  0.00     0.212 HD
ENDBRANCH   5  13
BRANCH   5  15
HETATM   15  C   UNL     1       3.883  34.553  62.082  1.00  0.00     0.025 A 
HETATM   16  C   UNL     1       4.555  35.775  62.494  1.00  0.00     0.003 A 
HETATM   17  C   UNL     1       3.789  36.853  62.045  1.00  0.00     0.043 A 
HETATM   18  C   UNL     1       5.738  36.087  63.205  1.00  0.00     0.014 A 
HETATM   19  C   UNL     1       4.144  38.193  62.246  1.00  0.00     0.030 A 
HETATM   20  N   UNL     1       2.687  36.336  61.419  1.00  0.00    -0.359 N 
HETATM   21  C   UNL     1       5.328  38.460  62.935  1.00  0.00     0.002 A 
HETATM   22  C   UNL     1       6.116  37.421  63.411  1.00  0.00     0.001 A 
HETATM   23  H   UNL     1       1.950  36.897  61.015  1.00  0.00     0.166 HD
HETATM   24  C   UNL     1       2.702  34.967  61.458  1.00  0.00     0.016 A 
HETATM   25  C   UNL     1       1.558  34.197  60.896  1.00  0.00     0.069 C 
ENDBRANCH   5  15
TORSDOF 2
ENDMDL
