MODEL 1
REMARK VINA RESULT:      -7.8      0.000      0.000
REMARK  5 active torsions:
REMARK  status: ('A' for Active; 'I' for Inactive)
REMARK    1  A    between atoms: C_8  and  C_9 
REMARK    2  A    between atoms: C_11  and  O_12 
REMARK    3  A    between atoms: C_14  and  O_15 
REMARK    4  A    between atoms: C_18  and  C_19 
REMARK    5  A    between atoms: C_22  and  O_23 
ROOT
HETATM    1  C   UNL     1       7.409  24.962  57.394  1.00  0.00     0.070 C 
HETATM    2  C   UNL     1       7.624  24.725  55.947  1.00  0.00     0.033 A 
HETATM    3  N   UNL     1       8.402  23.691  55.497  1.00  0.00    -0.282 N 
HETATM    4  H   UNL     1       8.905  23.001  56.045  1.00  0.00     0.189 HD
HETATM    5  N   UNL     1       8.463  23.604  54.159  1.00  0.00    -0.179 NA
HETATM    6  C   UNL     1       7.718  24.628  53.745  1.00  0.00     0.066 A 
HETATM    7  C   UNL     1       7.188  25.388  54.812  1.00  0.00     0.001 A 
HETATM    8  C   UNL     1       6.288  26.574  54.603  1.00  0.00     0.070 C 
HETATM    9  C   UNL     1       6.207  26.999  53.107  1.00  0.00     0.102 C 
HETATM   10  C   UNL     1       6.223  25.799  52.099  1.00  0.00     0.071 C 
HETATM   11  C   UNL     1       4.951  24.942  52.168  1.00  0.00     0.047 C 
HETATM   12  C   UNL     1       7.485  24.919  52.309  1.00  0.00     0.100 C 
ENDROOT
BRANCH   8  13
HETATM   13  C   UNL     1       6.839  27.680  55.499  1.00  0.00    -0.046 A 
HETATM   14  C   UNL     1       8.086  28.294  55.246  1.00  0.00     0.047 A 
HETATM   15  C   UNL     1       8.568  29.306  56.080  1.00  0.00     0.101 A 
HETATM   16  C   UNL     1       7.793  29.704  57.173  1.00  0.00     0.099 A 
HETATM   17  C   UNL     1       6.568  29.114  57.449  1.00  0.00     0.040 A 
HETATM   18  C   UNL     1       6.094  28.102  56.616  1.00  0.00     0.011 A 
BRANCH  15  19
HETATM   19  O   UNL     1       9.758  29.972  55.943  1.00  0.00    -0.353 OA
HETATM   20  C   UNL     1      10.875  29.434  56.644  1.00  0.00     0.210 C 
ENDBRANCH  15  19
BRANCH  16  21
HETATM   21  O   UNL     1       8.235  30.692  58.009  1.00  0.00    -0.358 OA
HETATM   22  H   UNL     1       9.192  30.525  58.111  1.00  0.00     0.218 HD
ENDBRANCH  16  21
ENDBRANCH   8  13
BRANCH   9  23
HETATM   23  C   UNL     1       5.021  27.909  52.777  1.00  0.00     0.131 C 
HETATM   24  C   UNL     1       3.832  28.005  53.694  1.00  0.00     0.091 C 
HETATM   25  O   UNL     1       5.004  28.506  51.693  1.00  0.00    -0.298 OA
ENDBRANCH   9  23
BRANCH  10  26
HETATM   26  O   UNL     1       6.325  26.287  50.746  1.00  0.00    -0.389 OA
HETATM   27  H   UNL     1       6.676  27.203  50.757  1.00  0.00     0.210 HD
ENDBRANCH  10  26
TORSDOF 5
ENDMDL
MODEL 2
REMARK VINA RESULT:      -7.0      3.179      4.799
REMARK  5 active torsions:
REMARK  status: ('A' for Active; 'I' for Inactive)
REMARK    1  A    between atoms: C_8  and  C_9 
REMARK    2  A    between atoms: C_11  and  O_12 
REMARK    3  A    between atoms: C_14  and  O_15 
REMARK    4  A    between atoms: C_18  and  C_19 
REMARK    5  A    between atoms: C_22  and  O_23 
ROOT
HETATM    1  C   UNL     1       8.955  28.482  56.321  1.00  0.00     0.070 C 
HETATM    2  C   UNL     1       7.563  28.844  55.967  1.00  0.00     0.033 A 
HETATM    3  N   UNL     1       6.971  29.979  56.454  1.00  0.00    -0.282 N 
HETATM    4  H   UNL     1       7.366  30.674  57.080  1.00  0.00     0.189 HD
HETATM    5  N   UNL     1       5.720  30.170  56.007  1.00  0.00    -0.179 NA
HETATM    6  C   UNL     1       5.501  29.112  55.228  1.00  0.00     0.066 A 
HETATM    7  C   UNL     1       6.603  28.227  55.183  1.00  0.00     0.001 A 
HETATM    8  C   UNL     1       6.614  26.978  54.348  1.00  0.00     0.070 C 
HETATM    9  C   UNL     1       5.215  26.657  53.742  1.00  0.00     0.102 C 
HETATM   10  C   UNL     1       4.401  27.924  53.306  1.00  0.00     0.071 C 
HETATM   11  C   UNL     1       5.019  28.645  52.100  1.00  0.00     0.047 C 
HETATM   12  C   UNL     1       4.228  28.905  54.496  1.00  0.00     0.100 C 
ENDROOT
BRANCH   8  13
HETATM   13  C   UNL     1       7.127  25.868  55.262  1.00  0.00    -0.046 A 
HETATM   14  C   UNL     1       8.028  24.881  54.805  1.00  0.00     0.047 A 
HETATM   15  C   UNL     1       8.485  23.876  55.661  1.00  0.00     0.101 A 
HETATM   16  C   UNL     1       8.035  23.863  56.984  1.00  0.00     0.099 A 
HETATM   17  C   UNL     1       7.146  24.816  57.459  1.00  0.00     0.040 A 
HETATM   18  C   UNL     1       6.690  25.814  56.598  1.00  0.00     0.011 A 
BRANCH  15  19
HETATM   19  O   UNL     1       9.351  22.865  55.336  1.00  0.00    -0.353 OA
HETATM   20  C   UNL     1       9.028  22.094  54.183  1.00  0.00     0.210 C 
ENDBRANCH  15  19
BRANCH  16  21
HETATM   21  O   UNL     1       8.464  22.894  57.849  1.00  0.00    -0.358 OA
HETATM   22  H   UNL     1       8.881  23.382  58.586  1.00  0.00     0.218 HD
ENDBRANCH  16  21
ENDBRANCH   8  13
BRANCH   9  23
HETATM   23  C   UNL     1       5.247  25.662  52.580  1.00  0.00     0.131 C 
HETATM   24  C   UNL     1       6.342  25.702  51.548  1.00  0.00     0.091 C 
HETATM   25  O   UNL     1       4.306  24.871  52.439  1.00  0.00    -0.298 OA
ENDBRANCH   9  23
BRANCH  10  26
HETATM   26  O   UNL     1       3.061  27.548  52.928  1.00  0.00    -0.389 OA
HETATM   27  H   UNL     1       2.936  26.588  53.086  1.00  0.00     0.210 HD
ENDBRANCH  10  26
TORSDOF 5
ENDMDL
MODEL 3
REMARK VINA RESULT:      -6.7      3.664      7.199
REMARK  5 active torsions:
REMARK  status: ('A' for Active; 'I' for Inactive)
REMARK    1  A    between atoms: C_8  and  C_9 
REMARK    2  A    between atoms: C_11  and  O_12 
REMARK    3  A    between atoms: C_14  and  O_15 
REMARK    4  A    between atoms: C_18  and  C_19 
REMARK    5  A    between atoms: C_22  and  O_23 
ROOT
HETATM    1  C   UNL     1       2.126  29.029  51.276  1.00  0.00     0.070 C 
HETATM    2  C   UNL     1       3.127  29.164  52.359  1.00  0.00     0.033 A 
HETATM    3  N   UNL     1       3.075  30.195  53.260  1.00  0.00    -0.282 N 
HETATM    4  H   UNL     1       2.402  30.953  53.307  1.00  0.00     0.189 HD
HETATM    5  N   UNL     1       4.039  30.145  54.192  1.00  0.00    -0.179 NA
HETATM    6  C   UNL     1       4.740  29.062  53.862  1.00  0.00     0.066 A 
HETATM    7  C   UNL     1       4.240  28.418  52.706  1.00  0.00     0.001 A 
HETATM    8  C   UNL     1       4.839  27.156  52.151  1.00  0.00     0.070 C 
HETATM    9  C   UNL     1       6.185  26.785  52.841  1.00  0.00     0.102 C 
HETATM   10  C   UNL     1       6.226  27.102  54.376  1.00  0.00     0.071 C 
HETATM   11  C   UNL     1       5.288  26.206  55.197  1.00  0.00     0.047 C 
HETATM   12  C   UNL     1       5.916  28.600  54.638  1.00  0.00     0.100 C 
ENDROOT
BRANCH   8  13
HETATM   13  C   UNL     1       4.993  27.391  50.651  1.00  0.00    -0.046 A 
HETATM   14  C   UNL     1       4.497  26.474  49.697  1.00  0.00     0.047 A 
HETATM   15  C   UNL     1       4.649  26.712  48.329  1.00  0.00     0.101 A 
HETATM   16  C   UNL     1       5.300  27.877  47.916  1.00  0.00     0.099 A 
HETATM   17  C   UNL     1       5.802  28.792  48.830  1.00  0.00     0.040 A 
HETATM   18  C   UNL     1       5.653  28.547  50.195  1.00  0.00     0.011 A 
BRANCH  15  19
HETATM   19  O   UNL     1       4.218  25.900  47.312  1.00  0.00    -0.353 OA
HETATM   20  C   UNL     1       3.032  25.150  47.552  1.00  0.00     0.210 C 
ENDBRANCH  15  19
BRANCH  16  21
HETATM   21  O   UNL     1       5.465  28.141  46.584  1.00  0.00    -0.358 OA
HETATM   22  H   UNL     1       5.128  29.050  46.465  1.00  0.00     0.218 HD
ENDBRANCH  16  21
ENDBRANCH   8  13
BRANCH   9  23
HETATM   23  C   UNL     1       6.625  25.336  52.621  1.00  0.00     0.131 C 
HETATM   24  C   UNL     1       8.040  25.001  52.231  1.00  0.00     0.091 C 
HETATM   25  O   UNL     1       5.780  24.435  52.679  1.00  0.00    -0.298 OA
ENDBRANCH   9  23
BRANCH  10  26
HETATM   26  O   UNL     1       7.557  26.897  54.891  1.00  0.00    -0.389 OA
HETATM   27  H   UNL     1       8.141  26.586  54.166  1.00  0.00     0.210 HD
ENDBRANCH  10  26
TORSDOF 5
ENDMDL
MODEL 4
REMARK VINA RESULT:      -6.6      9.754     12.324
REMARK  5 active torsions:
REMARK  status: ('A' for Active; 'I' for Inactive)
REMARK    1  A    between atoms: C_8  and  C_9 
REMARK    2  A    between atoms: C_11  and  O_12 
REMARK    3  A    between atoms: C_14  and  O_15 
REMARK    4  A    between atoms: C_18  and  C_19 
REMARK    5  A    between atoms: C_22  and  O_23 
ROOT
HETATM    1  C   UNL     1       4.055  36.046  65.983  1.00  0.00     0.070 C 
HETATM    2  C   UNL     1       5.176  35.130  65.662  1.00  0.00     0.033 A 
HETATM    3  N   UNL     1       6.062  34.718  66.622  1.00  0.00    -0.282 N 
HETATM    4  H   UNL     1       6.080  34.964  67.606  1.00  0.00     0.189 HD
HETATM    5  N   UNL     1       6.993  33.866  66.165  1.00  0.00    -0.179 NA
HETATM    6  C   UNL     1       6.704  33.750  64.870  1.00  0.00     0.066 A 
HETATM    7  C   UNL     1       5.596  34.538  64.484  1.00  0.00     0.001 A 
HETATM    8  C   UNL     1       5.054  34.554  63.082  1.00  0.00     0.070 C 
HETATM    9  C   UNL     1       5.980  33.803  62.080  1.00  0.00     0.102 C 
HETATM   10  C   UNL     1       6.666  32.526  62.676  1.00  0.00     0.071 C 
HETATM   11  C   UNL     1       5.672  31.394  62.968  1.00  0.00     0.047 C 
HETATM   12  C   UNL     1       7.477  32.881  63.951  1.00  0.00     0.100 C 
ENDROOT
BRANCH   8  13
HETATM   13  C   UNL     1       4.867  36.025  62.722  1.00  0.00    -0.046 A 
HETATM   14  C   UNL     1       5.948  36.935  62.715  1.00  0.00     0.047 A 
HETATM   15  C   UNL     1       5.753  38.277  62.380  1.00  0.00     0.101 A 
HETATM   16  C   UNL     1       4.465  38.707  62.048  1.00  0.00     0.099 A 
HETATM   17  C   UNL     1       3.385  37.838  62.051  1.00  0.00     0.040 A 
HETATM   18  C   UNL     1       3.585  36.500  62.391  1.00  0.00     0.011 A 
BRANCH  15  19
HETATM   19  O   UNL     1       6.715  39.253  62.343  1.00  0.00    -0.353 OA
HETATM   20  C   UNL     1       7.127  39.791  63.596  1.00  0.00     0.210 C 
ENDBRANCH  15  19
BRANCH  16  21
HETATM   21  O   UNL     1       4.239  40.014  61.713  1.00  0.00    -0.358 OA
HETATM   22  H   UNL     1       4.926  40.226  61.051  1.00  0.00     0.218 HD
ENDBRANCH  16  21
ENDBRANCH   8  13
BRANCH   9  23
HETATM   23  C   UNL     1       5.305  33.433  60.757  1.00  0.00     0.131 C 
HETATM   24  C   UNL     1       3.806  33.397  60.629  1.00  0.00     0.091 C 
HETATM   25  O   UNL     1       6.007  33.071  59.804  1.00  0.00    -0.298 OA
ENDBRANCH   9  23
BRANCH  10  26
HETATM   26  O   UNL     1       7.636  32.003  61.746  1.00  0.00    -0.389 OA
HETATM   27  H   UNL     1       8.417  31.674  62.241  1.00  0.00     0.210 HD
ENDBRANCH  10  26
TORSDOF 5
ENDMDL
MODEL 5
REMARK VINA RESULT:      -6.5      3.449      6.190
REMARK  5 active torsions:
REMARK  status: ('A' for Active; 'I' for Inactive)
REMARK    1  A    between atoms: C_8  and  C_9 
REMARK    2  A    between atoms: C_11  and  O_12 
REMARK    3  A    between atoms: C_14  and  O_15 
REMARK    4  A    between atoms: C_18  and  C_19 
REMARK    5  A    between atoms: C_22  and  O_23 
ROOT
HETATM    1  C   UNL     1      10.295  29.451  56.413  1.00  0.00     0.070 C 
HETATM    2  C   UNL     1       9.435  30.106  57.427  1.00  0.00     0.033 A 
HETATM    3  N   UNL     1       9.970  30.789  58.487  1.00  0.00    -0.282 N 
HETATM    4  H   UNL     1      10.949  30.929  58.714  1.00  0.00     0.189 HD
HETATM    5  N   UNL     1       9.049  31.346  59.289  1.00  0.00    -0.179 NA
HETATM    6  C   UNL     1       7.893  30.987  58.735  1.00  0.00     0.066 A 
HETATM    7  C   UNL     1       8.062  30.185  57.583  1.00  0.00     0.001 A 
HETATM    8  C   UNL     1       6.909  29.681  56.762  1.00  0.00     0.070 C 
HETATM    9  C   UNL     1       5.535  29.940  57.447  1.00  0.00     0.102 C 
HETATM   10  C   UNL     1       5.453  31.300  58.222  1.00  0.00     0.071 C 
HETATM   11  C   UNL     1       5.484  32.521  57.292  1.00  0.00     0.047 C 
HETATM   12  C   UNL     1       6.578  31.398  59.286  1.00  0.00     0.100 C 
ENDROOT
BRANCH   8  13
HETATM   13  C   UNL     1       7.179  28.197  56.528  1.00  0.00    -0.046 A 
HETATM   14  C   UNL     1       7.280  27.651  55.229  1.00  0.00     0.047 A 
HETATM   15  C   UNL     1       7.529  26.290  55.041  1.00  0.00     0.101 A 
HETATM   16  C   UNL     1       7.679  25.471  56.164  1.00  0.00     0.099 A 
HETATM   17  C   UNL     1       7.580  25.978  57.451  1.00  0.00     0.040 A 
HETATM   18  C   UNL     1       7.326  27.337  57.633  1.00  0.00     0.011 A 
BRANCH  15  19
HETATM   19  O   UNL     1       7.642  25.645  53.836  1.00  0.00    -0.353 OA
HETATM   20  C   UNL     1       6.438  25.442  53.105  1.00  0.00     0.210 C 
ENDBRANCH  15  19
BRANCH  16  21
HETATM   21  O   UNL     1       7.925  24.134  56.015  1.00  0.00    -0.358 OA
HETATM   22  H   UNL     1       7.682  23.738  56.875  1.00  0.00     0.218 HD
ENDBRANCH  16  21
ENDBRANCH   8  13
BRANCH   9  23
HETATM   23  C   UNL     1       4.333  29.831  56.506  1.00  0.00     0.131 C 
HETATM   24  C   UNL     1       4.503  29.894  55.012  1.00  0.00     0.091 C 
HETATM   25  O   UNL     1       3.194  29.779  56.987  1.00  0.00    -0.298 OA
ENDBRANCH   9  23
BRANCH  10  26
HETATM   26  O   UNL     1       4.221  31.374  58.968  1.00  0.00    -0.389 OA
HETATM   27  H   UNL     1       4.261  30.751  59.724  1.00  0.00     0.210 HD
ENDBRANCH  10  26
TORSDOF 5
ENDMDL
MODEL 6
REMARK VINA RESULT:      -6.4      9.340     12.056
REMARK  5 active torsions:
REMARK  status: ('A' for Active; 'I' for Inactive)
REMARK    1  A    between atoms: C_8  and  C_9 
REMARK    2  A    between atoms: C_11  and  O_12 
REMARK    3  A    between atoms: C_14  and  O_15 
REMARK    4  A    between atoms: C_18  and  C_19 
REMARK    5  A    between atoms: C_22  and  O_23 
ROOT
HETATM    1  C   UNL     1       3.982  35.944  65.418  1.00  0.00     0.070 C 
HETATM    2  C   UNL     1       5.176  35.079  65.274  1.00  0.00     0.033 A 
HETATM    3  N   UNL     1       5.970  34.769  66.347  1.00  0.00    -0.282 N 
HETATM    4  H   UNL     1       5.866  35.066  67.311  1.00  0.00     0.189 HD
HETATM    5  N   UNL     1       6.989  33.949  66.043  1.00  0.00    -0.179 NA
HETATM    6  C   UNL     1       6.852  33.750  64.734  1.00  0.00     0.066 A 
HETATM    7  C   UNL     1       5.755  34.452  64.184  1.00  0.00     0.001 A 
HETATM    8  C   UNL     1       5.372  34.363  62.733  1.00  0.00     0.070 C 
HETATM    9  C   UNL     1       6.442  33.617  61.883  1.00  0.00     0.102 C 
HETATM   10  C   UNL     1       7.122  32.414  62.623  1.00  0.00     0.071 C 
HETATM   11  C   UNL     1       6.161  31.243  62.870  1.00  0.00     0.047 C 
HETATM   12  C   UNL     1       7.767  32.880  63.956  1.00  0.00     0.100 C 
ENDROOT
BRANCH   8  13
HETATM   13  C   UNL     1       5.152  35.801  62.270  1.00  0.00    -0.046 A 
HETATM   14  C   UNL     1       3.926  36.226  61.712  1.00  0.00     0.047 A 
HETATM   15  C   UNL     1       3.748  37.549  61.298  1.00  0.00     0.101 A 
HETATM   16  C   UNL     1       4.807  38.449  61.445  1.00  0.00     0.099 A 
HETATM   17  C   UNL     1       6.023  38.058  61.984  1.00  0.00     0.040 A 
HETATM   18  C   UNL     1       6.197  36.736  62.392  1.00  0.00     0.011 A 
BRANCH  15  19
HETATM   19  O   UNL     1       2.613  38.078  60.739  1.00  0.00    -0.353 OA
HETATM   20  C   UNL     1       2.256  37.600  59.446  1.00  0.00     0.210 C 
ENDBRANCH  15  19
BRANCH  16  21
HETATM   21  O   UNL     1       4.665  39.751  61.050  1.00  0.00    -0.358 OA
HETATM   22  H   UNL     1       3.966  40.113  61.628  1.00  0.00     0.218 HD
ENDBRANCH  16  21
ENDBRANCH   8  13
BRANCH   9  23
HETATM   23  C   UNL     1       5.939  33.140  60.518  1.00  0.00     0.131 C 
HETATM   24  C   UNL     1       4.472  32.925  60.259  1.00  0.00     0.091 C 
HETATM   25  O   UNL     1       6.762  32.843  59.643  1.00  0.00    -0.298 OA
ENDBRANCH   9  23
BRANCH  10  26
HETATM   26  O   UNL     1       8.215  31.899  61.835  1.00  0.00    -0.389 OA
HETATM   27  H   UNL     1       9.064  32.126  62.270  1.00  0.00     0.210 HD
ENDBRANCH  10  26
TORSDOF 5
ENDMDL
MODEL 7
REMARK VINA RESULT:      -6.4      8.499     11.065
REMARK  5 active torsions:
REMARK  status: ('A' for Active; 'I' for Inactive)
REMARK    1  A    between atoms: C_8  and  C_9 
REMARK    2  A    between atoms: C_11  and  O_12 
REMARK    3  A    between atoms: C_14  and  O_15 
REMARK    4  A    between atoms: C_18  and  C_19 
REMARK    5  A    between atoms: C_22  and  O_23 
ROOT
HETATM    1  C   UNL     1       7.244  33.429  64.419  1.00  0.00     0.070 C 
HETATM    2  C   UNL     1       6.989  33.115  62.994  1.00  0.00     0.033 A 
HETATM    3  N   UNL     1       7.889  32.406  62.243  1.00  0.00    -0.282 N 
HETATM    4  H   UNL     1       8.787  32.031  62.530  1.00  0.00     0.189 HD
HETATM    5  N   UNL     1       7.483  32.184  60.983  1.00  0.00    -0.179 NA
HETATM    6  C   UNL     1       6.298  32.789  60.924  1.00  0.00     0.066 A 
HETATM    7  C   UNL     1       5.942  33.417  62.139  1.00  0.00     0.001 A 
HETATM    8  C   UNL     1       4.638  34.138  62.335  1.00  0.00     0.070 C 
HETATM    9  C   UNL     1       3.852  34.313  61.002  1.00  0.00     0.102 C 
HETATM   10  C   UNL     1       3.972  33.094  60.024  1.00  0.00     0.071 C 
HETATM   11  C   UNL     1       3.268  31.834  60.548  1.00  0.00     0.047 C 
HETATM   12  C   UNL     1       5.460  32.791  59.700  1.00  0.00     0.100 C 
ENDROOT
BRANCH   8  13
HETATM   13  C   UNL     1       4.991  35.472  62.988  1.00  0.00    -0.046 A 
HETATM   14  C   UNL     1       5.727  36.466  62.306  1.00  0.00     0.047 A 
HETATM   15  C   UNL     1       6.036  37.680  62.924  1.00  0.00     0.101 A 
HETATM   16  C   UNL     1       5.603  37.897  64.235  1.00  0.00     0.099 A 
HETATM   17  C   UNL     1       4.883  36.937  64.931  1.00  0.00     0.040 A 
HETATM   18  C   UNL     1       4.582  35.725  64.310  1.00  0.00     0.011 A 
BRANCH  15  19
HETATM   19  O   UNL     1       6.746  38.715  62.371  1.00  0.00    -0.353 OA
HETATM   20  C   UNL     1       6.263  39.230  61.134  1.00  0.00     0.210 C 
ENDBRANCH  15  19
BRANCH  16  21
HETATM   21  O   UNL     1       5.888  39.075  64.869  1.00  0.00    -0.358 OA
HETATM   22  H   UNL     1       5.373  39.043  65.699  1.00  0.00     0.218 HD
ENDBRANCH  16  21
ENDBRANCH   8  13
BRANCH   9  23
HETATM   23  C   UNL     1       2.372  34.658  61.186  1.00  0.00     0.131 C 
HETATM   24  C   UNL     1       1.669  34.406  62.493  1.00  0.00     0.091 C 
HETATM   25  O   UNL     1       1.724  35.067  60.215  1.00  0.00    -0.298 OA
ENDBRANCH   9  23
BRANCH  10  26
HETATM   26  O   UNL     1       3.368  33.414  58.754  1.00  0.00    -0.389 OA
HETATM   27  H   UNL     1       2.392  33.361  58.836  1.00  0.00     0.210 HD
ENDBRANCH  10  26
TORSDOF 5
ENDMDL
MODEL 8
REMARK VINA RESULT:      -6.2      9.488     11.981
REMARK  5 active torsions:
REMARK  status: ('A' for Active; 'I' for Inactive)
REMARK    1  A    between atoms: C_8  and  C_9 
REMARK    2  A    between atoms: C_11  and  O_12 
REMARK    3  A    between atoms: C_14  and  O_15 
REMARK    4  A    between atoms: C_18  and  C_19 
REMARK    5  A    between atoms: C_22  and  O_23 
ROOT
HETATM    1  C   UNL     1       6.035  37.933  62.795  1.00  0.00     0.070 C 
HETATM    2  C   UNL     1       4.831  37.940  61.932  1.00  0.00     0.033 A 
HETATM    3  N   UNL     1       4.137  39.094  61.679  1.00  0.00    -0.282 N 
HETATM    4  H   UNL     1       4.329  40.029  62.022  1.00  0.00     0.189 HD
HETATM    5  N   UNL     1       3.093  38.925  60.852  1.00  0.00    -0.179 NA
HETATM    6  C   UNL     1       3.110  37.620  60.589  1.00  0.00     0.066 A 
HETATM    7  C   UNL     1       4.154  36.939  61.256  1.00  0.00     0.001 A 
HETATM    8  C   UNL     1       4.403  35.466  61.095  1.00  0.00     0.070 C 
HETATM    9  C   UNL     1       3.259  34.753  60.315  1.00  0.00     0.102 C 
HETATM   10  C   UNL     1       2.646  35.609  59.154  1.00  0.00     0.071 C 
HETATM   11  C   UNL     1       3.624  35.825  57.990  1.00  0.00     0.047 C 
HETATM   12  C   UNL     1       2.126  36.971  59.688  1.00  0.00     0.100 C 
ENDROOT
BRANCH   8  13
HETATM   13  C   UNL     1       4.583  34.915  62.507  1.00  0.00    -0.046 A 
HETATM   14  C   UNL     1       5.773  34.268  62.911  1.00  0.00     0.047 A 
HETATM   15  C   UNL     1       5.914  33.774  64.210  1.00  0.00     0.101 A 
HETATM   16  C   UNL     1       4.856  33.931  65.109  1.00  0.00     0.099 A 
HETATM   17  C   UNL     1       3.675  34.557  64.739  1.00  0.00     0.040 A 
HETATM   18  C   UNL     1       3.537  35.044  63.440  1.00  0.00     0.011 A 
BRANCH  15  19
HETATM   19  O   UNL     1       7.012  33.127  64.716  1.00  0.00    -0.353 OA
HETATM   20  C   UNL     1       7.986  32.690  63.774  1.00  0.00     0.210 C 
ENDBRANCH  15  19
BRANCH  16  21
HETATM   21  O   UNL     1       4.962  33.460  66.388  1.00  0.00    -0.358 OA
HETATM   22  H   UNL     1       4.609  34.177  66.950  1.00  0.00     0.218 HD
ENDBRANCH  16  21
ENDBRANCH   8  13
BRANCH   9  23
HETATM   23  C   UNL     1       3.635  33.373  59.770  1.00  0.00     0.131 C 
HETATM   24  C   UNL     1       5.063  33.025  59.446  1.00  0.00     0.091 C 
HETATM   25  O   UNL     1       2.736  32.564  59.508  1.00  0.00    -0.298 OA
ENDBRANCH   9  23
BRANCH  10  26
HETATM   26  O   UNL     1       1.485  34.950  58.608  1.00  0.00    -0.389 OA
HETATM   27  H   UNL     1       1.500  35.023  57.630  1.00  0.00     0.210 HD
ENDBRANCH  10  26
TORSDOF 5
ENDMDL
MODEL 9
REMARK VINA RESULT:      -6.2      2.646      4.015
REMARK  5 active torsions:
REMARK  status: ('A' for Active; 'I' for Inactive)
REMARK    1  A    between atoms: C_8  and  C_9 
REMARK    2  A    between atoms: C_11  and  O_12 
REMARK    3  A    between atoms: C_14  and  O_15 
REMARK    4  A    between atoms: C_18  and  C_19 
REMARK    5  A    between atoms: C_22  and  O_23 
ROOT
HETATM    1  C   UNL     1       6.192  28.672  52.666  1.00  0.00     0.070 C 
HETATM    2  C   UNL     1       6.003  27.208  52.539  1.00  0.00     0.033 A 
HETATM    3  N   UNL     1       5.304  26.663  51.495  1.00  0.00    -0.282 N 
HETATM    4  H   UNL     1       4.849  27.144  50.726  1.00  0.00     0.189 HD
HETATM    5  N   UNL     1       5.258  25.322  51.519  1.00  0.00    -0.179 NA
HETATM    6  C   UNL     1       5.929  25.005  52.624  1.00  0.00     0.066 A 
HETATM    7  C   UNL     1       6.397  26.139  53.326  1.00  0.00     0.001 A 
HETATM    8  C   UNL     1       7.210  26.042  54.586  1.00  0.00     0.070 C 
HETATM    9  C   UNL     1       7.270  24.589  55.142  1.00  0.00     0.102 C 
HETATM   10  C   UNL     1       7.345  23.482  54.035  1.00  0.00     0.071 C 
HETATM   11  C   UNL     1       8.675  23.494  53.268  1.00  0.00     0.047 C 
HETATM   12  C   UNL     1       6.149  23.602  53.053  1.00  0.00     0.100 C 
ENDROOT
BRANCH   8  13
HETATM   13  C   UNL     1       6.576  27.022  55.570  1.00  0.00    -0.046 A 
HETATM   14  C   UNL     1       7.323  28.053  56.183  1.00  0.00     0.047 A 
HETATM   15  C   UNL     1       6.720  28.939  57.078  1.00  0.00     0.101 A 
HETATM   16  C   UNL     1       5.359  28.791  57.358  1.00  0.00     0.099 A 
HETATM   17  C   UNL     1       4.602  27.785  56.775  1.00  0.00     0.040 A 
HETATM   18  C   UNL     1       5.211  26.900  55.886  1.00  0.00     0.011 A 
BRANCH  15  19
HETATM   19  O   UNL     1       7.336  29.971  57.738  1.00  0.00    -0.353 OA
HETATM   20  C   UNL     1       8.760  29.974  57.729  1.00  0.00     0.210 C 
ENDBRANCH  15  19
BRANCH  16  21
HETATM   21  O   UNL     1       4.737  29.642  58.230  1.00  0.00    -0.358 OA
HETATM   22  H   UNL     1       3.782  29.502  58.078  1.00  0.00     0.218 HD
ENDBRANCH  16  21
ENDBRANCH   8  13
BRANCH   9  23
HETATM   23  C   UNL     1       8.389  24.351  56.160  1.00  0.00     0.131 C 
HETATM   24  C   UNL     1       8.365  25.008  57.514  1.00  0.00     0.091 C 
HETATM   25  O   UNL     1       9.372  23.678  55.827  1.00  0.00    -0.298 OA
ENDBRANCH   9  23
BRANCH  10  26
HETATM   26  O   UNL     1       7.216  22.175  54.629  1.00  0.00    -0.389 OA
HETATM   27  H   UNL     1       8.090  21.729  54.628  1.00  0.00     0.210 HD
ENDBRANCH  10  26
TORSDOF 5
ENDMDL
MODEL 10
REMARK VINA RESULT:      -6.1      7.543     11.007
REMARK  5 active torsions:
REMARK  status: ('A' for Active; 'I' for Inactive)
REMARK    1  A    between atoms: C_8  and  C_9 
REMARK    2  A    between atoms: C_11  and  O_12 
REMARK    3  A    between atoms: C_14  and  O_15 
REMARK    4  A    between atoms: C_18  and  C_19 
REMARK    5  A    between atoms: C_22  and  O_23 
ROOT
HETATM    1  C   UNL     1       8.030  32.214  61.004  1.00  0.00     0.070 C 
HETATM    2  C   UNL     1       7.436  32.778  62.240  1.00  0.00     0.033 A 
HETATM    3  N   UNL     1       7.928  32.464  63.479  1.00  0.00    -0.282 N 
HETATM    4  H   UNL     1       8.700  31.848  63.710  1.00  0.00     0.189 HD
HETATM    5  N   UNL     1       7.293  33.087  64.484  1.00  0.00    -0.179 NA
HETATM    6  C   UNL     1       6.355  33.803  63.867  1.00  0.00     0.066 A 
HETATM    7  C   UNL     1       6.370  33.632  62.463  1.00  0.00     0.001 A 
HETATM    8  C   UNL     1       5.431  34.358  61.542  1.00  0.00     0.070 C 
HETATM    9  C   UNL     1       4.311  35.117  62.314  1.00  0.00     0.102 C 
HETATM   10  C   UNL     1       4.785  35.755  63.664  1.00  0.00     0.071 C 
HETATM   11  C   UNL     1       5.763  36.922  63.464  1.00  0.00     0.047 C 
HETATM   12  C   UNL     1       5.406  34.679  64.595  1.00  0.00     0.100 C 
ENDROOT
BRANCH   8  13
HETATM   13  C   UNL     1       4.876  33.299  60.592  1.00  0.00    -0.046 A 
HETATM   14  C   UNL     1       5.329  33.180  59.259  1.00  0.00     0.047 A 
HETATM   15  C   UNL     1       4.807  32.202  58.410  1.00  0.00     0.101 A 
HETATM   16  C   UNL     1       3.825  31.338  58.901  1.00  0.00     0.099 A 
HETATM   17  C   UNL     1       3.357  31.435  60.203  1.00  0.00     0.040 A 
HETATM   18  C   UNL     1       3.878  32.417  61.045  1.00  0.00     0.011 A 
BRANCH  15  19
HETATM   19  O   UNL     1       5.160  31.992  57.101  1.00  0.00    -0.353 OA
HETATM   20  C   UNL     1       4.776  32.995  56.167  1.00  0.00     0.210 C 
ENDBRANCH  15  19
BRANCH  16  21
HETATM   21  O   UNL     1       3.293  30.369  58.096  1.00  0.00    -0.358 OA
HETATM   22  H   UNL     1       4.066  29.909  57.713  1.00  0.00     0.218 HD
ENDBRANCH  16  21
ENDBRANCH   8  13
BRANCH   9  23
HETATM   23  C   UNL     1       3.589  36.183  61.486  1.00  0.00     0.131 C 
HETATM   24  C   UNL     1       4.250  36.827  60.297  1.00  0.00     0.091 C 
HETATM   25  O   UNL     1       2.479  36.584  61.858  1.00  0.00    -0.298 OA
ENDBRANCH   9  23
BRANCH  10  26
HETATM   26  O   UNL     1       3.655  36.277  64.392  1.00  0.00    -0.389 OA
HETATM   27  H   UNL     1       3.076  35.535  64.669  1.00  0.00     0.210 HD
ENDBRANCH  10  26
TORSDOF 5
ENDMDL
