MODEL 1
REMARK VINA RESULT:     -10.2      0.000      0.000
REMARK  5 active torsions:
REMARK  status: ('A' for Active; 'I' for Inactive)
REMARK    1  A    between atoms: C_3  and  N_4 
REMARK       I    between atoms: N_4  and  C_5 
REMARK    2  A    between atoms: C_9  and  N_10 
REMARK       I    between atoms: N_10  and  C_11 
REMARK    3  A    between atoms: C_11  and  C_12 
REMARK    4  A    between atoms: C_17  and  C_18 
REMARK    5  A    between atoms: C_24  and  C_25 
ROOT
HETATM    1  C   UNL     1       7.534  29.991  57.933  1.00  0.00     0.148 A 
HETATM    2  N   UNL     1       6.270  29.536  57.768  1.00  0.00    -0.165 NA
HETATM    3  N   UNL     1       6.381  28.673  56.740  1.00  0.00    -0.240 N 
HETATM    4  C   UNL     1       7.656  28.532  56.267  1.00  0.00     0.123 A 
HETATM    5  N   UNL     1       7.949  27.671  55.269  1.00  0.00    -0.364 N 
HETATM    6  C   UNL     1       6.885  27.021  54.500  1.00  0.00     0.143 C 
HETATM    7  C   UNL     1       5.711  26.700  55.445  1.00  0.00     0.068 C 
HETATM    8  C   UNL     1       5.238  27.950  56.212  1.00  0.00     0.221 C 
HETATM    9  C   UNL     1       8.430  29.378  57.014  1.00  0.00     0.089 A 
HETATM   10  H   UNL     1       8.841  27.743  54.780  1.00  0.00     0.162 HD
ENDROOT
BRANCH   1  11
HETATM   11  C   UNL     1       7.882  31.002  58.947  1.00  0.00     0.276 C 
HETATM   12  N   UNL     1       7.142  30.854  60.105  1.00  0.00    -0.322 N 
HETATM   13  H   UNL     1       6.487  30.077  60.070  1.00  0.00     0.169 HD
HETATM   14  O   UNL     1       8.728  31.861  58.725  1.00  0.00    -0.266 OA
BRANCH  12  15
HETATM   15  C   UNL     1       7.155  31.663  61.256  1.00  0.00     0.037 A 
HETATM   16  C   UNL     1       6.287  32.736  61.462  1.00  0.00     0.059 A 
HETATM   17  C   UNL     1       6.305  33.496  62.651  1.00  0.00     0.042 A 
HETATM   18  C   UNL     1       7.278  33.214  63.623  1.00  0.00    -0.035 A 
HETATM   19  C   UNL     1       7.507  34.022  64.870  1.00  0.00     0.050 C 
HETATM   20  C   UNL     1       8.140  32.120  63.415  1.00  0.00     0.011 A 
HETATM   21  C   UNL     1       8.080  31.354  62.248  1.00  0.00     0.030 A 
BRANCH  17  22
HETATM   22  N   UNL     1       5.332  34.523  62.706  1.00  0.00    -0.327 N 
HETATM   23  C   UNL     1       4.179  34.570  63.466  1.00  0.00     0.218 C 
HETATM   24  C   UNL     1       3.434  35.869  63.281  1.00  0.00     0.117 C 
HETATM   25  O   UNL     1       3.742  33.701  64.209  1.00  0.00    -0.274 OA
HETATM   26  H   UNL     1       5.351  35.168  61.925  1.00  0.00     0.169 HD
ENDBRANCH  17  22
ENDBRANCH  12  15
ENDBRANCH   1  11
BRANCH   8  27
HETATM   27  C   UNL     1       4.406  28.871  55.346  1.00  0.00     0.409 C 
HETATM   28  F   UNL     1       5.139  29.850  54.774  1.00  0.00    -0.169 F 
HETATM   29  F   UNL     1       3.746  28.222  54.365  1.00  0.00    -0.169 F 
HETATM   30  F   UNL     1       3.465  29.491  56.105  1.00  0.00    -0.169 F 
ENDBRANCH   8  27
BRANCH   6  31
HETATM   31  C   UNL     1       7.347  25.773  53.815  1.00  0.00     0.075 A 
HETATM   32  O   UNL     1       7.640  24.710  54.618  1.00  0.00    -0.325 OA
HETATM   33  C   UNL     1       8.015  23.689  53.803  1.00  0.00     0.142 A 
HETATM   34  C   UNL     1       7.975  24.083  52.487  1.00  0.00     0.027 A 
HETATM   35  C   UNL     1       7.546  25.432  52.491  1.00  0.00     0.037 A 
ENDBRANCH   6  31
TORSDOF 5
ENDMDL
MODEL 2
REMARK VINA RESULT:     -10.0      3.200     10.274
REMARK  5 active torsions:
REMARK  status: ('A' for Active; 'I' for Inactive)
REMARK    1  A    between atoms: C_3  and  N_4 
REMARK       I    between atoms: N_4  and  C_5 
REMARK    2  A    between atoms: C_9  and  N_10 
REMARK       I    between atoms: N_10  and  C_11 
REMARK    3  A    between atoms: C_11  and  C_12 
REMARK    4  A    between atoms: C_17  and  C_18 
REMARK    5  A    between atoms: C_24  and  C_25 
ROOT
HETATM    1  C   UNL     1       7.923  29.797  58.149  1.00  0.00     0.148 A 
HETATM    2  N   UNL     1       8.373  29.745  59.425  1.00  0.00    -0.165 NA
HETATM    3  N   UNL     1       7.726  30.763  60.024  1.00  0.00    -0.240 N 
HETATM    4  C   UNL     1       6.865  31.437  59.203  1.00  0.00     0.123 A 
HETATM    5  N   UNL     1       6.105  32.455  59.658  1.00  0.00    -0.364 N 
HETATM    6  C   UNL     1       6.334  33.030  60.986  1.00  0.00     0.143 C 
HETATM    7  C   UNL     1       6.730  31.900  61.957  1.00  0.00     0.068 C 
HETATM    8  C   UNL     1       7.926  31.086  61.426  1.00  0.00     0.221 C 
HETATM    9  C   UNL     1       6.972  30.840  57.976  1.00  0.00     0.089 A 
HETATM   10  H   UNL     1       5.649  33.085  58.997  1.00  0.00     0.162 HD
ENDROOT
BRANCH   1  11
HETATM   11  C   UNL     1       8.398  28.869  57.108  1.00  0.00     0.276 C 
HETATM   12  N   UNL     1       7.368  28.128  56.561  1.00  0.00    -0.322 N 
HETATM   13  H   UNL     1       6.457  28.344  56.959  1.00  0.00     0.169 HD
HETATM   14  O   UNL     1       9.587  28.796  56.816  1.00  0.00    -0.266 OA
BRANCH  12  15
HETATM   15  C   UNL     1       7.446  27.109  55.594  1.00  0.00     0.037 A 
HETATM   16  C   UNL     1       7.392  25.747  55.893  1.00  0.00     0.059 A 
HETATM   17  C   UNL     1       7.431  24.758  54.888  1.00  0.00     0.042 A 
HETATM   18  C   UNL     1       7.609  25.151  53.552  1.00  0.00    -0.035 A 
HETATM   19  C   UNL     1       7.808  24.210  52.397  1.00  0.00     0.050 C 
HETATM   20  C   UNL     1       7.648  26.528  53.257  1.00  0.00     0.011 A 
HETATM   21  C   UNL     1       7.567  27.494  54.262  1.00  0.00     0.030 A 
BRANCH  17  22
HETATM   22  N   UNL     1       7.328  23.429  55.368  1.00  0.00    -0.327 N 
HETATM   23  C   UNL     1       8.325  22.479  55.477  1.00  0.00     0.218 C 
HETATM   24  C   UNL     1       7.818  21.197  56.091  1.00  0.00     0.117 C 
HETATM   25  O   UNL     1       9.493  22.584  55.127  1.00  0.00    -0.274 OA
HETATM   26  H   UNL     1       6.385  23.059  55.394  1.00  0.00     0.169 HD
ENDBRANCH  17  22
ENDBRANCH  12  15
ENDBRANCH   1  11
BRANCH   8  27
HETATM   27  C   UNL     1       9.238  31.818  61.601  1.00  0.00     0.409 C 
HETATM   28  F   UNL     1      10.269  30.983  61.857  1.00  0.00    -0.169 F 
HETATM   29  F   UNL     1       9.571  32.571  60.532  1.00  0.00    -0.169 F 
HETATM   30  F   UNL     1       9.157  32.662  62.663  1.00  0.00    -0.169 F 
ENDBRANCH   8  27
BRANCH   6  31
HETATM   31  C   UNL     1       5.138  33.761  61.513  1.00  0.00     0.075 A 
HETATM   32  O   UNL     1       4.185  33.006  62.130  1.00  0.00    -0.325 OA
HETATM   33  C   UNL     1       3.211  33.858  62.545  1.00  0.00     0.142 A 
HETATM   34  C   UNL     1       3.521  35.151  62.196  1.00  0.00     0.027 A 
HETATM   35  C   UNL     1       4.766  35.091  61.526  1.00  0.00     0.037 A 
ENDBRANCH   6  31
TORSDOF 5
ENDMDL
MODEL 3
REMARK VINA RESULT:      -9.8      2.223      2.561
REMARK  5 active torsions:
REMARK  status: ('A' for Active; 'I' for Inactive)
REMARK    1  A    between atoms: C_3  and  N_4 
REMARK       I    between atoms: N_4  and  C_5 
REMARK    2  A    between atoms: C_9  and  N_10 
REMARK       I    between atoms: N_10  and  C_11 
REMARK    3  A    between atoms: C_11  and  C_12 
REMARK    4  A    between atoms: C_17  and  C_18 
REMARK    5  A    between atoms: C_24  and  C_25 
ROOT
HETATM    1  C   UNL     1       7.617  29.819  57.807  1.00  0.00     0.148 A 
HETATM    2  N   UNL     1       8.138  28.570  57.823  1.00  0.00    -0.165 NA
HETATM    3  N   UNL     1       7.540  27.970  56.776  1.00  0.00    -0.240 N 
HETATM    4  C   UNL     1       6.692  28.784  56.078  1.00  0.00     0.123 A 
HETATM    5  N   UNL     1       6.047  28.353  54.973  1.00  0.00    -0.364 N 
HETATM    6  C   UNL     1       6.049  26.934  54.607  1.00  0.00     0.143 C 
HETATM    7  C   UNL     1       7.425  26.331  54.954  1.00  0.00     0.068 C 
HETATM    8  C   UNL     1       7.803  26.586  56.426  1.00  0.00     0.221 C 
HETATM    9  C   UNL     1       6.713  29.991  56.723  1.00  0.00     0.089 A 
HETATM   10  H   UNL     1       5.259  28.884  54.604  1.00  0.00     0.162 HD
ENDROOT
BRANCH   1  11
HETATM   11  C   UNL     1       7.971  30.834  58.816  1.00  0.00     0.276 C 
HETATM   12  N   UNL     1       7.219  30.707  59.968  1.00  0.00    -0.322 N 
HETATM   13  H   UNL     1       6.553  29.939  59.935  1.00  0.00     0.169 HD
HETATM   14  O   UNL     1       8.831  31.679  58.593  1.00  0.00    -0.266 OA
BRANCH  12  15
HETATM   15  C   UNL     1       7.233  31.525  61.113  1.00  0.00     0.037 A 
HETATM   16  C   UNL     1       6.346  32.582  61.325  1.00  0.00     0.059 A 
HETATM   17  C   UNL     1       6.367  33.351  62.506  1.00  0.00     0.042 A 
HETATM   18  C   UNL     1       7.362  33.100  63.465  1.00  0.00    -0.035 A 
HETATM   19  C   UNL     1       7.594  33.923  64.700  1.00  0.00     0.050 C 
HETATM   20  C   UNL     1       8.244  32.023  63.250  1.00  0.00     0.011 A 
HETATM   21  C   UNL     1       8.182  31.246  62.091  1.00  0.00     0.030 A 
BRANCH  17  22
HETATM   22  N   UNL     1       5.373  34.358  62.570  1.00  0.00    -0.327 N 
HETATM   23  C   UNL     1       4.243  34.396  63.364  1.00  0.00     0.218 C 
HETATM   24  C   UNL     1       3.462  35.673  63.174  1.00  0.00     0.117 C 
HETATM   25  O   UNL     1       3.849  33.534  64.138  1.00  0.00    -0.274 OA
HETATM   26  H   UNL     1       5.353  34.986  61.775  1.00  0.00     0.169 HD
ENDBRANCH  17  22
ENDBRANCH  12  15
ENDBRANCH   1  11
BRANCH   8  27
HETATM   27  C   UNL     1       7.062  25.668  57.373  1.00  0.00     0.409 C 
HETATM   28  F   UNL     1       5.899  26.199  57.808  1.00  0.00    -0.169 F 
HETATM   29  F   UNL     1       6.790  24.461  56.837  1.00  0.00    -0.169 F 
HETATM   30  F   UNL     1       7.817  25.442  58.481  1.00  0.00    -0.169 F 
ENDBRANCH   8  27
BRANCH   6  31
HETATM   31  C   UNL     1       5.744  26.711  53.159  1.00  0.00     0.075 A 
HETATM   32  O   UNL     1       5.876  27.790  52.334  1.00  0.00    -0.325 OA
HETATM   33  C   UNL     1       5.574  27.370  51.078  1.00  0.00     0.142 A 
HETATM   34  C   UNL     1       5.242  26.035  51.084  1.00  0.00     0.027 A 
HETATM   35  C   UNL     1       5.348  25.607  52.429  1.00  0.00     0.037 A 
ENDBRANCH   6  31
TORSDOF 5
ENDMDL
MODEL 4
REMARK VINA RESULT:      -9.7      1.605      2.424
REMARK  5 active torsions:
REMARK  status: ('A' for Active; 'I' for Inactive)
REMARK    1  A    between atoms: C_3  and  N_4 
REMARK       I    between atoms: N_4  and  C_5 
REMARK    2  A    between atoms: C_9  and  N_10 
REMARK       I    between atoms: N_10  and  C_11 
REMARK    3  A    between atoms: C_11  and  C_12 
REMARK    4  A    between atoms: C_17  and  C_18 
REMARK    5  A    between atoms: C_24  and  C_25 
ROOT
HETATM    1  C   UNL     1       6.829  29.881  58.084  1.00  0.00     0.148 A 
HETATM    2  N   UNL     1       5.670  29.457  57.528  1.00  0.00    -0.165 NA
HETATM    3  N   UNL     1       6.005  28.278  56.971  1.00  0.00    -0.240 N 
HETATM    4  C   UNL     1       7.308  27.917  57.173  1.00  0.00     0.123 A 
HETATM    5  N   UNL     1       7.794  26.741  56.721  1.00  0.00    -0.364 N 
HETATM    6  C   UNL     1       7.014  25.909  55.801  1.00  0.00     0.143 C 
HETATM    7  C   UNL     1       5.524  26.004  56.183  1.00  0.00     0.068 C 
HETATM    8  C   UNL     1       5.045  27.468  56.243  1.00  0.00     0.221 C 
HETATM    9  C   UNL     1       7.874  28.937  57.887  1.00  0.00     0.089 A 
HETATM   10  H   UNL     1       8.802  26.590  56.677  1.00  0.00     0.162 HD
ENDROOT
BRANCH   1  11
HETATM   11  C   UNL     1       6.941  31.172  58.786  1.00  0.00     0.276 C 
HETATM   12  N   UNL     1       5.819  31.451  59.544  1.00  0.00    -0.322 N 
HETATM   13  H   UNL     1       5.108  30.725  59.497  1.00  0.00     0.169 HD
HETATM   14  O   UNL     1       7.933  31.881  58.660  1.00  0.00    -0.266 OA
BRANCH  12  15
HETATM   15  C   UNL     1       5.542  32.607  60.296  1.00  0.00     0.037 A 
HETATM   16  C   UNL     1       6.024  32.830  61.587  1.00  0.00     0.059 A 
HETATM   17  C   UNL     1       5.756  34.023  62.290  1.00  0.00     0.042 A 
HETATM   18  C   UNL     1       4.914  34.983  61.707  1.00  0.00    -0.035 A 
HETATM   19  C   UNL     1       4.430  36.232  62.389  1.00  0.00     0.050 C 
HETATM   20  C   UNL     1       4.444  34.757  60.398  1.00  0.00     0.011 A 
HETATM   21  C   UNL     1       4.752  33.587  59.701  1.00  0.00     0.030 A 
BRANCH  17  22
HETATM   22  N   UNL     1       6.354  34.096  63.572  1.00  0.00    -0.327 N 
HETATM   23  C   UNL     1       5.883  33.585  64.766  1.00  0.00     0.218 C 
HETATM   24  C   UNL     1       6.846  33.826  65.902  1.00  0.00     0.117 C 
HETATM   25  O   UNL     1       4.820  33.010  64.961  1.00  0.00    -0.274 OA
HETATM   26  H   UNL     1       7.067  34.809  63.668  1.00  0.00     0.169 HD
ENDBRANCH  17  22
ENDBRANCH  12  15
ENDBRANCH   1  11
BRANCH   8  27
HETATM   27  C   UNL     1       4.821  28.053  54.866  1.00  0.00     0.409 C 
HETATM   28  F   UNL     1       5.894  28.737  54.411  1.00  0.00    -0.169 F 
HETATM   29  F   UNL     1       4.502  27.124  53.941  1.00  0.00    -0.169 F 
HETATM   30  F   UNL     1       3.791  28.938  54.902  1.00  0.00    -0.169 F 
ENDBRANCH   8  27
BRANCH   6  31
HETATM   31  C   UNL     1       7.453  24.477  55.805  1.00  0.00     0.075 A 
HETATM   32  O   UNL     1       8.087  24.037  56.930  1.00  0.00    -0.325 OA
HETATM   33  C   UNL     1       8.377  22.724  56.734  1.00  0.00     0.142 A 
HETATM   34  C   UNL     1       7.945  22.315  55.495  1.00  0.00     0.027 A 
HETATM   35  C   UNL     1       7.349  23.448  54.891  1.00  0.00     0.037 A 
ENDBRANCH   6  31
TORSDOF 5
ENDMDL
MODEL 5
REMARK VINA RESULT:      -9.6      3.207     10.145
REMARK  5 active torsions:
REMARK  status: ('A' for Active; 'I' for Inactive)
REMARK    1  A    between atoms: C_3  and  N_4 
REMARK       I    between atoms: N_4  and  C_5 
REMARK    2  A    between atoms: C_9  and  N_10 
REMARK       I    between atoms: N_10  and  C_11 
REMARK    3  A    between atoms: C_11  and  C_12 
REMARK    4  A    between atoms: C_17  and  C_18 
REMARK    5  A    between atoms: C_24  and  C_25 
ROOT
HETATM    1  C   UNL     1       7.734  29.941  58.170  1.00  0.00     0.148 A 
HETATM    2  N   UNL     1       8.246  29.818  59.417  1.00  0.00    -0.165 NA
HETATM    3  N   UNL     1       7.698  30.853  60.082  1.00  0.00    -0.240 N 
HETATM    4  C   UNL     1       6.839  31.606  59.330  1.00  0.00     0.123 A 
HETATM    5  N   UNL     1       6.170  32.653  59.857  1.00  0.00    -0.364 N 
HETATM    6  C   UNL     1       6.504  33.166  61.188  1.00  0.00     0.143 C 
HETATM    7  C   UNL     1       6.878  31.982  62.101  1.00  0.00     0.068 C 
HETATM    8  C   UNL     1       7.990  31.114  61.480  1.00  0.00     0.221 C 
HETATM    9  C   UNL     1       6.843  31.046  58.081  1.00  0.00     0.089 A 
HETATM   10  H   UNL     1       5.720  33.331  59.242  1.00  0.00     0.162 HD
ENDROOT
BRANCH   1  11
HETATM   11  C   UNL     1       8.094  29.022  57.075  1.00  0.00     0.276 C 
HETATM   12  N   UNL     1       7.372  27.845  57.124  1.00  0.00    -0.322 N 
HETATM   13  H   UNL     1       6.712  27.806  57.898  1.00  0.00     0.169 HD
HETATM   14  O   UNL     1       8.957  29.317  56.255  1.00  0.00    -0.266 OA
BRANCH  12  15
HETATM   15  C   UNL     1       7.485  26.718  56.290  1.00  0.00     0.037 A 
HETATM   16  C   UNL     1       7.015  26.672  54.977  1.00  0.00     0.059 A 
HETATM   17  C   UNL     1       7.187  25.535  54.160  1.00  0.00     0.042 A 
HETATM   18  C   UNL     1       7.777  24.385  54.708  1.00  0.00    -0.035 A 
HETATM   19  C   UNL     1       7.899  23.062  54.006  1.00  0.00     0.050 C 
HETATM   20  C   UNL     1       8.262  24.445  56.029  1.00  0.00     0.011 A 
HETATM   21  C   UNL     1       8.119  25.593  56.810  1.00  0.00     0.030 A 
BRANCH  17  22
HETATM   22  N   UNL     1       6.682  25.676  52.844  1.00  0.00    -0.327 N 
HETATM   23  C   UNL     1       5.412  25.388  52.379  1.00  0.00     0.218 C 
HETATM   24  C   UNL     1       5.255  25.731  50.918  1.00  0.00     0.117 C 
HETATM   25  O   UNL     1       4.483  24.901  53.009  1.00  0.00    -0.274 OA
HETATM   26  H   UNL     1       7.390  25.753  52.123  1.00  0.00     0.169 HD
ENDBRANCH  17  22
ENDBRANCH  12  15
ENDBRANCH   1  11
BRANCH   8  27
HETATM   27  C   UNL     1       9.354  31.758  61.605  1.00  0.00     0.409 C 
HETATM   28  F   UNL     1       9.753  32.358  60.463  1.00  0.00    -0.169 F 
HETATM   29  F   UNL     1       9.420  32.671  62.596  1.00  0.00    -0.169 F 
HETATM   30  F   UNL     1      10.287  30.810  61.885  1.00  0.00    -0.169 F 
ENDBRANCH   8  27
BRANCH   6  31
HETATM   31  C   UNL     1       5.387  33.951  61.802  1.00  0.00     0.075 A 
HETATM   32  O   UNL     1       4.331  34.246  60.989  1.00  0.00    -0.325 OA
HETATM   33  C   UNL     1       3.433  34.936  61.740  1.00  0.00     0.142 A 
HETATM   34  C   UNL     1       3.900  35.096  63.023  1.00  0.00     0.027 A 
HETATM   35  C   UNL     1       5.165  34.462  63.065  1.00  0.00     0.037 A 
ENDBRANCH   6  31
TORSDOF 5
ENDMDL
MODEL 6
REMARK VINA RESULT:      -9.5      4.608     11.590
REMARK  5 active torsions:
REMARK  status: ('A' for Active; 'I' for Inactive)
REMARK    1  A    between atoms: C_3  and  N_4 
REMARK       I    between atoms: N_4  and  C_5 
REMARK    2  A    between atoms: C_9  and  N_10 
REMARK       I    between atoms: N_10  and  C_11 
REMARK    3  A    between atoms: C_11  and  C_12 
REMARK    4  A    between atoms: C_17  and  C_18 
REMARK    5  A    between atoms: C_24  and  C_25 
ROOT
HETATM    1  C   UNL     1       6.488  33.700  63.296  1.00  0.00     0.148 A 
HETATM    2  N   UNL     1       5.552  34.615  63.641  1.00  0.00    -0.165 NA
HETATM    3  N   UNL     1       5.677  34.700  64.979  1.00  0.00    -0.240 N 
HETATM    4  C   UNL     1       6.666  33.910  65.497  1.00  0.00     0.123 A 
HETATM    5  N   UNL     1       6.954  33.910  66.816  1.00  0.00    -0.364 N 
HETATM    6  C   UNL     1       6.075  34.581  67.777  1.00  0.00     0.143 C 
HETATM    7  C   UNL     1       5.517  35.865  67.133  1.00  0.00     0.068 C 
HETATM    8  C   UNL     1       4.839  35.575  65.779  1.00  0.00     0.221 C 
HETATM    9  C   UNL     1       7.209  33.242  64.433  1.00  0.00     0.089 A 
HETATM   10  H   UNL     1       7.523  33.164  67.213  1.00  0.00     0.162 HD
ENDROOT
BRANCH   1  11
HETATM   11  C   UNL     1       6.687  33.262  61.903  1.00  0.00     0.276 C 
HETATM   12  N   UNL     1       7.772  32.416  61.773  1.00  0.00    -0.322 N 
HETATM   13  H   UNL     1       8.249  32.231  62.653  1.00  0.00     0.169 HD
HETATM   14  O   UNL     1       5.952  33.652  61.002  1.00  0.00    -0.266 OA
BRANCH  12  15
HETATM   15  C   UNL     1       8.301  31.851  60.598  1.00  0.00     0.037 A 
HETATM   16  C   UNL     1       7.574  31.030  59.735  1.00  0.00     0.059 A 
HETATM   17  C   UNL     1       8.130  30.518  58.544  1.00  0.00     0.042 A 
HETATM   18  C   UNL     1       9.480  30.776  58.257  1.00  0.00    -0.035 A 
HETATM   19  C   UNL     1      10.243  30.186  57.104  1.00  0.00     0.050 C 
HETATM   20  C   UNL     1      10.202  31.618  59.126  1.00  0.00     0.011 A 
HETATM   21  C   UNL     1       9.622  32.148  60.280  1.00  0.00     0.030 A 
BRANCH  17  22
HETATM   22  N   UNL     1       7.240  29.735  57.769  1.00  0.00    -0.327 N 
HETATM   23  C   UNL     1       7.157  28.358  57.693  1.00  0.00     0.218 C 
HETATM   24  C   UNL     1       6.032  27.909  56.792  1.00  0.00     0.117 C 
HETATM   25  O   UNL     1       7.878  27.538  58.245  1.00  0.00    -0.274 OA
HETATM   26  H   UNL     1       6.793  30.230  57.006  1.00  0.00     0.169 HD
ENDBRANCH  17  22
ENDBRANCH  12  15
ENDBRANCH   1  11
BRANCH   8  27
HETATM   27  C   UNL     1       3.468  34.957  65.947  1.00  0.00     0.409 C 
HETATM   28  F   UNL     1       2.745  34.978  64.806  1.00  0.00    -0.169 F 
HETATM   29  F   UNL     1       3.512  33.683  66.386  1.00  0.00    -0.169 F 
HETATM   30  F   UNL     1       2.755  35.662  66.864  1.00  0.00    -0.169 F 
ENDBRANCH   8  27
BRANCH   6  31
HETATM   31  C   UNL     1       6.769  34.913  69.061  1.00  0.00     0.075 A 
HETATM   32  O   UNL     1       5.973  35.109  70.152  1.00  0.00    -0.325 OA
HETATM   33  C   UNL     1       6.795  35.375  71.200  1.00  0.00     0.142 A 
HETATM   34  C   UNL     1       8.110  35.360  70.798  1.00  0.00     0.027 A 
HETATM   35  C   UNL     1       8.095  35.065  69.414  1.00  0.00     0.037 A 
ENDBRANCH   6  31
TORSDOF 5
ENDMDL
MODEL 7
REMARK VINA RESULT:      -9.3      3.079     10.363
REMARK  5 active torsions:
REMARK  status: ('A' for Active; 'I' for Inactive)
REMARK    1  A    between atoms: C_3  and  N_4 
REMARK       I    between atoms: N_4  and  C_5 
REMARK    2  A    between atoms: C_9  and  N_10 
REMARK       I    between atoms: N_10  and  C_11 
REMARK    3  A    between atoms: C_11  and  C_12 
REMARK    4  A    between atoms: C_17  and  C_18 
REMARK    5  A    between atoms: C_24  and  C_25 
ROOT
HETATM    1  C   UNL     1       6.672  32.197  60.620  1.00  0.00     0.148 A 
HETATM    2  N   UNL     1       5.668  33.105  60.608  1.00  0.00    -0.165 NA
HETATM    3  N   UNL     1       5.430  33.324  61.915  1.00  0.00    -0.240 N 
HETATM    4  C   UNL     1       6.253  32.627  62.755  1.00  0.00     0.123 A 
HETATM    5  N   UNL     1       6.177  32.767  64.096  1.00  0.00    -0.364 N 
HETATM    6  C   UNL     1       5.066  33.494  64.715  1.00  0.00     0.143 C 
HETATM    7  C   UNL     1       4.687  34.687  63.815  1.00  0.00     0.068 C 
HETATM    8  C   UNL     1       4.399  34.241  62.369  1.00  0.00     0.221 C 
HETATM    9  C   UNL     1       7.067  31.880  61.949  1.00  0.00     0.089 A 
HETATM   10  H   UNL     1       6.628  32.085  64.705  1.00  0.00     0.162 HD
ENDROOT
BRANCH   1  11
HETATM   11  C   UNL     1       7.241  31.633  59.383  1.00  0.00     0.276 C 
HETATM   12  N   UNL     1       6.495  30.574  58.902  1.00  0.00    -0.322 N 
HETATM   13  H   UNL     1       5.679  30.361  59.472  1.00  0.00     0.169 HD
HETATM   14  O   UNL     1       8.271  32.084  58.894  1.00  0.00    -0.266 OA
BRANCH  12  15
HETATM   15  C   UNL     1       6.760  29.757  57.788  1.00  0.00     0.037 A 
HETATM   16  C   UNL     1       7.481  28.564  57.853  1.00  0.00     0.059 A 
HETATM   17  C   UNL     1       7.688  27.752  56.718  1.00  0.00     0.042 A 
HETATM   18  C   UNL     1       7.223  28.195  55.470  1.00  0.00    -0.035 A 
HETATM   19  C   UNL     1       7.489  27.509  54.159  1.00  0.00     0.050 C 
HETATM   20  C   UNL     1       6.483  29.393  55.415  1.00  0.00     0.011 A 
HETATM   21  C   UNL     1       6.254  30.164  56.557  1.00  0.00     0.030 A 
BRANCH  17  22
HETATM   22  N   UNL     1       8.409  26.560  56.973  1.00  0.00    -0.327 N 
HETATM   23  C   UNL     1       7.921  25.272  57.084  1.00  0.00     0.218 C 
HETATM   24  C   UNL     1       9.025  24.267  57.306  1.00  0.00     0.117 C 
HETATM   25  O   UNL     1       6.752  24.913  57.037  1.00  0.00    -0.274 OA
HETATM   26  H   UNL     1       9.333  26.698  57.364  1.00  0.00     0.169 HD
ENDBRANCH  17  22
ENDBRANCH  12  15
ENDBRANCH   1  11
BRANCH   8  27
HETATM   27  C   UNL     1       3.040  33.591  62.231  1.00  0.00     0.409 C 
HETATM   28  F   UNL     1       2.202  33.919  63.240  1.00  0.00    -0.169 F 
HETATM   29  F   UNL     1       2.424  33.891  61.069  1.00  0.00    -0.169 F 
HETATM   30  F   UNL     1       3.169  32.239  62.267  1.00  0.00    -0.169 F 
ENDBRANCH   8  27
BRANCH   6  31
HETATM   31  C   UNL     1       5.388  33.976  66.095  1.00  0.00     0.075 A 
HETATM   32  O   UNL     1       6.700  33.925  66.468  1.00  0.00    -0.325 OA
HETATM   33  C   UNL     1       6.773  34.421  67.731  1.00  0.00     0.142 A 
HETATM   34  C   UNL     1       5.525  34.784  68.179  1.00  0.00     0.027 A 
HETATM   35  C   UNL     1       4.627  34.495  67.124  1.00  0.00     0.037 A 
ENDBRANCH   6  31
TORSDOF 5
ENDMDL
MODEL 8
REMARK VINA RESULT:      -9.3      2.376      3.635
REMARK  5 active torsions:
REMARK  status: ('A' for Active; 'I' for Inactive)
REMARK    1  A    between atoms: C_3  and  N_4 
REMARK       I    between atoms: N_4  and  C_5 
REMARK    2  A    between atoms: C_9  and  N_10 
REMARK       I    between atoms: N_10  and  C_11 
REMARK    3  A    between atoms: C_11  and  C_12 
REMARK    4  A    between atoms: C_17  and  C_18 
REMARK    5  A    between atoms: C_24  and  C_25 
ROOT
HETATM    1  C   UNL     1       7.300  27.883  57.116  1.00  0.00     0.148 A 
HETATM    2  N   UNL     1       6.526  27.833  56.006  1.00  0.00    -0.165 NA
HETATM    3  N   UNL     1       6.830  26.637  55.469  1.00  0.00    -0.240 N 
HETATM    4  C   UNL     1       7.731  25.911  56.197  1.00  0.00     0.123 A 
HETATM    5  N   UNL     1       8.109  24.671  55.822  1.00  0.00    -0.364 N 
HETATM    6  C   UNL     1       7.747  24.140  54.506  1.00  0.00     0.143 C 
HETATM    7  C   UNL     1       6.334  24.635  54.139  1.00  0.00     0.068 C 
HETATM    8  C   UNL     1       6.225  26.169  54.234  1.00  0.00     0.221 C 
HETATM    9  C   UNL     1       8.063  26.693  57.270  1.00  0.00     0.089 A 
HETATM   10  H   UNL     1       8.936  24.243  56.238  1.00  0.00     0.162 HD
ENDROOT
BRANCH   1  11
HETATM   11  C   UNL     1       7.318  29.053  58.013  1.00  0.00     0.276 C 
HETATM   12  N   UNL     1       6.152  29.790  57.931  1.00  0.00    -0.322 N 
HETATM   13  H   UNL     1       5.475  29.406  57.275  1.00  0.00     0.169 HD
HETATM   14  O   UNL     1       8.293  29.301  58.714  1.00  0.00    -0.266 OA
BRANCH  12  15
HETATM   15  C   UNL     1       5.834  30.993  58.586  1.00  0.00     0.037 A 
HETATM   16  C   UNL     1       6.443  31.420  59.768  1.00  0.00     0.059 A 
HETATM   17  C   UNL     1       6.124  32.655  60.370  1.00  0.00     0.042 A 
HETATM   18  C   UNL     1       5.107  33.444  59.809  1.00  0.00    -0.035 A 
HETATM   19  C   UNL     1       4.566  34.709  60.414  1.00  0.00     0.050 C 
HETATM   20  C   UNL     1       4.508  33.013  58.609  1.00  0.00     0.011 A 
HETATM   21  C   UNL     1       4.865  31.806  58.005  1.00  0.00     0.030 A 
BRANCH  17  22
HETATM   22  N   UNL     1       6.864  32.944  61.542  1.00  0.00    -0.327 N 
HETATM   23  C   UNL     1       6.588  32.568  62.843  1.00  0.00     0.218 C 
HETATM   24  C   UNL     1       7.656  33.031  63.803  1.00  0.00     0.117 C 
HETATM   25  O   UNL     1       5.612  31.950  63.247  1.00  0.00    -0.274 OA
HETATM   26  H   UNL     1       7.517  33.714  61.453  1.00  0.00     0.169 HD
ENDBRANCH  17  22
ENDBRANCH  12  15
ENDBRANCH   1  11
BRANCH   8  27
HETATM   27  C   UNL     1       6.870  26.861  53.054  1.00  0.00     0.409 C 
HETATM   28  F   UNL     1       6.215  27.985  52.688  1.00  0.00    -0.169 F 
HETATM   29  F   UNL     1       8.161  27.188  53.272  1.00  0.00    -0.169 F 
HETATM   30  F   UNL     1       6.853  26.040  51.972  1.00  0.00    -0.169 F 
ENDBRANCH   8  27
BRANCH   6  31
HETATM   31  C   UNL     1       7.795  22.645  54.452  1.00  0.00     0.075 A 
HETATM   32  O   UNL     1       7.813  22.079  53.211  1.00  0.00    -0.325 OA
HETATM   33  C   UNL     1       7.877  20.734  53.388  1.00  0.00     0.142 A 
HETATM   34  C   UNL     1       7.893  20.425  54.728  1.00  0.00     0.027 A 
HETATM   35  C   UNL     1       7.837  21.659  55.418  1.00  0.00     0.037 A 
ENDBRANCH   6  31
TORSDOF 5
ENDMDL
MODEL 9
REMARK VINA RESULT:      -9.2      3.067      5.135
REMARK  5 active torsions:
REMARK  status: ('A' for Active; 'I' for Inactive)
REMARK    1  A    between atoms: C_3  and  N_4 
REMARK       I    between atoms: N_4  and  C_5 
REMARK    2  A    between atoms: C_9  and  N_10 
REMARK       I    between atoms: N_10  and  C_11 
REMARK    3  A    between atoms: C_11  and  C_12 
REMARK    4  A    between atoms: C_17  and  C_18 
REMARK    5  A    between atoms: C_24  and  C_25 
ROOT
HETATM    1  C   UNL     1       5.598  27.097  55.542  1.00  0.00     0.148 A 
HETATM    2  N   UNL     1       5.419  26.623  54.287  1.00  0.00    -0.165 NA
HETATM    3  N   UNL     1       6.200  25.527  54.253  1.00  0.00    -0.240 N 
HETATM    4  C   UNL     1       6.840  25.263  55.432  1.00  0.00     0.123 A 
HETATM    5  N   UNL     1       7.626  24.176  55.583  1.00  0.00    -0.364 N 
HETATM    6  C   UNL     1       8.008  23.359  54.428  1.00  0.00     0.143 C 
HETATM    7  C   UNL     1       6.821  23.294  53.447  1.00  0.00     0.068 C 
HETATM    8  C   UNL     1       6.321  24.701  53.065  1.00  0.00     0.221 C 
HETATM    9  C   UNL     1       6.477  26.266  56.290  1.00  0.00     0.089 A 
HETATM   10  H   UNL     1       8.266  24.116  56.374  1.00  0.00     0.162 HD
ENDROOT
BRANCH   1  11
HETATM   11  C   UNL     1       4.947  28.330  56.020  1.00  0.00     0.276 C 
HETATM   12  N   UNL     1       5.863  29.319  56.324  1.00  0.00    -0.322 N 
HETATM   13  H   UNL     1       6.828  29.039  56.166  1.00  0.00     0.169 HD
HETATM   14  O   UNL     1       3.728  28.403  56.130  1.00  0.00    -0.266 OA
BRANCH  12  15
HETATM   15  C   UNL     1       5.620  30.596  56.860  1.00  0.00     0.037 A 
HETATM   16  C   UNL     1       5.958  30.971  58.162  1.00  0.00     0.059 A 
HETATM   17  C   UNL     1       5.734  32.277  58.647  1.00  0.00     0.042 A 
HETATM   18  C   UNL     1       5.081  33.206  57.822  1.00  0.00    -0.035 A 
HETATM   19  C   UNL     1       4.653  34.583  58.248  1.00  0.00     0.050 C 
HETATM   20  C   UNL     1       4.757  32.825  56.506  1.00  0.00     0.011 A 
HETATM   21  C   UNL     1       5.022  31.539  56.030  1.00  0.00     0.030 A 
BRANCH  17  22
HETATM   22  N   UNL     1       6.171  32.491  59.977  1.00  0.00    -0.327 N 
HETATM   23  C   UNL     1       7.459  32.702  60.431  1.00  0.00     0.218 C 
HETATM   24  C   UNL     1       7.499  32.946  61.920  1.00  0.00     0.117 C 
HETATM   25  O   UNL     1       8.491  32.692  59.773  1.00  0.00    -0.274 OA
HETATM   26  H   UNL     1       5.510  32.210  60.691  1.00  0.00     0.169 HD
ENDBRANCH  17  22
ENDBRANCH  12  15
ENDBRANCH   1  11
BRANCH   8  27
HETATM   27  C   UNL     1       7.229  25.377  52.062  1.00  0.00     0.409 C 
HETATM   28  F   UNL     1       6.556  26.187  51.215  1.00  0.00    -0.169 F 
HETATM   29  F   UNL     1       8.208  26.105  52.639  1.00  0.00    -0.169 F 
HETATM   30  F   UNL     1       7.841  24.442  51.290  1.00  0.00    -0.169 F 
ENDBRANCH   8  27
BRANCH   6  31
HETATM   31  C   UNL     1       8.429  21.975  54.814  1.00  0.00     0.075 A 
HETATM   32  O   UNL     1       8.746  21.777  56.126  1.00  0.00    -0.325 OA
HETATM   33  C   UNL     1       9.076  20.466  56.262  1.00  0.00     0.142 A 
HETATM   34  C   UNL     1       8.983  19.819  55.052  1.00  0.00     0.027 A 
HETATM   35  C   UNL     1       8.567  20.792  54.113  1.00  0.00     0.037 A 
ENDBRANCH   6  31
TORSDOF 5
ENDMDL
MODEL 10
REMARK VINA RESULT:      -9.1      6.650     10.667
REMARK  5 active torsions:
REMARK  status: ('A' for Active; 'I' for Inactive)
REMARK    1  A    between atoms: C_3  and  N_4 
REMARK       I    between atoms: N_4  and  C_5 
REMARK    2  A    between atoms: C_9  and  N_10 
REMARK       I    between atoms: N_10  and  C_11 
REMARK    3  A    between atoms: C_11  and  C_12 
REMARK    4  A    between atoms: C_17  and  C_18 
REMARK    5  A    between atoms: C_24  and  C_25 
ROOT
HETATM    1  C   UNL     1       5.340  26.789  52.894  1.00  0.00     0.148 A 
HETATM    2  N   UNL     1       6.077  27.197  53.954  1.00  0.00    -0.165 NA
HETATM    3  N   UNL     1       6.493  26.043  54.507  1.00  0.00    -0.240 N 
HETATM    4  C   UNL     1       6.085  24.924  53.834  1.00  0.00     0.123 A 
HETATM    5  N   UNL     1       6.454  23.687  54.230  1.00  0.00    -0.364 N 
HETATM    6  C   UNL     1       7.113  23.476  55.521  1.00  0.00     0.143 C 
HETATM    7  C   UNL     1       8.056  24.663  55.801  1.00  0.00     0.068 C 
HETATM    8  C   UNL     1       7.318  26.012  55.702  1.00  0.00     0.221 C 
HETATM    9  C   UNL     1       5.330  25.371  52.785  1.00  0.00     0.089 A 
HETATM   10  H   UNL     1       5.966  22.869  53.865  1.00  0.00     0.162 HD
ENDROOT
BRANCH   1  11
HETATM   11  C   UNL     1       4.650  27.737  52.001  1.00  0.00     0.276 C 
HETATM   12  N   UNL     1       4.949  27.513  50.671  1.00  0.00    -0.322 N 
HETATM   13  H   UNL     1       5.588  26.734  50.525  1.00  0.00     0.169 HD
HETATM   14  O   UNL     1       3.919  28.615  52.449  1.00  0.00    -0.266 OA
BRANCH  12  15
HETATM   15  C   UNL     1       4.530  28.248  49.547  1.00  0.00     0.037 A 
HETATM   16  C   UNL     1       3.497  27.848  48.697  1.00  0.00     0.059 A 
HETATM   17  C   UNL     1       3.080  28.637  47.605  1.00  0.00     0.042 A 
HETATM   18  C   UNL     1       3.775  29.822  47.316  1.00  0.00    -0.035 A 
HETATM   19  C   UNL     1       3.535  30.688  46.111  1.00  0.00     0.050 C 
HETATM   20  C   UNL     1       4.805  30.226  48.187  1.00  0.00     0.011 A 
HETATM   21  C   UNL     1       5.179  29.451  49.287  1.00  0.00     0.030 A 
BRANCH  17  22
HETATM   22  N   UNL     1       1.995  28.097  46.872  1.00  0.00    -0.327 N 
HETATM   23  C   UNL     1       0.716  28.601  46.739  1.00  0.00     0.218 C 
HETATM   24  C   UNL     1      -0.133  27.754  45.823  1.00  0.00     0.117 C 
HETATM   25  O   UNL     1       0.249  29.597  47.278  1.00  0.00    -0.274 OA
HETATM   26  H   UNL     1       2.091  27.117  46.632  1.00  0.00     0.169 HD
ENDBRANCH  17  22
ENDBRANCH  12  15
ENDBRANCH   1  11
BRANCH   8  27
HETATM   27  C   UNL     1       6.464  26.287  56.920  1.00  0.00     0.409 C 
HETATM   28  F   UNL     1       6.403  27.602  57.226  1.00  0.00    -0.169 F 
HETATM   29  F   UNL     1       5.200  25.833  56.795  1.00  0.00    -0.169 F 
HETATM   30  F   UNL     1       6.997  25.667  58.006  1.00  0.00    -0.169 F 
ENDBRANCH   8  27
BRANCH   6  31
HETATM   31  C   UNL     1       7.879  22.191  55.575  1.00  0.00     0.075 A 
HETATM   32  O   UNL     1       8.027  21.519  54.397  1.00  0.00    -0.325 OA
HETATM   33  C   UNL     1       8.759  20.406  54.664  1.00  0.00     0.142 A 
HETATM   34  C   UNL     1       9.079  20.349  56.000  1.00  0.00     0.027 A 
HETATM   35  C   UNL     1       8.509  21.500  56.592  1.00  0.00     0.037 A 
ENDBRANCH   6  31
TORSDOF 5
ENDMDL
