MODEL 1
REMARK VINA RESULT:      -9.5      0.000      0.000
REMARK  7 active torsions:
REMARK  status: ('A' for Active; 'I' for Inactive)
REMARK    1  A    between atoms: C_2  and  O_3 
REMARK    2  A    between atoms: O_3  and  C_4 
REMARK    3  A    between atoms: C_7  and  N_8 
REMARK    4  A    between atoms: C_9  and  O_10 
REMARK    5  A    between atoms: C_9  and  C_11 
REMARK       I    between atoms: C_11  and  N_12 
REMARK    6  A    between atoms: N_12  and  C_13 
REMARK    7  A    between atoms: C_13  and  C_14 
ROOT
HETATM    1  N   UNL     1       5.097  27.578  52.206  1.00  0.00    -0.254 N 
HETATM    2  C   UNL     1       5.251  26.447  53.139  1.00  0.00     0.256 C 
HETATM    3  C   UNL     1       5.447  26.900  54.569  1.00  0.00     0.034 A 
HETATM    4  C   UNL     1       6.053  28.135  54.775  1.00  0.00     0.048 A 
HETATM    5  N   UNL     1       6.367  28.914  53.665  1.00  0.00    -0.308 N 
HETATM    6  C   UNL     1       5.881  28.709  52.399  1.00  0.00     0.330 C 
HETATM    7  O   UNL     1       6.127  29.571  51.556  1.00  0.00    -0.246 OA
HETATM    8  C   UNL     1       5.131  26.106  55.681  1.00  0.00     0.015 A 
HETATM    9  C   UNL     1       5.414  26.556  56.972  1.00  0.00     0.001 A 
HETATM   10  C   UNL     1       6.031  27.792  57.160  1.00  0.00     0.002 A 
HETATM   11  C   UNL     1       6.361  28.582  56.059  1.00  0.00     0.030 A 
HETATM   12  H   UNL     1       6.815  29.814  53.792  1.00  0.00     0.170 HD
ENDROOT
BRANCH   2  13
HETATM   13  O   UNL     1       4.089  25.611  53.129  1.00  0.00    -0.359 OA
HETATM   14  H   UNL     1       4.338  24.840  53.676  1.00  0.00     0.213 HD
ENDBRANCH   2  13
BRANCH   2  15
HETATM   15  C   UNL     1       6.488  25.570  52.666  1.00  0.00     0.279 C 
HETATM   16  N   UNL     1       6.388  24.202  52.806  1.00  0.00    -0.352 N 
HETATM   17  H   UNL     1       5.528  23.790  53.146  1.00  0.00     0.162 HD
HETATM   18  O   UNL     1       7.501  26.103  52.201  1.00  0.00    -0.268 OA
BRANCH  16  19
HETATM   19  C   UNL     1       7.439  23.320  52.361  1.00  0.00     0.161 C 
BRANCH  19  20
HETATM   20  C   UNL     1       7.968  22.503  53.510  1.00  0.00    -0.040 A 
HETATM   21  C   UNL     1       8.068  21.107  53.401  1.00  0.00     0.012 A 
HETATM   22  C   UNL     1       8.529  20.346  54.477  1.00  0.00     0.043 A 
HETATM   23  C   UNL     1       8.882  20.979  55.663  1.00  0.00     0.116 A 
HETATM   24  F   UNL     1       9.323  20.248  56.695  1.00  0.00    -0.206 F 
HETATM   25  C   UNL     1       8.779  22.358  55.795  1.00  0.00     0.043 A 
HETATM   26  C   UNL     1       8.316  23.122  54.721  1.00  0.00     0.012 A 
ENDBRANCH  19  20
ENDBRANCH  16  19
ENDBRANCH   2  15
BRANCH   1  27
HETATM   27  C   UNL     1       4.478  27.345  50.936  1.00  0.00     0.043 A 
HETATM   28  C   UNL     1       4.891  26.310  50.090  1.00  0.00     0.032 A 
HETATM   29  C   UNL     1       4.271  26.103  48.849  1.00  0.00     0.039 A 
HETATM   30  C   UNL     1       3.237  26.940  48.433  1.00  0.00     0.068 A 
HETATM   31  C   UNL     1       2.848  27.996  49.253  1.00  0.00     0.039 A 
HETATM   32  C   UNL     1       3.461  28.198  50.492  1.00  0.00     0.032 A 
BRANCH  30  33
HETATM   33  O   UNL     1       2.550  26.852  47.256  1.00  0.00    -0.352 OA
BRANCH  33  34
HETATM   34  C   UNL     1       1.745  27.971  46.892  1.00  0.00     0.171 C 
HETATM   35  C   UNL     1       0.365  27.450  46.530  1.00  0.00     0.034 C 
ENDBRANCH  33  34
ENDBRANCH  30  33
ENDBRANCH   1  27
TORSDOF 7
ENDMDL
MODEL 2
REMARK VINA RESULT:      -9.4      4.580      8.562
REMARK  7 active torsions:
REMARK  status: ('A' for Active; 'I' for Inactive)
REMARK    1  A    between atoms: C_2  and  O_3 
REMARK    2  A    between atoms: O_3  and  C_4 
REMARK    3  A    between atoms: C_7  and  N_8 
REMARK    4  A    between atoms: C_9  and  O_10 
REMARK    5  A    between atoms: C_9  and  C_11 
REMARK       I    between atoms: C_11  and  N_12 
REMARK    6  A    between atoms: N_12  and  C_13 
REMARK    7  A    between atoms: C_13  and  C_14 
ROOT
HETATM    1  N   UNL     1       6.190  27.484  55.427  1.00  0.00    -0.254 N 
HETATM    2  C   UNL     1       5.806  28.481  56.443  1.00  0.00     0.256 C 
HETATM    3  C   UNL     1       4.765  29.453  55.934  1.00  0.00     0.034 A 
HETATM    4  C   UNL     1       4.748  29.723  54.570  1.00  0.00     0.048 A 
HETATM    5  N   UNL     1       5.628  29.027  53.746  1.00  0.00    -0.308 N 
HETATM    6  C   UNL     1       6.315  27.897  54.106  1.00  0.00     0.330 C 
HETATM    7  O   UNL     1       6.936  27.309  53.220  1.00  0.00    -0.246 OA
HETATM    8  C   UNL     1       3.885  30.151  56.774  1.00  0.00     0.015 A 
HETATM    9  C   UNL     1       3.003  31.094  56.244  1.00  0.00     0.001 A 
HETATM   10  C   UNL     1       3.007  31.359  54.874  1.00  0.00     0.002 A 
HETATM   11  C   UNL     1       3.887  30.679  54.034  1.00  0.00     0.030 A 
HETATM   12  H   UNL     1       5.638  29.213  52.749  1.00  0.00     0.170 HD
ENDROOT
BRANCH   2  13
HETATM   13  O   UNL     1       5.248  27.848  57.599  1.00  0.00    -0.359 OA
HETATM   14  H   UNL     1       5.914  27.988  58.300  1.00  0.00     0.213 HD
ENDBRANCH   2  13
BRANCH   2  15
HETATM   15  C   UNL     1       7.112  29.263  56.897  1.00  0.00     0.279 C 
HETATM   16  N   UNL     1       7.294  29.466  58.249  1.00  0.00    -0.352 N 
HETATM   17  H   UNL     1       6.637  29.073  58.912  1.00  0.00     0.162 HD
HETATM   18  O   UNL     1       7.923  29.679  56.064  1.00  0.00    -0.268 OA
BRANCH  16  19
HETATM   19  C   UNL     1       8.471  30.123  58.761  1.00  0.00     0.161 C 
BRANCH  19  20
HETATM   20  C   UNL     1       8.176  30.788  60.080  1.00  0.00    -0.040 A 
HETATM   21  C   UNL     1       7.179  31.772  60.171  1.00  0.00     0.012 A 
HETATM   22  C   UNL     1       6.927  32.411  61.386  1.00  0.00     0.043 A 
HETATM   23  C   UNL     1       7.675  32.072  62.507  1.00  0.00     0.116 A 
HETATM   24  F   UNL     1       7.433  32.687  63.673  1.00  0.00    -0.206 F 
HETATM   25  C   UNL     1       8.674  31.109  62.435  1.00  0.00     0.043 A 
HETATM   26  C   UNL     1       8.930  30.470  61.221  1.00  0.00     0.012 A 
ENDBRANCH  19  20
ENDBRANCH  16  19
ENDBRANCH   2  15
BRANCH   1  27
HETATM   27  C   UNL     1       6.802  26.262  55.856  1.00  0.00     0.043 A 
HETATM   28  C   UNL     1       7.953  26.251  56.652  1.00  0.00     0.032 A 
HETATM   29  C   UNL     1       8.537  25.042  57.057  1.00  0.00     0.039 A 
HETATM   30  C   UNL     1       7.983  23.827  56.659  1.00  0.00     0.068 A 
HETATM   31  C   UNL     1       6.861  23.832  55.833  1.00  0.00     0.039 A 
HETATM   32  C   UNL     1       6.276  25.036  55.435  1.00  0.00     0.032 A 
BRANCH  30  33
HETATM   33  O   UNL     1       8.447  22.583  56.980  1.00  0.00    -0.352 OA
BRANCH  33  34
HETATM   34  C   UNL     1       8.717  21.695  55.897  1.00  0.00     0.171 C 
HETATM   35  C   UNL     1       8.058  20.364  56.217  1.00  0.00     0.034 C 
ENDBRANCH  33  34
ENDBRANCH  30  33
ENDBRANCH   1  27
TORSDOF 7
ENDMDL
MODEL 3
REMARK VINA RESULT:      -9.3      4.827      8.166
REMARK  7 active torsions:
REMARK  status: ('A' for Active; 'I' for Inactive)
REMARK    1  A    between atoms: C_2  and  O_3 
REMARK    2  A    between atoms: O_3  and  C_4 
REMARK    3  A    between atoms: C_7  and  N_8 
REMARK    4  A    between atoms: C_9  and  O_10 
REMARK    5  A    between atoms: C_9  and  C_11 
REMARK       I    between atoms: C_11  and  N_12 
REMARK    6  A    between atoms: N_12  and  C_13 
REMARK    7  A    between atoms: C_13  and  C_14 
ROOT
HETATM    1  N   UNL     1       5.617  27.319  55.886  1.00  0.00    -0.254 N 
HETATM    2  C   UNL     1       6.858  27.416  55.097  1.00  0.00     0.256 C 
HETATM    3  C   UNL     1       7.071  26.213  54.206  1.00  0.00     0.034 A 
HETATM    4  C   UNL     1       6.539  24.998  54.625  1.00  0.00     0.048 A 
HETATM    5  N   UNL     1       5.775  24.976  55.788  1.00  0.00    -0.308 N 
HETATM    6  C   UNL     1       5.259  26.083  56.411  1.00  0.00     0.330 C 
HETATM    7  O   UNL     1       4.477  25.892  57.343  1.00  0.00    -0.246 OA
HETATM    8  C   UNL     1       7.846  26.245  53.037  1.00  0.00     0.015 A 
HETATM    9  C   UNL     1       8.068  25.078  52.305  1.00  0.00     0.001 A 
HETATM   10  C   UNL     1       7.533  23.867  52.745  1.00  0.00     0.002 A 
HETATM   11  C   UNL     1       6.774  23.823  53.913  1.00  0.00     0.030 A 
HETATM   12  H   UNL     1       5.382  24.100  56.116  1.00  0.00     0.170 HD
ENDROOT
BRANCH   2  13
HETATM   13  O   UNL     1       6.834  28.562  54.240  1.00  0.00    -0.359 OA
HETATM   14  H   UNL     1       7.775  28.800  54.125  1.00  0.00     0.213 HD
ENDBRANCH   2  13
BRANCH   2  15
HETATM   15  C   UNL     1       8.079  27.581  56.100  1.00  0.00     0.279 C 
HETATM   16  N   UNL     1       8.817  28.743  56.018  1.00  0.00    -0.352 N 
HETATM   17  H   UNL     1       8.538  29.475  55.376  1.00  0.00     0.162 HD
HETATM   18  O   UNL     1       8.356  26.692  56.911  1.00  0.00    -0.268 OA
BRANCH  16  19
HETATM   19  C   UNL     1       9.913  29.004  56.917  1.00  0.00     0.161 C 
BRANCH  19  20
HETATM   20  C   UNL     1       9.517  30.024  57.952  1.00  0.00    -0.040 A 
HETATM   21  C   UNL     1      10.221  31.234  58.062  1.00  0.00     0.012 A 
HETATM   22  C   UNL     1       9.874  32.165  59.043  1.00  0.00     0.043 A 
HETATM   23  C   UNL     1       8.831  31.885  59.916  1.00  0.00     0.116 A 
HETATM   24  F   UNL     1       8.500  32.780  60.857  1.00  0.00    -0.206 F 
HETATM   25  C   UNL     1       8.130  30.689  59.832  1.00  0.00     0.043 A 
HETATM   26  C   UNL     1       8.475  29.754  58.854  1.00  0.00     0.012 A 
ENDBRANCH  19  20
ENDBRANCH  16  19
ENDBRANCH   2  15
BRANCH   1  27
HETATM   27  C   UNL     1       5.045  28.517  56.424  1.00  0.00     0.043 A 
HETATM   28  C   UNL     1       5.601  29.170  57.530  1.00  0.00     0.032 A 
HETATM   29  C   UNL     1       5.022  30.341  58.041  1.00  0.00     0.039 A 
HETATM   30  C   UNL     1       3.870  30.866  57.459  1.00  0.00     0.068 A 
HETATM   31  C   UNL     1       3.290  30.198  56.383  1.00  0.00     0.039 A 
HETATM   32  C   UNL     1       3.870  29.036  55.870  1.00  0.00     0.032 A 
BRANCH  30  33
HETATM   33  O   UNL     1       3.207  31.993  57.854  1.00  0.00    -0.352 OA
BRANCH  33  34
HETATM   34  C   UNL     1       3.852  32.816  58.824  1.00  0.00     0.171 C 
HETATM   35  C   UNL     1       3.188  32.556  60.165  1.00  0.00     0.034 C 
ENDBRANCH  33  34
ENDBRANCH  30  33
ENDBRANCH   1  27
TORSDOF 7
ENDMDL
MODEL 4
REMARK VINA RESULT:      -9.2      3.614      7.638
REMARK  7 active torsions:
REMARK  status: ('A' for Active; 'I' for Inactive)
REMARK    1  A    between atoms: C_2  and  O_3 
REMARK    2  A    between atoms: O_3  and  C_4 
REMARK    3  A    between atoms: C_7  and  N_8 
REMARK    4  A    between atoms: C_9  and  O_10 
REMARK    5  A    between atoms: C_9  and  C_11 
REMARK       I    between atoms: C_11  and  N_12 
REMARK    6  A    between atoms: N_12  and  C_13 
REMARK    7  A    between atoms: C_13  and  C_14 
ROOT
HETATM    1  N   UNL     1       5.812  29.543  56.347  1.00  0.00    -0.254 N 
HETATM    2  C   UNL     1       6.418  28.609  55.381  1.00  0.00     0.256 C 
HETATM    3  C   UNL     1       5.650  28.546  54.079  1.00  0.00     0.034 A 
HETATM    4  C   UNL     1       4.284  28.801  54.124  1.00  0.00     0.048 A 
HETATM    5  N   UNL     1       3.720  29.179  55.339  1.00  0.00    -0.308 N 
HETATM    6  C   UNL     1       4.426  29.599  56.437  1.00  0.00     0.330 C 
HETATM    7  O   UNL     1       3.780  30.045  57.386  1.00  0.00    -0.246 OA
HETATM    8  C   UNL     1       6.227  28.161  52.860  1.00  0.00     0.015 A 
HETATM    9  C   UNL     1       5.441  28.046  51.712  1.00  0.00     0.001 A 
HETATM   10  C   UNL     1       4.071  28.297  51.778  1.00  0.00     0.002 A 
HETATM   11  C   UNL     1       3.486  28.667  52.989  1.00  0.00     0.030 A 
HETATM   12  H   UNL     1       2.724  29.363  55.397  1.00  0.00     0.170 HD
ENDROOT
BRANCH   2  13
HETATM   13  O   UNL     1       7.753  29.005  55.051  1.00  0.00    -0.359 OA
HETATM   14  H   UNL     1       7.642  29.690  54.363  1.00  0.00     0.213 HD
ENDBRANCH   2  13
BRANCH   2  15
HETATM   15  C   UNL     1       6.486  27.170  56.049  1.00  0.00     0.279 C 
HETATM   16  N   UNL     1       7.616  26.414  55.818  1.00  0.00    -0.352 N 
HETATM   17  H   UNL     1       8.385  26.804  55.287  1.00  0.00     0.162 HD
HETATM   18  O   UNL     1       5.553  26.747  56.739  1.00  0.00    -0.268 OA
BRANCH  16  19
HETATM   19  C   UNL     1       7.791  25.116  56.420  1.00  0.00     0.161 C 
BRANCH  19  20
HETATM   20  C   UNL     1       7.864  24.046  55.363  1.00  0.00    -0.040 A 
HETATM   21  C   UNL     1       7.872  24.392  54.002  1.00  0.00     0.012 A 
HETATM   22  C   UNL     1       7.908  23.400  53.021  1.00  0.00     0.043 A 
HETATM   23  C   UNL     1       7.930  22.063  53.399  1.00  0.00     0.116 A 
HETATM   24  F   UNL     1       7.964  21.112  52.456  1.00  0.00    -0.206 F 
HETATM   25  C   UNL     1       7.911  21.699  54.740  1.00  0.00     0.043 A 
HETATM   26  C   UNL     1       7.873  22.689  55.723  1.00  0.00     0.012 A 
ENDBRANCH  19  20
ENDBRANCH  16  19
ENDBRANCH   2  15
BRANCH   1  27
HETATM   27  C   UNL     1       6.619  30.050  57.416  1.00  0.00     0.043 A 
HETATM   28  C   UNL     1       7.588  29.264  58.049  1.00  0.00     0.032 A 
HETATM   29  C   UNL     1       8.364  29.782  59.096  1.00  0.00     0.039 A 
HETATM   30  C   UNL     1       8.171  31.091  59.532  1.00  0.00     0.068 A 
HETATM   31  C   UNL     1       7.181  31.866  58.932  1.00  0.00     0.039 A 
HETATM   32  C   UNL     1       6.412  31.352  57.885  1.00  0.00     0.032 A 
BRANCH  30  33
HETATM   33  O   UNL     1       8.854  31.718  60.535  1.00  0.00    -0.352 OA
BRANCH  33  34
HETATM   34  C   UNL     1       8.852  31.084  61.812  1.00  0.00     0.171 C 
HETATM   35  C   UNL     1       8.121  31.999  62.780  1.00  0.00     0.034 C 
ENDBRANCH  33  34
ENDBRANCH  30  33
ENDBRANCH   1  27
TORSDOF 7
ENDMDL
MODEL 5
REMARK VINA RESULT:      -9.1      3.888      7.026
REMARK  7 active torsions:
REMARK  status: ('A' for Active; 'I' for Inactive)
REMARK    1  A    between atoms: C_2  and  O_3 
REMARK    2  A    between atoms: O_3  and  C_4 
REMARK    3  A    between atoms: C_7  and  N_8 
REMARK    4  A    between atoms: C_9  and  O_10 
REMARK    5  A    between atoms: C_9  and  C_11 
REMARK       I    between atoms: C_11  and  N_12 
REMARK    6  A    between atoms: N_12  and  C_13 
REMARK    7  A    between atoms: C_13  and  C_14 
ROOT
HETATM    1  N   UNL     1       5.761  27.341  53.743  1.00  0.00    -0.254 N 
HETATM    2  C   UNL     1       5.752  27.863  55.122  1.00  0.00     0.256 C 
HETATM    3  C   UNL     1       4.758  28.988  55.306  1.00  0.00     0.034 A 
HETATM    4  C   UNL     1       4.467  29.778  54.200  1.00  0.00     0.048 A 
HETATM    5  N   UNL     1       5.036  29.441  52.976  1.00  0.00    -0.308 N 
HETATM    6  C   UNL     1       5.635  28.241  52.691  1.00  0.00     0.330 C 
HETATM    7  O   UNL     1       5.955  28.034  51.521  1.00  0.00    -0.246 OA
HETATM    8  C   UNL     1       4.192  29.322  56.545  1.00  0.00     0.015 A 
HETATM    9  C   UNL     1       3.343  30.424  56.659  1.00  0.00     0.001 A 
HETATM   10  C   UNL     1       3.069  31.211  55.541  1.00  0.00     0.002 A 
HETATM   11  C   UNL     1       3.639  30.895  54.308  1.00  0.00     0.030 A 
HETATM   12  H   UNL     1       4.843  30.007  52.157  1.00  0.00     0.170 HD
ENDROOT
BRANCH   2  13
HETATM   13  O   UNL     1       5.394  26.841  56.057  1.00  0.00    -0.359 OA
HETATM   14  H   UNL     1       5.116  27.328  56.856  1.00  0.00     0.213 HD
ENDBRANCH   2  13
BRANCH   2  15
HETATM   15  C   UNL     1       7.218  28.361  55.479  1.00  0.00     0.279 C 
HETATM   16  N   UNL     1       7.714  28.035  56.724  1.00  0.00    -0.352 N 
HETATM   17  H   UNL     1       7.171  27.451  57.348  1.00  0.00     0.162 HD
HETATM   18  O   UNL     1       7.877  29.023  54.671  1.00  0.00    -0.268 OA
BRANCH  16  19
HETATM   19  C   UNL     1       9.051  28.400  57.121  1.00  0.00     0.161 C 
BRANCH  19  20
HETATM   20  C   UNL     1       9.027  29.617  58.008  1.00  0.00    -0.040 A 
HETATM   21  C   UNL     1       7.923  29.869  58.838  1.00  0.00     0.012 A 
HETATM   22  C   UNL     1       7.886  31.013  59.636  1.00  0.00     0.043 A 
HETATM   23  C   UNL     1       8.949  31.908  59.600  1.00  0.00     0.116 A 
HETATM   24  F   UNL     1       8.912  33.007  60.366  1.00  0.00    -0.206 F 
HETATM   25  C   UNL     1      10.045  31.683  58.778  1.00  0.00     0.043 A 
HETATM   26  C   UNL     1      10.084  30.541  57.976  1.00  0.00     0.012 A 
ENDBRANCH  19  20
ENDBRANCH  16  19
ENDBRANCH   2  15
BRANCH   1  27
HETATM   27  C   UNL     1       6.290  26.032  53.504  1.00  0.00     0.043 A 
HETATM   28  C   UNL     1       7.663  25.767  53.563  1.00  0.00     0.032 A 
HETATM   29  C   UNL     1       8.158  24.476  53.323  1.00  0.00     0.039 A 
HETATM   30  C   UNL     1       7.285  23.437  53.007  1.00  0.00     0.068 A 
HETATM   31  C   UNL     1       5.922  23.704  52.909  1.00  0.00     0.039 A 
HETATM   32  C   UNL     1       5.428  24.987  53.154  1.00  0.00     0.032 A 
BRANCH  30  33
HETATM   33  O   UNL     1       7.631  22.141  52.752  1.00  0.00    -0.352 OA
BRANCH  33  34
HETATM   34  C   UNL     1       8.661  21.576  53.561  1.00  0.00     0.171 C 
HETATM   35  C   UNL     1       7.992  20.788  54.675  1.00  0.00     0.034 C 
ENDBRANCH  33  34
ENDBRANCH  30  33
ENDBRANCH   1  27
TORSDOF 7
ENDMDL
MODEL 6
REMARK VINA RESULT:      -9.0      1.797      2.271
REMARK  7 active torsions:
REMARK  status: ('A' for Active; 'I' for Inactive)
REMARK    1  A    between atoms: C_2  and  O_3 
REMARK    2  A    between atoms: O_3  and  C_4 
REMARK    3  A    between atoms: C_7  and  N_8 
REMARK    4  A    between atoms: C_9  and  O_10 
REMARK    5  A    between atoms: C_9  and  C_11 
REMARK       I    between atoms: C_11  and  N_12 
REMARK    6  A    between atoms: N_12  and  C_13 
REMARK    7  A    between atoms: C_13  and  C_14 
ROOT
HETATM    1  N   UNL     1       3.787  29.349  51.969  1.00  0.00    -0.254 N 
HETATM    2  C   UNL     1       4.183  28.442  53.062  1.00  0.00     0.256 C 
HETATM    3  C   UNL     1       4.261  29.146  54.398  1.00  0.00     0.034 A 
HETATM    4  C   UNL     1       4.573  30.502  54.394  1.00  0.00     0.048 A 
HETATM    5  N   UNL     1       4.712  31.147  53.168  1.00  0.00    -0.308 N 
HETATM    6  C   UNL     1       4.295  30.643  51.963  1.00  0.00     0.330 C 
HETATM    7  O   UNL     1       4.348  31.395  50.990  1.00  0.00    -0.246 OA
HETATM    8  C   UNL     1       4.123  28.487  55.627  1.00  0.00     0.015 A 
HETATM    9  C   UNL     1       4.288  29.185  56.825  1.00  0.00     0.001 A 
HETATM   10  C   UNL     1       4.609  30.541  56.802  1.00  0.00     0.002 A 
HETATM   11  C   UNL     1       4.762  31.203  55.584  1.00  0.00     0.030 A 
HETATM   12  H   UNL     1       4.946  32.133  53.141  1.00  0.00     0.170 HD
ENDROOT
BRANCH   2  13
HETATM   13  O   UNL     1       3.239  27.377  53.213  1.00  0.00    -0.359 OA
HETATM   14  H   UNL     1       3.754  26.567  53.030  1.00  0.00     0.213 HD
ENDBRANCH   2  13
BRANCH   2  15
HETATM   15  C   UNL     1       5.590  27.800  52.695  1.00  0.00     0.279 C 
HETATM   16  N   UNL     1       5.646  26.429  52.555  1.00  0.00    -0.352 N 
HETATM   17  H   UNL     1       4.799  25.878  52.630  1.00  0.00     0.162 HD
HETATM   18  O   UNL     1       6.592  28.508  52.554  1.00  0.00    -0.268 OA
BRANCH  16  19
HETATM   19  C   UNL     1       6.865  25.760  52.177  1.00  0.00     0.161 C 
BRANCH  19  20
HETATM   20  C   UNL     1       7.168  24.632  53.129  1.00  0.00    -0.040 A 
HETATM   21  C   UNL     1       7.823  23.476  52.675  1.00  0.00     0.012 A 
HETATM   22  C   UNL     1       8.075  22.418  53.549  1.00  0.00     0.043 A 
HETATM   23  C   UNL     1       7.667  22.511  54.874  1.00  0.00     0.116 A 
HETATM   24  F   UNL     1       7.909  21.495  55.712  1.00  0.00    -0.206 F 
HETATM   25  C   UNL     1       7.007  23.641  55.341  1.00  0.00     0.043 A 
HETATM   26  C   UNL     1       6.751  24.701  54.468  1.00  0.00     0.012 A 
ENDBRANCH  19  20
ENDBRANCH  16  19
ENDBRANCH   2  15
BRANCH   1  27
HETATM   27  C   UNL     1       3.246  28.788  50.768  1.00  0.00     0.043 A 
HETATM   28  C   UNL     1       4.042  28.086  49.856  1.00  0.00     0.032 A 
HETATM   29  C   UNL     1       3.490  27.547  48.684  1.00  0.00     0.039 A 
HETATM   30  C   UNL     1       2.135  27.717  48.404  1.00  0.00     0.068 A 
HETATM   31  C   UNL     1       1.347  28.449  49.288  1.00  0.00     0.039 A 
HETATM   32  C   UNL     1       1.895  28.980  50.458  1.00  0.00     0.032 A 
BRANCH  30  33
HETATM   33  O   UNL     1       1.472  27.247  47.306  1.00  0.00    -0.352 OA
BRANCH  33  34
HETATM   34  C   UNL     1       0.837  28.214  46.472  1.00  0.00     0.171 C 
HETATM   35  C   UNL     1      -0.526  27.666  46.084  1.00  0.00     0.034 C 
ENDBRANCH  33  34
ENDBRANCH  30  33
ENDBRANCH   1  27
TORSDOF 7
ENDMDL
MODEL 7
REMARK VINA RESULT:      -8.9      2.103      3.250
REMARK  7 active torsions:
REMARK  status: ('A' for Active; 'I' for Inactive)
REMARK    1  A    between atoms: C_2  and  O_3 
REMARK    2  A    between atoms: O_3  and  C_4 
REMARK    3  A    between atoms: C_7  and  N_8 
REMARK    4  A    between atoms: C_9  and  O_10 
REMARK    5  A    between atoms: C_9  and  C_11 
REMARK       I    between atoms: C_11  and  N_12 
REMARK    6  A    between atoms: N_12  and  C_13 
REMARK    7  A    between atoms: C_13  and  C_14 
ROOT
HETATM    1  N   UNL     1       6.178  28.174  54.337  1.00  0.00    -0.254 N 
HETATM    2  C   UNL     1       5.306  28.131  55.524  1.00  0.00     0.256 C 
HETATM    3  C   UNL     1       5.610  29.241  56.505  1.00  0.00     0.034 A 
HETATM    4  C   UNL     1       6.913  29.726  56.545  1.00  0.00     0.048 A 
HETATM    5  N   UNL     1       7.835  29.225  55.631  1.00  0.00    -0.308 N 
HETATM    6  C   UNL     1       7.518  28.504  54.508  1.00  0.00     0.330 C 
HETATM    7  O   UNL     1       8.429  28.262  53.718  1.00  0.00    -0.246 OA
HETATM    8  C   UNL     1       4.674  29.737  57.424  1.00  0.00     0.015 A 
HETATM    9  C   UNL     1       5.046  30.707  58.356  1.00  0.00     0.001 A 
HETATM   10  C   UNL     1       6.360  31.175  58.388  1.00  0.00     0.002 A 
HETATM   11  C   UNL     1       7.301  30.678  57.487  1.00  0.00     0.030 A 
HETATM   12  H   UNL     1       8.793  29.558  55.647  1.00  0.00     0.170 HD
ENDROOT
BRANCH   2  13
HETATM   13  O   UNL     1       3.930  28.274  55.156  1.00  0.00    -0.359 OA
HETATM   14  H   UNL     1       3.947  28.848  54.366  1.00  0.00     0.213 HD
ENDBRANCH   2  13
BRANCH   2  15
HETATM   15  C   UNL     1       5.480  26.716  56.224  1.00  0.00     0.279 C 
HETATM   16  N   UNL     1       6.742  26.160  56.229  1.00  0.00    -0.352 N 
HETATM   17  H   UNL     1       7.524  26.677  55.847  1.00  0.00     0.162 HD
HETATM   18  O   UNL     1       4.514  26.138  56.732  1.00  0.00    -0.268 OA
BRANCH  16  19
HETATM   19  C   UNL     1       7.009  24.902  56.881  1.00  0.00     0.161 C 
BRANCH  19  20
HETATM   20  C   UNL     1       7.598  23.915  55.909  1.00  0.00    -0.040 A 
HETATM   21  C   UNL     1       8.847  23.325  56.164  1.00  0.00     0.012 A 
HETATM   22  C   UNL     1       9.407  22.434  55.248  1.00  0.00     0.043 A 
HETATM   23  C   UNL     1       8.725  22.138  54.074  1.00  0.00     0.116 A 
HETATM   24  F   UNL     1       9.265  21.283  53.195  1.00  0.00    -0.206 F 
HETATM   25  C   UNL     1       7.494  22.719  53.797  1.00  0.00     0.043 A 
HETATM   26  C   UNL     1       6.931  23.613  54.711  1.00  0.00     0.012 A 
ENDBRANCH  19  20
ENDBRANCH  16  19
ENDBRANCH   2  15
BRANCH   1  27
HETATM   27  C   UNL     1       5.755  27.504  53.144  1.00  0.00     0.043 A 
HETATM   28  C   UNL     1       5.731  26.108  53.048  1.00  0.00     0.032 A 
HETATM   29  C   UNL     1       5.314  25.474  51.868  1.00  0.00     0.039 A 
HETATM   30  C   UNL     1       4.930  26.231  50.763  1.00  0.00     0.068 A 
HETATM   31  C   UNL     1       4.990  27.620  50.839  1.00  0.00     0.039 A 
HETATM   32  C   UNL     1       5.398  28.251  52.016  1.00  0.00     0.032 A 
BRANCH  30  33
HETATM   33  O   UNL     1       4.505  25.745  49.559  1.00  0.00    -0.352 OA
BRANCH  33  34
HETATM   34  C   UNL     1       3.817  26.653  48.703  1.00  0.00     0.171 C 
HETATM   35  C   UNL     1       3.249  25.853  47.542  1.00  0.00     0.034 C 
ENDBRANCH  33  34
ENDBRANCH  30  33
ENDBRANCH   1  27
TORSDOF 7
ENDMDL
MODEL 8
REMARK VINA RESULT:      -8.7     10.461     14.672
REMARK  7 active torsions:
REMARK  status: ('A' for Active; 'I' for Inactive)
REMARK    1  A    between atoms: C_2  and  O_3 
REMARK    2  A    between atoms: O_3  and  C_4 
REMARK    3  A    between atoms: C_7  and  N_8 
REMARK    4  A    between atoms: C_9  and  O_10 
REMARK    5  A    between atoms: C_9  and  C_11 
REMARK       I    between atoms: C_11  and  N_12 
REMARK    6  A    between atoms: N_12  and  C_13 
REMARK    7  A    between atoms: C_13  and  C_14 
ROOT
HETATM    1  N   UNL     1       3.378  34.706  63.437  1.00  0.00    -0.254 N 
HETATM    2  C   UNL     1       4.280  34.716  62.271  1.00  0.00     0.256 C 
HETATM    3  C   UNL     1       3.561  35.064  60.988  1.00  0.00     0.034 A 
HETATM    4  C   UNL     1       2.213  34.733  60.894  1.00  0.00     0.048 A 
HETATM    5  N   UNL     1       1.587  34.181  62.008  1.00  0.00    -0.308 N 
HETATM    6  C   UNL     1       2.097  34.191  63.281  1.00  0.00     0.330 C 
HETATM    7  O   UNL     1       1.359  33.800  64.186  1.00  0.00    -0.246 OA
HETATM    8  C   UNL     1       4.201  35.618  59.869  1.00  0.00     0.015 A 
HETATM    9  C   UNL     1       3.492  35.840  58.688  1.00  0.00     0.001 A 
HETATM   10  C   UNL     1       2.143  35.493  58.609  1.00  0.00     0.002 A 
HETATM   11  C   UNL     1       1.502  34.930  59.711  1.00  0.00     0.030 A 
HETATM   12  H   UNL     1       0.607  33.926  61.961  1.00  0.00     0.170 HD
ENDROOT
BRANCH   2  13
HETATM   13  O   UNL     1       5.321  35.684  62.435  1.00  0.00    -0.359 OA
HETATM   14  H   UNL     1       4.852  36.511  62.661  1.00  0.00     0.213 HD
ENDBRANCH   2  13
BRANCH   2  15
HETATM   15  C   UNL     1       4.959  33.285  62.150  1.00  0.00     0.279 C 
HETATM   16  N   UNL     1       6.301  33.189  62.456  1.00  0.00    -0.352 N 
HETATM   17  H   UNL     1       6.800  34.001  62.798  1.00  0.00     0.162 HD
HETATM   18  O   UNL     1       4.305  32.303  61.784  1.00  0.00    -0.268 OA
BRANCH  16  19
HETATM   19  C   UNL     1       6.993  31.925  62.422  1.00  0.00     0.161 C 
BRANCH  19  20
HETATM   20  C   UNL     1       7.894  31.847  61.218  1.00  0.00    -0.040 A 
HETATM   21  C   UNL     1       7.360  31.574  59.948  1.00  0.00     0.012 A 
HETATM   22  C   UNL     1       8.199  31.469  58.837  1.00  0.00     0.043 A 
HETATM   23  C   UNL     1       9.570  31.631  58.995  1.00  0.00     0.116 A 
HETATM   24  F   UNL     1      10.373  31.530  57.928  1.00  0.00    -0.206 F 
HETATM   25  C   UNL     1      10.119  31.890  60.245  1.00  0.00     0.043 A 
HETATM   26  C   UNL     1       9.283  31.992  61.358  1.00  0.00     0.012 A 
ENDBRANCH  19  20
ENDBRANCH  16  19
ENDBRANCH   2  15
BRANCH   1  27
HETATM   27  C   UNL     1       3.942  34.835  64.748  1.00  0.00     0.043 A 
HETATM   28  C   UNL     1       3.875  36.033  65.467  1.00  0.00     0.032 A 
HETATM   29  C   UNL     1       4.437  36.136  66.748  1.00  0.00     0.039 A 
HETATM   30  C   UNL     1       5.085  35.043  67.321  1.00  0.00     0.068 A 
HETATM   31  C   UNL     1       5.189  33.860  66.593  1.00  0.00     0.039 A 
HETATM   32  C   UNL     1       4.624  33.756  65.320  1.00  0.00     0.032 A 
BRANCH  30  33
HETATM   33  O   UNL     1       5.672  35.007  68.553  1.00  0.00    -0.352 OA
BRANCH  33  34
HETATM   34  C   UNL     1       7.042  34.614  68.604  1.00  0.00     0.171 C 
HETATM   35  C   UNL     1       7.726  35.461  69.665  1.00  0.00     0.034 C 
ENDBRANCH  33  34
ENDBRANCH  30  33
ENDBRANCH   1  27
TORSDOF 7
ENDMDL
MODEL 9
REMARK VINA RESULT:      -8.4      3.995      7.377
REMARK  7 active torsions:
REMARK  status: ('A' for Active; 'I' for Inactive)
REMARK    1  A    between atoms: C_2  and  O_3 
REMARK    2  A    between atoms: O_3  and  C_4 
REMARK    3  A    between atoms: C_7  and  N_8 
REMARK    4  A    between atoms: C_9  and  O_10 
REMARK    5  A    between atoms: C_9  and  C_11 
REMARK       I    between atoms: C_11  and  N_12 
REMARK    6  A    between atoms: N_12  and  C_13 
REMARK    7  A    between atoms: C_13  and  C_14 
ROOT
HETATM    1  N   UNL     1       5.329  28.333  54.515  1.00  0.00    -0.254 N 
HETATM    2  C   UNL     1       4.989  27.403  53.423  1.00  0.00     0.256 C 
HETATM    3  C   UNL     1       5.750  26.099  53.516  1.00  0.00     0.034 A 
HETATM    4  C   UNL     1       7.004  26.127  54.118  1.00  0.00     0.048 A 
HETATM    5  N   UNL     1       7.447  27.324  54.671  1.00  0.00    -0.308 N 
HETATM    6  C   UNL     1       6.653  28.412  54.931  1.00  0.00     0.330 C 
HETATM    7  O   UNL     1       7.159  29.341  55.562  1.00  0.00    -0.246 OA
HETATM    8  C   UNL     1       5.296  24.898  52.953  1.00  0.00     0.015 A 
HETATM    9  C   UNL     1       6.088  23.750  53.006  1.00  0.00     0.001 A 
HETATM   10  C   UNL     1       7.346  23.798  53.606  1.00  0.00     0.002 A 
HETATM   11  C   UNL     1       7.812  24.991  54.156  1.00  0.00     0.030 A 
HETATM   12  H   UNL     1       8.361  27.370  55.109  1.00  0.00     0.170 HD
ENDROOT
BRANCH   2  13
HETATM   13  O   UNL     1       3.598  27.069  53.447  1.00  0.00    -0.359 OA
HETATM   14  H   UNL     1       3.216  27.559  52.693  1.00  0.00     0.213 HD
ENDBRANCH   2  13
BRANCH   2  15
HETATM   15  C   UNL     1       5.295  28.120  52.039  1.00  0.00     0.279 C 
HETATM   16  N   UNL     1       4.352  28.003  51.039  1.00  0.00    -0.352 N 
HETATM   17  H   UNL     1       3.480  27.522  51.222  1.00  0.00     0.162 HD
HETATM   18  O   UNL     1       6.345  28.748  51.870  1.00  0.00    -0.268 OA
BRANCH  16  19
HETATM   19  C   UNL     1       4.518  28.658  49.766  1.00  0.00     0.161 C 
BRANCH  19  20
HETATM   20  C   UNL     1       3.507  28.150  48.772  1.00  0.00    -0.040 A 
HETATM   21  C   UNL     1       2.252  28.768  48.657  1.00  0.00     0.012 A 
HETATM   22  C   UNL     1       1.303  28.277  47.759  1.00  0.00     0.043 A 
HETATM   23  C   UNL     1       1.605  27.166  46.981  1.00  0.00     0.116 A 
HETATM   24  F   UNL     1       0.693  26.696  46.120  1.00  0.00    -0.206 F 
HETATM   25  C   UNL     1       2.837  26.533  47.088  1.00  0.00     0.043 A 
HETATM   26  C   UNL     1       3.788  27.020  47.988  1.00  0.00     0.012 A 
ENDBRANCH  19  20
ENDBRANCH  16  19
ENDBRANCH   2  15
BRANCH   1  27
HETATM   27  C   UNL     1       4.416  29.389  54.832  1.00  0.00     0.043 A 
HETATM   28  C   UNL     1       4.127  30.414  53.925  1.00  0.00     0.032 A 
HETATM   29  C   UNL     1       3.230  31.440  54.259  1.00  0.00     0.039 A 
HETATM   30  C   UNL     1       2.622  31.460  55.512  1.00  0.00     0.068 A 
HETATM   31  C   UNL     1       2.936  30.464  56.434  1.00  0.00     0.039 A 
HETATM   32  C   UNL     1       3.824  29.439  56.099  1.00  0.00     0.032 A 
BRANCH  30  33
HETATM   33  O   UNL     1       1.734  32.394  55.965  1.00  0.00    -0.352 OA
BRANCH  33  34
HETATM   34  C   UNL     1       1.332  33.404  55.042  1.00  0.00     0.171 C 
HETATM   35  C   UNL     1      -0.164  33.260  54.824  1.00  0.00     0.034 C 
ENDBRANCH  33  34
ENDBRANCH  30  33
ENDBRANCH   1  27
TORSDOF 7
ENDMDL
MODEL 10
REMARK VINA RESULT:      -8.3      7.463     10.978
REMARK  7 active torsions:
REMARK  status: ('A' for Active; 'I' for Inactive)
REMARK    1  A    between atoms: C_2  and  O_3 
REMARK    2  A    between atoms: O_3  and  C_4 
REMARK    3  A    between atoms: C_7  and  N_8 
REMARK    4  A    between atoms: C_9  and  O_10 
REMARK    5  A    between atoms: C_9  and  C_11 
REMARK       I    between atoms: C_11  and  N_12 
REMARK    6  A    between atoms: N_12  and  C_13 
REMARK    7  A    between atoms: C_13  and  C_14 
ROOT
HETATM    1  N   UNL     1       4.474  32.193  57.886  1.00  0.00    -0.254 N 
HETATM    2  C   UNL     1       4.139  32.370  59.310  1.00  0.00     0.256 C 
HETATM    3  C   UNL     1       3.276  33.588  59.553  1.00  0.00     0.034 A 
HETATM    4  C   UNL     1       3.408  34.656  58.672  1.00  0.00     0.048 A 
HETATM    5  N   UNL     1       4.256  34.513  57.578  1.00  0.00    -0.308 N 
HETATM    6  C   UNL     1       4.761  33.321  57.126  1.00  0.00     0.330 C 
HETATM    7  O   UNL     1       5.372  33.338  56.057  1.00  0.00    -0.246 OA
HETATM    8  C   UNL     1       2.427  33.724  60.661  1.00  0.00     0.015 A 
HETATM    9  C   UNL     1       1.720  34.910  60.867  1.00  0.00     0.001 A 
HETATM   10  C   UNL     1       1.871  35.974  59.978  1.00  0.00     0.002 A 
HETATM   11  C   UNL     1       2.724  35.853  58.882  1.00  0.00     0.030 A 
HETATM   12  H   UNL     1       4.372  35.281  56.927  1.00  0.00     0.170 HD
ENDROOT
BRANCH   2  13
HETATM   13  O   UNL     1       3.410  31.244  59.810  1.00  0.00    -0.359 OA
HETATM   14  H   UNL     1       2.625  31.184  59.231  1.00  0.00     0.213 HD
ENDBRANCH   2  13
BRANCH   2  15
HETATM   15  C   UNL     1       5.492  32.480  60.135  1.00  0.00     0.279 C 
HETATM   16  N   UNL     1       5.542  31.853  61.362  1.00  0.00    -0.352 N 
HETATM   17  H   UNL     1       4.756  31.300  61.680  1.00  0.00     0.162 HD
HETATM   18  O   UNL     1       6.454  33.115  59.690  1.00  0.00    -0.268 OA
BRANCH  16  19
HETATM   19  C   UNL     1       6.742  31.857  62.162  1.00  0.00     0.161 C 
BRANCH  19  20
HETATM   20  C   UNL     1       6.517  32.602  63.451  1.00  0.00    -0.040 A 
HETATM   21  C   UNL     1       5.214  32.833  63.920  1.00  0.00     0.012 A 
HETATM   22  C   UNL     1       5.004  33.551  65.098  1.00  0.00     0.043 A 
HETATM   23  C   UNL     1       6.095  34.043  65.804  1.00  0.00     0.116 A 
HETATM   24  F   UNL     1       5.892  34.732  66.935  1.00  0.00    -0.206 F 
HETATM   25  C   UNL     1       7.392  33.836  65.352  1.00  0.00     0.043 A 
HETATM   26  C   UNL     1       7.605  33.120  64.172  1.00  0.00     0.012 A 
ENDBRANCH  19  20
ENDBRANCH  16  19
ENDBRANCH   2  15
BRANCH   1  27
HETATM   27  C   UNL     1       4.888  30.900  57.429  1.00  0.00     0.043 A 
HETATM   28  C   UNL     1       6.170  30.400  57.684  1.00  0.00     0.032 A 
HETATM   29  C   UNL     1       6.553  29.131  57.224  1.00  0.00     0.039 A 
HETATM   30  C   UNL     1       5.661  28.352  56.490  1.00  0.00     0.068 A 
HETATM   31  C   UNL     1       4.397  28.861  56.200  1.00  0.00     0.039 A 
HETATM   32  C   UNL     1       4.013  30.121  56.663  1.00  0.00     0.032 A 
BRANCH  30  33
HETATM   33  O   UNL     1       5.902  27.106  55.986  1.00  0.00    -0.352 OA
BRANCH  33  34
HETATM   34  C   UNL     1       6.230  26.082  56.922  1.00  0.00     0.171 C 
HETATM   35  C   UNL     1       4.988  25.231  57.128  1.00  0.00     0.034 C 
ENDBRANCH  33  34
ENDBRANCH  30  33
ENDBRANCH   1  27
TORSDOF 7
ENDMDL
