MODEL 1
REMARK VINA RESULT:      -8.8      0.000      0.000
REMARK  7 active torsions:
REMARK  status: ('A' for Active; 'I' for Inactive)
REMARK    1  A    between atoms: O_2  and  C_3 
REMARK    2  A    between atoms: C_6  and  C_7 
REMARK       I    between atoms: C_7  and  N_8 
REMARK    3  A    between atoms: C_14  and  C_15 
REMARK       I    between atoms: C_15  and  N_16 
REMARK    4  A    between atoms: N_16  and  C_17 
REMARK    5  A    between atoms: C_17  and  C_18 
REMARK       I    between atoms: N_25  and  C_26 
REMARK    6  A    between atoms: C_26  and  C_27 
REMARK    7  A    between atoms: C_30  and  O_31 
ROOT
HETATM    1  C   UNL     1       4.175  30.727  48.713  1.00  0.00     0.253 C 
HETATM    2  N   UNL     1       4.366  29.555  49.460  1.00  0.00    -0.348 N 
HETATM    3  C   UNL     1       3.533  29.191  50.602  1.00  0.00     0.131 C 
HETATM    4  C   UNL     1       3.515  27.697  50.865  1.00  0.00     0.081 C 
HETATM    5  C   UNL     1       4.910  27.059  50.957  1.00  0.00     0.142 C 
HETATM    6  O   UNL     1       4.692  25.639  50.731  1.00  0.00    -0.358 OA
HETATM    7  C   UNL     1       4.695  24.938  51.977  1.00  0.00     0.206 C 
HETATM    8  C   UNL     1       5.065  25.937  53.055  1.00  0.00     0.206 C 
HETATM    9  N   UNL     1       5.505  27.106  52.298  1.00  0.00    -0.300 N 
HETATM   10  C   UNL     1       5.945  28.292  52.867  1.00  0.00     0.257 C 
HETATM   11  O   UNL     1       6.086  29.342  52.253  1.00  0.00    -0.267 OA
HETATM   12  C   UNL     1       5.794  27.503  49.786  1.00  0.00     0.081 C 
HETATM   13  C   UNL     1       5.703  28.972  49.394  1.00  0.00     0.131 C 
HETATM   14  O   UNL     1       4.873  31.030  47.743  1.00  0.00    -0.267 OA
ENDROOT
BRANCH   8  15
HETATM   15  C   UNL     1       6.025  25.242  54.022  1.00  0.00     0.243 C 
HETATM   16  N   UNL     1       7.181  24.725  53.486  1.00  0.00    -0.355 N 
HETATM   17  H   UNL     1       7.463  25.023  52.560  1.00  0.00     0.162 HD
HETATM   18  O   UNL     1       5.695  25.052  55.193  1.00  0.00    -0.271 OA
BRANCH  16  19
HETATM   19  C   UNL     1       8.194  24.195  54.373  1.00  0.00     0.161 C 
BRANCH  19  20
HETATM   20  C   UNL     1       8.317  22.700  54.283  1.00  0.00    -0.041 A 
HETATM   21  C   UNL     1       7.994  22.028  53.096  1.00  0.00     0.009 A 
HETATM   22  C   UNL     1       8.179  20.648  52.990  1.00  0.00     0.001 A 
HETATM   23  C   UNL     1       8.690  19.927  54.069  1.00  0.00     0.000 A 
HETATM   24  C   UNL     1       9.014  20.584  55.254  1.00  0.00     0.001 A 
HETATM   25  C   UNL     1       8.830  21.963  55.362  1.00  0.00     0.009 A 
ENDBRANCH  19  20
ENDBRANCH  16  19
ENDBRANCH   8  15
BRANCH  10  26
HETATM   26  C   UNL     1       6.377  28.329  54.277  1.00  0.00     0.032 A 
HETATM   27  C   UNL     1       7.739  28.155  54.541  1.00  0.00     0.020 A 
HETATM   28  C   UNL     1       8.203  28.226  55.854  1.00  0.00     0.038 A 
HETATM   29  C   UNL     1       7.320  28.484  56.906  1.00  0.00     0.068 A 
HETATM   30  C   UNL     1       5.964  28.680  56.632  1.00  0.00     0.038 A 
HETATM   31  C   UNL     1       5.492  28.619  55.316  1.00  0.00     0.020 A 
BRANCH  29  32
HETATM   32  O   UNL     1       7.908  28.528  58.139  1.00  0.00    -0.356 OA
HETATM   33  C   UNL     1       8.113  29.814  58.709  1.00  0.00     0.210 C 
ENDBRANCH  29  32
ENDBRANCH  10  26
BRANCH   1  34
HETATM   34  C   UNL     1       3.098  31.678  49.077  1.00  0.00     0.032 A 
HETATM   35  C   UNL     1       1.779  31.463  48.667  1.00  0.00     0.020 A 
HETATM   36  C   UNL     1       0.773  32.341  49.080  1.00  0.00     0.038 A 
HETATM   37  C   UNL     1       1.065  33.404  49.938  1.00  0.00     0.068 A 
HETATM   38  C   UNL     1       2.380  33.606  50.362  1.00  0.00     0.038 A 
HETATM   39  C   UNL     1       3.395  32.738  49.938  1.00  0.00     0.020 A 
BRANCH  37  40
HETATM   40  O   UNL     1      -0.010  34.176  50.283  1.00  0.00    -0.356 OA
HETATM   41  C   UNL     1      -1.108  33.493  50.877  1.00  0.00     0.210 C 
ENDBRANCH  37  40
ENDBRANCH   1  34
TORSDOF 7
ENDMDL
MODEL 2
REMARK VINA RESULT:      -8.6      6.375     12.088
REMARK  7 active torsions:
REMARK  status: ('A' for Active; 'I' for Inactive)
REMARK    1  A    between atoms: O_2  and  C_3 
REMARK    2  A    between atoms: C_6  and  C_7 
REMARK       I    between atoms: C_7  and  N_8 
REMARK    3  A    between atoms: C_14  and  C_15 
REMARK       I    between atoms: C_15  and  N_16 
REMARK    4  A    between atoms: N_16  and  C_17 
REMARK    5  A    between atoms: C_17  and  C_18 
REMARK       I    between atoms: N_25  and  C_26 
REMARK    6  A    between atoms: C_26  and  C_27 
REMARK    7  A    between atoms: C_30  and  O_31 
ROOT
HETATM    1  C   UNL     1       9.469  29.675  56.742  1.00  0.00     0.253 C 
HETATM    2  N   UNL     1       9.144  30.205  58.000  1.00  0.00    -0.348 N 
HETATM    3  C   UNL     1       8.124  29.628  58.870  1.00  0.00     0.131 C 
HETATM    4  C   UNL     1       8.346  29.957  60.335  1.00  0.00     0.081 C 
HETATM    5  C   UNL     1       8.548  31.453  60.618  1.00  0.00     0.142 C 
HETATM    6  O   UNL     1       9.196  31.507  61.919  1.00  0.00    -0.358 OA
HETATM    7  C   UNL     1       8.238  31.824  62.931  1.00  0.00     0.206 C 
HETATM    8  C   UNL     1       6.926  32.119  62.233  1.00  0.00     0.206 C 
HETATM    9  N   UNL     1       7.302  32.201  60.824  1.00  0.00    -0.300 N 
HETATM   10  C   UNL     1       6.418  32.457  59.787  1.00  0.00     0.257 C 
HETATM   11  O   UNL     1       6.677  32.291  58.601  1.00  0.00    -0.267 OA
HETATM   12  C   UNL     1       9.573  32.059  59.653  1.00  0.00     0.081 C 
HETATM   13  C   UNL     1       9.475  31.613  58.200  1.00  0.00     0.131 C 
HETATM   14  O   UNL     1      10.336  30.157  56.011  1.00  0.00    -0.267 OA
ENDROOT
BRANCH   8  15
HETATM   15  C   UNL     1       6.291  33.325  62.929  1.00  0.00     0.243 C 
HETATM   16  N   UNL     1       5.229  33.071  63.765  1.00  0.00    -0.355 N 
HETATM   17  H   UNL     1       5.070  32.119  64.072  1.00  0.00     0.162 HD
HETATM   18  O   UNL     1       6.645  34.467  62.634  1.00  0.00    -0.271 OA
BRANCH  16  19
HETATM   19  C   UNL     1       4.690  34.149  64.566  1.00  0.00     0.161 C 
BRANCH  19  20
HETATM   20  C   UNL     1       5.218  34.147  65.972  1.00  0.00    -0.041 A 
HETATM   21  C   UNL     1       6.598  34.198  66.216  1.00  0.00     0.009 A 
HETATM   22  C   UNL     1       7.084  34.270  67.523  1.00  0.00     0.001 A 
HETATM   23  C   UNL     1       6.197  34.292  68.598  1.00  0.00     0.000 A 
HETATM   24  C   UNL     1       4.823  34.240  68.368  1.00  0.00     0.001 A 
HETATM   25  C   UNL     1       4.336  34.169  67.063  1.00  0.00     0.009 A 
ENDBRANCH  19  20
ENDBRANCH  16  19
ENDBRANCH   8  15
BRANCH  10  26
HETATM   26  C   UNL     1       5.098  33.058  60.061  1.00  0.00     0.032 A 
HETATM   27  C   UNL     1       4.951  34.428  59.827  1.00  0.00     0.020 A 
HETATM   28  C   UNL     1       3.711  35.034  60.029  1.00  0.00     0.038 A 
HETATM   29  C   UNL     1       2.612  34.279  60.450  1.00  0.00     0.068 A 
HETATM   30  C   UNL     1       2.761  32.906  60.659  1.00  0.00     0.038 A 
HETATM   31  C   UNL     1       4.000  32.289  60.450  1.00  0.00     0.020 A 
BRANCH  29  32
HETATM   32  O   UNL     1       1.461  34.998  60.606  1.00  0.00    -0.356 OA
HETATM   33  C   UNL     1       0.932  35.630  59.447  1.00  0.00     0.210 C 
ENDBRANCH  29  32
ENDBRANCH  10  26
BRANCH   1  34
HETATM   34  C   UNL     1       8.756  28.483  56.227  1.00  0.00     0.032 A 
HETATM   35  C   UNL     1       8.670  27.312  56.984  1.00  0.00     0.020 A 
HETATM   36  C   UNL     1       7.936  26.225  56.501  1.00  0.00     0.038 A 
HETATM   37  C   UNL     1       7.246  26.316  55.288  1.00  0.00     0.068 A 
HETATM   38  C   UNL     1       7.318  27.493  54.542  1.00  0.00     0.038 A 
HETATM   39  C   UNL     1       8.065  28.580  55.015  1.00  0.00     0.020 A 
BRANCH  37  40
HETATM   40  O   UNL     1       6.550  25.192  54.938  1.00  0.00    -0.356 OA
HETATM   41  C   UNL     1       7.277  23.968  54.970  1.00  0.00     0.210 C 
ENDBRANCH  37  40
ENDBRANCH   1  34
TORSDOF 7
ENDMDL
MODEL 3
REMARK VINA RESULT:      -8.6      3.324      6.192
REMARK  7 active torsions:
REMARK  status: ('A' for Active; 'I' for Inactive)
REMARK    1  A    between atoms: O_2  and  C_3 
REMARK    2  A    between atoms: C_6  and  C_7 
REMARK       I    between atoms: C_7  and  N_8 
REMARK    3  A    between atoms: C_14  and  C_15 
REMARK       I    between atoms: C_15  and  N_16 
REMARK    4  A    between atoms: N_16  and  C_17 
REMARK    5  A    between atoms: C_17  and  C_18 
REMARK       I    between atoms: N_25  and  C_26 
REMARK    6  A    between atoms: C_26  and  C_27 
REMARK    7  A    between atoms: C_30  and  O_31 
ROOT
HETATM    1  C   UNL     1       3.861  31.497  57.771  1.00  0.00     0.253 C 
HETATM    2  N   UNL     1       4.730  30.528  57.244  1.00  0.00    -0.348 N 
HETATM    3  C   UNL     1       5.705  30.815  56.196  1.00  0.00     0.131 C 
HETATM    4  C   UNL     1       6.879  29.854  56.206  1.00  0.00     0.081 C 
HETATM    5  C   UNL     1       6.476  28.372  56.212  1.00  0.00     0.142 C 
HETATM    6  O   UNL     1       7.652  27.663  56.692  1.00  0.00    -0.358 OA
HETATM    7  C   UNL     1       8.358  27.085  55.592  1.00  0.00     0.206 C 
HETATM    8  C   UNL     1       7.527  27.321  54.348  1.00  0.00     0.206 C 
HETATM    9  N   UNL     1       6.254  27.804  54.877  1.00  0.00    -0.300 N 
HETATM   10  C   UNL     1       5.162  28.158  54.099  1.00  0.00     0.257 C 
HETATM   11  O   UNL     1       4.192  28.781  54.513  1.00  0.00    -0.267 OA
HETATM   12  C   UNL     1       5.404  28.100  57.273  1.00  0.00     0.081 C 
HETATM   13  C   UNL     1       4.299  29.141  57.396  1.00  0.00     0.131 C 
HETATM   14  O   UNL     1       3.044  31.256  58.661  1.00  0.00    -0.267 OA
ENDROOT
BRANCH   8  15
HETATM   15  C   UNL     1       7.573  26.042  53.509  1.00  0.00     0.243 C 
HETATM   16  N   UNL     1       7.087  24.897  54.094  1.00  0.00    -0.355 N 
HETATM   17  H   UNL     1       6.514  24.981  54.925  1.00  0.00     0.162 HD
HETATM   18  O   UNL     1       8.145  26.038  52.418  1.00  0.00    -0.271 OA
BRANCH  16  19
HETATM   19  C   UNL     1       6.964  23.695  53.296  1.00  0.00     0.161 C 
BRANCH  19  20
HETATM   20  C   UNL     1       7.570  22.493  53.964  1.00  0.00    -0.041 A 
HETATM   21  C   UNL     1       7.519  22.350  55.357  1.00  0.00     0.009 A 
HETATM   22  C   UNL     1       8.016  21.198  55.970  1.00  0.00     0.001 A 
HETATM   23  C   UNL     1       8.568  20.178  55.196  1.00  0.00     0.000 A 
HETATM   24  C   UNL     1       8.625  20.310  53.810  1.00  0.00     0.001 A 
HETATM   25  C   UNL     1       8.129  21.460  53.196  1.00  0.00     0.009 A 
ENDBRANCH  19  20
ENDBRANCH  16  19
ENDBRANCH   8  15
BRANCH  10  26
HETATM   26  C   UNL     1       5.062  27.701  52.699  1.00  0.00     0.032 A 
HETATM   27  C   UNL     1       5.484  28.584  51.700  1.00  0.00     0.020 A 
HETATM   28  C   UNL     1       5.451  28.182  50.366  1.00  0.00     0.038 A 
HETATM   29  C   UNL     1       5.012  26.901  50.020  1.00  0.00     0.068 A 
HETATM   30  C   UNL     1       4.613  26.017  51.026  1.00  0.00     0.038 A 
HETATM   31  C   UNL     1       4.652  26.409  52.369  1.00  0.00     0.020 A 
BRANCH  29  32
HETATM   32  O   UNL     1       5.032  26.640  48.679  1.00  0.00    -0.356 OA
HETATM   33  C   UNL     1       3.827  26.156  48.099  1.00  0.00     0.210 C 
ENDBRANCH  29  32
ENDBRANCH  10  26
BRANCH   1  34
HETATM   34  C   UNL     1       3.891  32.886  57.256  1.00  0.00     0.032 A 
HETATM   35  C   UNL     1       3.149  33.253  56.131  1.00  0.00     0.020 A 
HETATM   36  C   UNL     1       3.145  34.584  55.707  1.00  0.00     0.038 A 
HETATM   37  C   UNL     1       3.839  35.562  56.426  1.00  0.00     0.068 A 
HETATM   38  C   UNL     1       4.564  35.196  57.561  1.00  0.00     0.038 A 
HETATM   39  C   UNL     1       4.583  33.860  57.982  1.00  0.00     0.020 A 
BRANCH  37  40
HETATM   40  O   UNL     1       3.738  36.828  55.918  1.00  0.00    -0.356 OA
HETATM   41  C   UNL     1       3.496  36.926  54.519  1.00  0.00     0.210 C 
ENDBRANCH  37  40
ENDBRANCH   1  34
TORSDOF 7
ENDMDL
MODEL 4
REMARK VINA RESULT:      -8.0      4.303      6.952
REMARK  7 active torsions:
REMARK  status: ('A' for Active; 'I' for Inactive)
REMARK    1  A    between atoms: O_2  and  C_3 
REMARK    2  A    between atoms: C_6  and  C_7 
REMARK       I    between atoms: C_7  and  N_8 
REMARK    3  A    between atoms: C_14  and  C_15 
REMARK       I    between atoms: C_15  and  N_16 
REMARK    4  A    between atoms: N_16  and  C_17 
REMARK    5  A    between atoms: C_17  and  C_18 
REMARK       I    between atoms: N_25  and  C_26 
REMARK    6  A    between atoms: C_26  and  C_27 
REMARK    7  A    between atoms: C_30  and  O_31 
ROOT
HETATM    1  C   UNL     1       4.398  28.378  49.600  1.00  0.00     0.253 C 
HETATM    2  N   UNL     1       4.403  28.513  50.997  1.00  0.00    -0.348 N 
HETATM    3  C   UNL     1       3.185  28.562  51.799  1.00  0.00     0.131 C 
HETATM    4  C   UNL     1       3.407  28.120  53.234  1.00  0.00     0.081 C 
HETATM    5  C   UNL     1       4.575  28.830  53.935  1.00  0.00     0.142 C 
HETATM    6  O   UNL     1       4.918  27.972  55.058  1.00  0.00    -0.358 OA
HETATM    7  C   UNL     1       4.360  28.497  56.265  1.00  0.00     0.206 C 
HETATM    8  C   UNL     1       3.731  29.833  55.927  1.00  0.00     0.206 C 
HETATM    9  N   UNL     1       4.210  30.101  54.573  1.00  0.00    -0.300 N 
HETATM   10  C   UNL     1       3.891  31.230  53.834  1.00  0.00     0.257 C 
HETATM   11  O   UNL     1       4.088  31.347  52.631  1.00  0.00    -0.267 OA
HETATM   12  C   UNL     1       5.828  28.828  53.053  1.00  0.00     0.081 C 
HETATM   13  C   UNL     1       5.608  29.106  51.571  1.00  0.00     0.131 C 
HETATM   14  O   UNL     1       5.426  28.327  48.924  1.00  0.00    -0.267 OA
ENDROOT
BRANCH   8  15
HETATM   15  C   UNL     1       4.062  30.803  57.064  1.00  0.00     0.243 C 
HETATM   16  N   UNL     1       5.393  31.025  57.324  1.00  0.00    -0.355 N 
HETATM   17  H   UNL     1       6.077  30.748  56.629  1.00  0.00     0.162 HD
HETATM   18  O   UNL     1       3.163  31.245  57.781  1.00  0.00    -0.271 OA
BRANCH  16  19
HETATM   19  C   UNL     1       5.764  32.044  58.281  1.00  0.00     0.161 C 
BRANCH  19  20
HETATM   20  C   UNL     1       6.957  31.656  59.109  1.00  0.00    -0.041 A 
HETATM   21  C   UNL     1       7.875  30.709  58.634  1.00  0.00     0.009 A 
HETATM   22  C   UNL     1       9.022  30.403  59.371  1.00  0.00     0.001 A 
HETATM   23  C   UNL     1       9.260  31.041  60.588  1.00  0.00     0.000 A 
HETATM   24  C   UNL     1       8.353  31.982  61.070  1.00  0.00     0.001 A 
HETATM   25  C   UNL     1       7.208  32.289  60.335  1.00  0.00     0.009 A 
ENDBRANCH  19  20
ENDBRANCH  16  19
ENDBRANCH   8  15
BRANCH  10  26
HETATM   26  C   UNL     1       3.363  32.436  54.502  1.00  0.00     0.032 A 
HETATM   27  C   UNL     1       4.282  33.418  54.882  1.00  0.00     0.020 A 
HETATM   28  C   UNL     1       3.828  34.595  55.476  1.00  0.00     0.038 A 
HETATM   29  C   UNL     1       2.462  34.806  55.681  1.00  0.00     0.068 A 
HETATM   30  C   UNL     1       1.548  33.829  55.278  1.00  0.00     0.038 A 
HETATM   31  C   UNL     1       1.995  32.649  54.673  1.00  0.00     0.020 A 
BRANCH  29  32
HETATM   32  O   UNL     1       2.158  36.001  56.271  1.00  0.00    -0.356 OA
HETATM   33  C   UNL     1       1.562  35.949  57.561  1.00  0.00     0.210 C 
ENDBRANCH  29  32
ENDBRANCH  10  26
BRANCH   1  34
HETATM   34  C   UNL     1       3.115  28.294  48.863  1.00  0.00     0.032 A 
HETATM   35  C   UNL     1       2.421  29.448  48.491  1.00  0.00     0.020 A 
HETATM   36  C   UNL     1       1.247  29.340  47.741  1.00  0.00     0.038 A 
HETATM   37  C   UNL     1       0.786  28.091  47.317  1.00  0.00     0.068 A 
HETATM   38  C   UNL     1       1.492  26.940  47.673  1.00  0.00     0.038 A 
HETATM   39  C   UNL     1       2.661  27.041  48.438  1.00  0.00     0.020 A 
BRANCH  37  40
HETATM   40  O   UNL     1      -0.361  28.123  46.572  1.00  0.00    -0.356 OA
HETATM   41  C   UNL     1      -0.360  27.340  45.384  1.00  0.00     0.210 C 
ENDBRANCH  37  40
ENDBRANCH   1  34
TORSDOF 7
ENDMDL
MODEL 5
REMARK VINA RESULT:      -8.0      4.346      7.787
REMARK  7 active torsions:
REMARK  status: ('A' for Active; 'I' for Inactive)
REMARK    1  A    between atoms: O_2  and  C_3 
REMARK    2  A    between atoms: C_6  and  C_7 
REMARK       I    between atoms: C_7  and  N_8 
REMARK    3  A    between atoms: C_14  and  C_15 
REMARK       I    between atoms: C_15  and  N_16 
REMARK    4  A    between atoms: N_16  and  C_17 
REMARK    5  A    between atoms: C_17  and  C_18 
REMARK       I    between atoms: N_25  and  C_26 
REMARK    6  A    between atoms: C_26  and  C_27 
REMARK    7  A    between atoms: C_30  and  O_31 
ROOT
HETATM    1  C   UNL     1       4.463  34.126  57.712  1.00  0.00     0.253 C 
HETATM    2  N   UNL     1       4.201  33.211  56.681  1.00  0.00    -0.348 N 
HETATM    3  C   UNL     1       3.424  31.990  56.875  1.00  0.00     0.131 C 
HETATM    4  C   UNL     1       2.781  31.492  55.594  1.00  0.00     0.081 C 
HETATM    5  C   UNL     1       3.756  31.360  54.414  1.00  0.00     0.142 C 
HETATM    6  O   UNL     1       2.913  31.347  53.229  1.00  0.00    -0.358 OA
HETATM    7  C   UNL     1       2.745  30.007  52.761  1.00  0.00     0.206 C 
HETATM    8  C   UNL     1       3.631  29.119  53.610  1.00  0.00     0.206 C 
HETATM    9  N   UNL     1       4.454  30.070  54.352  1.00  0.00    -0.300 N 
HETATM   10  C   UNL     1       5.430  29.717  55.273  1.00  0.00     0.257 C 
HETATM   11  O   UNL     1       5.948  30.497  56.063  1.00  0.00    -0.267 OA
HETATM   12  C   UNL     1       4.610  32.623  54.264  1.00  0.00     0.081 C 
HETATM   13  C   UNL     1       5.131  33.241  55.556  1.00  0.00     0.131 C 
HETATM   14  O   UNL     1       5.112  35.160  57.546  1.00  0.00    -0.267 OA
ENDROOT
BRANCH   8  15
HETATM   15  C   UNL     1       4.290  28.096  52.682  1.00  0.00     0.243 C 
HETATM   16  N   UNL     1       4.822  28.573  51.508  1.00  0.00    -0.355 N 
HETATM   17  H   UNL     1       4.975  29.570  51.414  1.00  0.00     0.162 HD
HETATM   18  O   UNL     1       4.215  26.893  52.935  1.00  0.00    -0.271 OA
BRANCH  16  19
HETATM   19  C   UNL     1       5.589  27.680  50.667  1.00  0.00     0.161 C 
BRANCH  19  20
HETATM   20  C   UNL     1       4.822  27.221  49.459  1.00  0.00    -0.041 A 
HETATM   21  C   UNL     1       4.195  25.967  49.447  1.00  0.00     0.009 A 
HETATM   22  C   UNL     1       3.421  25.573  48.353  1.00  0.00     0.001 A 
HETATM   23  C   UNL     1       3.266  26.427  47.262  1.00  0.00     0.000 A 
HETATM   24  C   UNL     1       3.886  27.676  47.263  1.00  0.00     0.001 A 
HETATM   25  C   UNL     1       4.659  28.072  48.355  1.00  0.00     0.009 A 
ENDBRANCH  19  20
ENDBRANCH  16  19
ENDBRANCH   8  15
BRANCH  10  26
HETATM   26  C   UNL     1       5.986  28.351  55.285  1.00  0.00     0.032 A 
HETATM   27  C   UNL     1       7.091  28.096  54.466  1.00  0.00     0.020 A 
HETATM   28  C   UNL     1       7.680  26.832  54.476  1.00  0.00     0.038 A 
HETATM   29  C   UNL     1       7.184  25.824  55.307  1.00  0.00     0.068 A 
HETATM   30  C   UNL     1       6.095  26.093  56.139  1.00  0.00     0.038 A 
HETATM   31  C   UNL     1       5.503  27.362  56.142  1.00  0.00     0.020 A 
BRANCH  29  32
HETATM   32  O   UNL     1       7.856  24.637  55.218  1.00  0.00    -0.356 OA
HETATM   33  C   UNL     1       8.262  24.033  56.439  1.00  0.00     0.210 C 
ENDBRANCH  29  32
ENDBRANCH  10  26
BRANCH   1  34
HETATM   34  C   UNL     1       3.960  33.872  59.083  1.00  0.00     0.032 A 
HETATM   35  C   UNL     1       4.717  33.145  60.005  1.00  0.00     0.020 A 
HETATM   36  C   UNL     1       4.245  32.976  61.309  1.00  0.00     0.038 A 
HETATM   37  C   UNL     1       3.047  33.569  61.715  1.00  0.00     0.068 A 
HETATM   38  C   UNL     1       2.301  34.312  60.797  1.00  0.00     0.038 A 
HETATM   39  C   UNL     1       2.762  34.471  59.484  1.00  0.00     0.020 A 
BRANCH  37  40
HETATM   40  O   UNL     1       2.708  33.346  63.021  1.00  0.00    -0.356 OA
HETATM   41  C   UNL     1       3.100  34.349  63.951  1.00  0.00     0.210 C 
ENDBRANCH  37  40
ENDBRANCH   1  34
TORSDOF 7
ENDMDL
MODEL 6
REMARK VINA RESULT:      -7.9      3.967      6.350
REMARK  7 active torsions:
REMARK  status: ('A' for Active; 'I' for Inactive)
REMARK    1  A    between atoms: O_2  and  C_3 
REMARK    2  A    between atoms: C_6  and  C_7 
REMARK       I    between atoms: C_7  and  N_8 
REMARK    3  A    between atoms: C_14  and  C_15 
REMARK       I    between atoms: C_15  and  N_16 
REMARK    4  A    between atoms: N_16  and  C_17 
REMARK    5  A    between atoms: C_17  and  C_18 
REMARK       I    between atoms: N_25  and  C_26 
REMARK    6  A    between atoms: C_26  and  C_27 
REMARK    7  A    between atoms: C_30  and  O_31 
ROOT
HETATM    1  C   UNL     1       3.019  33.831  56.390  1.00  0.00     0.253 C 
HETATM    2  N   UNL     1       3.595  32.568  56.187  1.00  0.00    -0.348 N 
HETATM    3  C   UNL     1       4.910  32.376  55.584  1.00  0.00     0.131 C 
HETATM    4  C   UNL     1       5.560  31.067  55.993  1.00  0.00     0.081 C 
HETATM    5  C   UNL     1       4.664  29.834  55.797  1.00  0.00     0.142 C 
HETATM    6  O   UNL     1       5.241  28.809  56.652  1.00  0.00    -0.358 OA
HETATM    7  C   UNL     1       6.025  27.904  55.871  1.00  0.00     0.206 C 
HETATM    8  C   UNL     1       5.841  28.287  54.417  1.00  0.00     0.206 C 
HETATM    9  N   UNL     1       4.739  29.244  54.455  1.00  0.00    -0.300 N 
HETATM   10  C   UNL     1       4.209  29.879  53.342  1.00  0.00     0.257 C 
HETATM   11  O   UNL     1       3.459  30.847  53.390  1.00  0.00    -0.267 OA
HETATM   12  C   UNL     1       3.266  30.075  56.376  1.00  0.00     0.081 C 
HETATM   13  C   UNL     1       2.658  31.449  56.120  1.00  0.00     0.131 C 
HETATM   14  O   UNL     1       1.912  33.993  56.906  1.00  0.00    -0.267 OA
ENDROOT
BRANCH   8  15
HETATM   15  C   UNL     1       5.707  26.994  53.610  1.00  0.00     0.243 C 
HETATM   16  N   UNL     1       6.834  26.548  52.960  1.00  0.00    -0.355 N 
HETATM   17  H   UNL     1       7.732  26.933  53.226  1.00  0.00     0.162 HD
HETATM   18  O   UNL     1       4.603  26.472  53.456  1.00  0.00    -0.271 OA
BRANCH  16  19
HETATM   19  C   UNL     1       6.808  25.255  52.310  1.00  0.00     0.161 C 
BRANCH  19  20
HETATM   20  C   UNL     1       7.500  24.190  53.112  1.00  0.00    -0.041 A 
HETATM   21  C   UNL     1       7.890  24.434  54.436  1.00  0.00     0.009 A 
HETATM   22  C   UNL     1       8.467  23.420  55.204  1.00  0.00     0.001 A 
HETATM   23  C   UNL     1       8.659  22.153  54.655  1.00  0.00     0.000 A 
HETATM   24  C   UNL     1       8.277  21.899  53.340  1.00  0.00     0.001 A 
HETATM   25  C   UNL     1       7.700  22.910  52.572  1.00  0.00     0.009 A 
ENDBRANCH  19  20
ENDBRANCH  16  19
ENDBRANCH   8  15
BRANCH  10  26
HETATM   26  C   UNL     1       4.452  29.343  51.989  1.00  0.00     0.032 A 
HETATM   27  C   UNL     1       3.401  28.665  51.363  1.00  0.00     0.020 A 
HETATM   28  C   UNL     1       3.568  28.179  50.068  1.00  0.00     0.038 A 
HETATM   29  C   UNL     1       4.771  28.375  49.384  1.00  0.00     0.068 A 
HETATM   30  C   UNL     1       5.809  29.073  50.007  1.00  0.00     0.038 A 
HETATM   31  C   UNL     1       5.646  29.573  51.304  1.00  0.00     0.020 A 
BRANCH  29  32
HETATM   32  O   UNL     1       4.797  27.848  48.124  1.00  0.00    -0.356 OA
HETATM   33  C   UNL     1       3.550  27.459  47.562  1.00  0.00     0.210 C 
ENDBRANCH  29  32
ENDBRANCH  10  26
BRANCH   1  34
HETATM   34  C   UNL     1       3.741  35.056  55.972  1.00  0.00     0.032 A 
HETATM   35  C   UNL     1       3.567  35.595  54.695  1.00  0.00     0.020 A 
HETATM   36  C   UNL     1       4.211  36.787  54.351  1.00  0.00     0.038 A 
HETATM   37  C   UNL     1       4.989  37.471  55.289  1.00  0.00     0.068 A 
HETATM   38  C   UNL     1       5.146  36.941  56.571  1.00  0.00     0.038 A 
HETATM   39  C   UNL     1       4.516  35.739  56.916  1.00  0.00     0.020 A 
BRANCH  37  40
HETATM   40  O   UNL     1       5.548  38.633  54.834  1.00  0.00    -0.356 OA
HETATM   41  C   UNL     1       6.121  38.587  53.532  1.00  0.00     0.210 C 
ENDBRANCH  37  40
ENDBRANCH   1  34
TORSDOF 7
ENDMDL
MODEL 7
REMARK VINA RESULT:      -7.8      2.667     10.162
REMARK  7 active torsions:
REMARK  status: ('A' for Active; 'I' for Inactive)
REMARK    1  A    between atoms: O_2  and  C_3 
REMARK    2  A    between atoms: C_6  and  C_7 
REMARK       I    between atoms: C_7  and  N_8 
REMARK    3  A    between atoms: C_14  and  C_15 
REMARK       I    between atoms: C_15  and  N_16 
REMARK    4  A    between atoms: N_16  and  C_17 
REMARK    5  A    between atoms: C_17  and  C_18 
REMARK       I    between atoms: N_25  and  C_26 
REMARK    6  A    between atoms: C_26  and  C_27 
REMARK    7  A    between atoms: C_30  and  O_31 
ROOT
HETATM    1  C   UNL     1       8.100  26.078  56.470  1.00  0.00     0.253 C 
HETATM    2  N   UNL     1       7.115  26.982  56.044  1.00  0.00    -0.348 N 
HETATM    3  C   UNL     1       5.882  26.567  55.382  1.00  0.00     0.131 C 
HETATM    4  C   UNL     1       4.757  27.571  55.550  1.00  0.00     0.081 C 
HETATM    5  C   UNL     1       5.141  29.011  55.176  1.00  0.00     0.142 C 
HETATM    6  O   UNL     1       4.150  29.849  55.833  1.00  0.00    -0.358 OA
HETATM    7  C   UNL     1       3.157  30.263  54.891  1.00  0.00     0.206 C 
HETATM    8  C   UNL     1       3.600  29.776  53.527  1.00  0.00     0.206 C 
HETATM    9  N   UNL     1       4.971  29.329  53.753  1.00  0.00    -0.300 N 
HETATM   10  C   UNL     1       5.797  28.794  52.776  1.00  0.00     0.257 C 
HETATM   11  O   UNL     1       6.846  28.205  53.005  1.00  0.00    -0.267 OA
HETATM   12  C   UNL     1       6.471  29.409  55.826  1.00  0.00     0.081 C 
HETATM   13  C   UNL     1       7.567  28.352  55.818  1.00  0.00     0.131 C 
HETATM   14  O   UNL     1       9.137  26.428  57.036  1.00  0.00    -0.267 OA
ENDROOT
BRANCH   8  15
HETATM   15  C   UNL     1       3.312  30.892  52.520  1.00  0.00     0.243 C 
HETATM   16  N   UNL     1       3.847  32.128  52.793  1.00  0.00    -0.355 N 
HETATM   17  H   UNL     1       4.584  32.197  53.485  1.00  0.00     0.162 HD
HETATM   18  O   UNL     1       2.528  30.699  51.590  1.00  0.00    -0.271 OA
BRANCH  16  19
HETATM   19  C   UNL     1       3.738  33.178  51.803  1.00  0.00     0.161 C 
BRANCH  19  20
HETATM   20  C   UNL     1       4.955  34.058  51.755  1.00  0.00    -0.041 A 
HETATM   21  C   UNL     1       5.406  34.585  50.537  1.00  0.00     0.009 A 
HETATM   22  C   UNL     1       6.493  35.462  50.504  1.00  0.00     0.001 A 
HETATM   23  C   UNL     1       7.137  35.821  51.687  1.00  0.00     0.000 A 
HETATM   24  C   UNL     1       6.698  35.303  52.904  1.00  0.00     0.001 A 
HETATM   25  C   UNL     1       5.612  34.427  52.939  1.00  0.00     0.009 A 
ENDBRANCH  19  20
ENDBRANCH  16  19
ENDBRANCH   8  15
BRANCH  10  26
HETATM   26  C   UNL     1       5.492  28.997  51.347  1.00  0.00     0.032 A 
HETATM   27  C   UNL     1       4.730  28.016  50.703  1.00  0.00     0.020 A 
HETATM   28  C   UNL     1       4.379  28.184  49.364  1.00  0.00     0.038 A 
HETATM   29  C   UNL     1       4.769  29.330  48.666  1.00  0.00     0.068 A 
HETATM   30  C   UNL     1       5.510  30.316  49.322  1.00  0.00     0.038 A 
HETATM   31  C   UNL     1       5.859  30.160  50.668  1.00  0.00     0.020 A 
BRANCH  29  32
HETATM   32  O   UNL     1       4.356  29.366  47.364  1.00  0.00    -0.356 OA
HETATM   33  C   UNL     1       2.973  29.139  47.120  1.00  0.00     0.210 C 
ENDBRANCH  29  32
ENDBRANCH  10  26
BRANCH   1  34
HETATM   34  C   UNL     1       7.928  24.624  56.241  1.00  0.00     0.032 A 
HETATM   35  C   UNL     1       7.434  24.139  55.028  1.00  0.00     0.020 A 
HETATM   36  C   UNL     1       7.343  22.760  54.817  1.00  0.00     0.038 A 
HETATM   37  C   UNL     1       7.787  21.861  55.790  1.00  0.00     0.068 A 
HETATM   38  C   UNL     1       8.298  22.348  56.995  1.00  0.00     0.038 A 
HETATM   39  C   UNL     1       8.377  23.729  57.217  1.00  0.00     0.020 A 
BRANCH  37  40
HETATM   40  O   UNL     1       7.662  20.541  55.453  1.00  0.00    -0.356 OA
HETATM   41  C   UNL     1       8.739  19.979  54.711  1.00  0.00     0.210 C 
ENDBRANCH  37  40
ENDBRANCH   1  34
TORSDOF 7
ENDMDL
MODEL 8
REMARK VINA RESULT:      -7.8      2.262      9.925
REMARK  7 active torsions:
REMARK  status: ('A' for Active; 'I' for Inactive)
REMARK    1  A    between atoms: O_2  and  C_3 
REMARK    2  A    between atoms: C_6  and  C_7 
REMARK       I    between atoms: C_7  and  N_8 
REMARK    3  A    between atoms: C_14  and  C_15 
REMARK       I    between atoms: C_15  and  N_16 
REMARK    4  A    between atoms: N_16  and  C_17 
REMARK    5  A    between atoms: C_17  and  C_18 
REMARK       I    between atoms: N_25  and  C_26 
REMARK    6  A    between atoms: C_26  and  C_27 
REMARK    7  A    between atoms: C_30  and  O_31 
ROOT
HETATM    1  C   UNL     1       8.395  26.264  56.521  1.00  0.00     0.253 C 
HETATM    2  N   UNL     1       7.331  27.059  56.066  1.00  0.00    -0.348 N 
HETATM    3  C   UNL     1       6.113  26.506  55.483  1.00  0.00     0.131 C 
HETATM    4  C   UNL     1       4.921  27.437  55.618  1.00  0.00     0.081 C 
HETATM    5  C   UNL     1       5.185  28.868  55.125  1.00  0.00     0.142 C 
HETATM    6  O   UNL     1       4.154  29.679  55.754  1.00  0.00    -0.358 OA
HETATM    7  C   UNL     1       3.104  29.947  54.823  1.00  0.00     0.206 C 
HETATM    8  C   UNL     1       3.538  29.390  53.482  1.00  0.00     0.206 C 
HETATM    9  N   UNL     1       4.946  29.063  53.690  1.00  0.00    -0.300 N 
HETATM   10  C   UNL     1       5.778  28.515  52.725  1.00  0.00     0.257 C 
HETATM   11  O   UNL     1       6.875  28.023  52.957  1.00  0.00    -0.267 OA
HETATM   12  C   UNL     1       6.501  29.410  55.693  1.00  0.00     0.081 C 
HETATM   13  C   UNL     1       7.673  28.437  55.722  1.00  0.00     0.131 C 
HETATM   14  O   UNL     1       9.419  26.731  57.020  1.00  0.00    -0.267 OA
ENDROOT
BRANCH   8  15
HETATM   15  C   UNL     1       3.136  30.402  52.407  1.00  0.00     0.243 C 
HETATM   16  N   UNL     1       2.302  29.951  51.411  1.00  0.00    -0.355 N 
HETATM   17  H   UNL     1       1.805  29.079  51.550  1.00  0.00     0.162 HD
HETATM   18  O   UNL     1       3.653  31.519  52.383  1.00  0.00    -0.271 OA
BRANCH  16  19
HETATM   19  C   UNL     1       1.767  30.899  50.457  1.00  0.00     0.161 C 
BRANCH  19  20
HETATM   20  C   UNL     1       1.522  30.286  49.107  1.00  0.00    -0.041 A 
HETATM   21  C   UNL     1       1.371  28.898  48.971  1.00  0.00     0.009 A 
HETATM   22  C   UNL     1       1.070  28.337  47.728  1.00  0.00     0.001 A 
HETATM   23  C   UNL     1       0.917  29.157  46.610  1.00  0.00     0.000 A 
HETATM   24  C   UNL     1       1.066  30.537  46.733  1.00  0.00     0.001 A 
HETATM   25  C   UNL     1       1.366  31.099  47.974  1.00  0.00     0.009 A 
ENDBRANCH  19  20
ENDBRANCH  16  19
ENDBRANCH   8  15
BRANCH  10  26
HETATM   26  C   UNL     1       5.413  28.585  51.297  1.00  0.00     0.032 A 
HETATM   27  C   UNL     1       5.738  29.755  50.604  1.00  0.00     0.020 A 
HETATM   28  C   UNL     1       5.454  29.853  49.242  1.00  0.00     0.038 A 
HETATM   29  C   UNL     1       4.860  28.785  48.562  1.00  0.00     0.068 A 
HETATM   30  C   UNL     1       4.560  27.611  49.257  1.00  0.00     0.038 A 
HETATM   31  C   UNL     1       4.850  27.501  50.621  1.00  0.00     0.020 A 
BRANCH  29  32
HETATM   32  O   UNL     1       4.639  29.015  47.234  1.00  0.00    -0.356 OA
HETATM   33  C   UNL     1       4.746  30.360  46.786  1.00  0.00     0.210 C 
ENDBRANCH  29  32
ENDBRANCH  10  26
BRANCH   1  34
HETATM   34  C   UNL     1       8.325  24.788  56.407  1.00  0.00     0.032 A 
HETATM   35  C   UNL     1       8.497  23.971  57.528  1.00  0.00     0.020 A 
HETATM   36  C   UNL     1       8.361  22.586  57.403  1.00  0.00     0.038 A 
HETATM   37  C   UNL     1       8.007  22.013  56.178  1.00  0.00     0.068 A 
HETATM   38  C   UNL     1       7.816  22.833  55.064  1.00  0.00     0.038 A 
HETATM   39  C   UNL     1       7.966  24.221  55.181  1.00  0.00     0.020 A 
BRANCH  37  40
HETATM   40  O   UNL     1       7.886  20.651  56.194  1.00  0.00    -0.356 OA
HETATM   41  C   UNL     1       8.503  19.954  55.117  1.00  0.00     0.210 C 
ENDBRANCH  37  40
ENDBRANCH   1  34
TORSDOF 7
ENDMDL
MODEL 9
REMARK VINA RESULT:      -7.8      4.618      7.300
REMARK  7 active torsions:
REMARK  status: ('A' for Active; 'I' for Inactive)
REMARK    1  A    between atoms: O_2  and  C_3 
REMARK    2  A    between atoms: C_6  and  C_7 
REMARK       I    between atoms: C_7  and  N_8 
REMARK    3  A    between atoms: C_14  and  C_15 
REMARK       I    between atoms: C_15  and  N_16 
REMARK    4  A    between atoms: N_16  and  C_17 
REMARK    5  A    between atoms: C_17  and  C_18 
REMARK       I    between atoms: N_25  and  C_26 
REMARK    6  A    between atoms: C_26  and  C_27 
REMARK    7  A    between atoms: C_30  and  O_31 
ROOT
HETATM    1  C   UNL     1       3.305  33.142  59.151  1.00  0.00     0.253 C 
HETATM    2  N   UNL     1       4.057  32.173  58.469  1.00  0.00    -0.348 N 
HETATM    3  C   UNL     1       5.035  32.501  57.437  1.00  0.00     0.131 C 
HETATM    4  C   UNL     1       6.102  31.433  57.277  1.00  0.00     0.081 C 
HETATM    5  C   UNL     1       5.546  30.013  57.097  1.00  0.00     0.142 C 
HETATM    6  O   UNL     1       6.651  29.130  57.437  1.00  0.00    -0.358 OA
HETATM    7  C   UNL     1       7.270  28.639  56.246  1.00  0.00     0.206 C 
HETATM    8  C   UNL     1       6.443  29.127  55.074  1.00  0.00     0.206 C 
HETATM    9  N   UNL     1       5.239  29.659  55.706  1.00  0.00    -0.300 N 
HETATM   10  C   UNL     1       4.175  30.225  55.021  1.00  0.00     0.257 C 
HETATM   11  O   UNL     1       3.284  30.880  55.547  1.00  0.00    -0.267 OA
HETATM   12  C   UNL     1       4.473  29.707  58.148  1.00  0.00     0.081 C 
HETATM   13  C   UNL     1       3.486  30.828  58.448  1.00  0.00     0.131 C 
HETATM   14  O   UNL     1       2.485  32.865  60.028  1.00  0.00    -0.267 OA
ENDROOT
BRANCH   8  15
HETATM   15  C   UNL     1       6.339  27.977  54.069  1.00  0.00     0.243 C 
HETATM   16  N   UNL     1       6.014  26.739  54.573  1.00  0.00    -0.355 N 
HETATM   17  H   UNL     1       5.630  26.681  55.508  1.00  0.00     0.162 HD
HETATM   18  O   UNL     1       6.665  28.150  52.894  1.00  0.00    -0.271 OA
BRANCH  16  19
HETATM   19  C   UNL     1       5.752  25.652  53.655  1.00  0.00     0.161 C 
BRANCH  19  20
HETATM   20  C   UNL     1       6.585  24.435  53.945  1.00  0.00    -0.041 A 
HETATM   21  C   UNL     1       7.160  23.699  52.899  1.00  0.00     0.009 A 
HETATM   22  C   UNL     1       7.994  22.613  53.173  1.00  0.00     0.001 A 
HETATM   23  C   UNL     1       8.262  22.253  54.493  1.00  0.00     0.000 A 
HETATM   24  C   UNL     1       7.695  22.977  55.540  1.00  0.00     0.001 A 
HETATM   25  C   UNL     1       6.862  24.063  55.269  1.00  0.00     0.009 A 
ENDBRANCH  19  20
ENDBRANCH  16  19
ENDBRANCH   8  15
BRANCH  10  26
HETATM   26  C   UNL     1       3.999  29.978  53.576  1.00  0.00     0.032 A 
HETATM   27  C   UNL     1       3.297  28.830  53.198  1.00  0.00     0.020 A 
HETATM   28  C   UNL     1       3.066  28.575  51.847  1.00  0.00     0.038 A 
HETATM   29  C   UNL     1       3.520  29.465  50.869  1.00  0.00     0.068 A 
HETATM   30  C   UNL     1       4.202  30.622  51.256  1.00  0.00     0.038 A 
HETATM   31  C   UNL     1       4.429  30.889  52.611  1.00  0.00     0.020 A 
BRANCH  29  32
HETATM   32  O   UNL     1       3.225  29.094  49.588  1.00  0.00    -0.356 OA
HETATM   33  C   UNL     1       3.943  27.988  49.056  1.00  0.00     0.210 C 
ENDBRANCH  29  32
ENDBRANCH  10  26
BRANCH   1  34
HETATM   34  C   UNL     1       3.470  34.579  58.827  1.00  0.00     0.032 A 
HETATM   35  C   UNL     1       2.875  35.134  57.691  1.00  0.00     0.020 A 
HETATM   36  C   UNL     1       2.994  36.504  57.446  1.00  0.00     0.038 A 
HETATM   37  C   UNL     1       3.662  37.334  58.351  1.00  0.00     0.068 A 
HETATM   38  C   UNL     1       4.239  36.780  59.495  1.00  0.00     0.038 A 
HETATM   39  C   UNL     1       4.136  35.405  59.738  1.00  0.00     0.020 A 
BRANCH  37  40
HETATM   40  O   UNL     1       3.690  38.657  58.005  1.00  0.00    -0.356 OA
HETATM   41  C   UNL     1       3.951  39.576  59.060  1.00  0.00     0.210 C 
ENDBRANCH  37  40
ENDBRANCH   1  34
TORSDOF 7
ENDMDL
MODEL 10
REMARK VINA RESULT:      -7.8      6.459     10.518
REMARK  7 active torsions:
REMARK  status: ('A' for Active; 'I' for Inactive)
REMARK    1  A    between atoms: O_2  and  C_3 
REMARK    2  A    between atoms: C_6  and  C_7 
REMARK       I    between atoms: C_7  and  N_8 
REMARK    3  A    between atoms: C_14  and  C_15 
REMARK       I    between atoms: C_15  and  N_16 
REMARK    4  A    between atoms: N_16  and  C_17 
REMARK    5  A    between atoms: C_17  and  C_18 
REMARK       I    between atoms: N_25  and  C_26 
REMARK    6  A    between atoms: C_26  and  C_27 
REMARK    7  A    between atoms: C_30  and  O_31 
ROOT
HETATM    1  C   UNL     1       4.602  34.921  63.482  1.00  0.00     0.253 C 
HETATM    2  N   UNL     1       5.222  34.010  62.613  1.00  0.00    -0.348 N 
HETATM    3  C   UNL     1       6.042  34.421  61.477  1.00  0.00     0.131 C 
HETATM    4  C   UNL     1       7.050  33.364  61.066  1.00  0.00     0.081 C 
HETATM    5  C   UNL     1       6.444  31.969  60.850  1.00  0.00     0.142 C 
HETATM    6  O   UNL     1       7.568  31.051  60.941  1.00  0.00    -0.358 OA
HETATM    7  C   UNL     1       7.992  30.663  59.633  1.00  0.00     0.206 C 
HETATM    8  C   UNL     1       7.009  31.260  58.646  1.00  0.00     0.206 C 
HETATM    9  N   UNL     1       5.924  31.743  59.496  1.00  0.00    -0.300 N 
HETATM   10  C   UNL     1       4.782  32.375  59.031  1.00  0.00     0.257 C 
HETATM   11  O   UNL     1       3.994  32.988  59.741  1.00  0.00    -0.267 OA
HETATM   12  C   UNL     1       5.534  31.580  62.020  1.00  0.00     0.081 C 
HETATM   13  C   UNL     1       4.627  32.678  62.562  1.00  0.00     0.131 C 
HETATM   14  O   UNL     1       3.917  34.574  64.445  1.00  0.00    -0.267 OA
ENDROOT
BRANCH   8  15
HETATM   15  C   UNL     1       6.731  30.205  57.572  1.00  0.00     0.243 C 
HETATM   16  N   UNL     1       6.054  29.076  57.971  1.00  0.00    -0.355 N 
HETATM   17  H   UNL     1       5.568  29.090  58.859  1.00  0.00     0.162 HD
HETATM   18  O   UNL     1       7.216  30.324  56.447  1.00  0.00    -0.271 OA
BRANCH  16  19
HETATM   19  C   UNL     1       5.630  28.119  56.972  1.00  0.00     0.161 C 
BRANCH  19  20
HETATM   20  C   UNL     1       6.428  26.846  57.015  1.00  0.00    -0.041 A 
HETATM   21  C   UNL     1       5.851  25.630  56.621  1.00  0.00     0.009 A 
HETATM   22  C   UNL     1       6.615  24.461  56.591  1.00  0.00     0.001 A 
HETATM   23  C   UNL     1       7.961  24.496  56.952  1.00  0.00     0.000 A 
HETATM   24  C   UNL     1       8.545  25.699  57.346  1.00  0.00     0.001 A 
HETATM   25  C   UNL     1       7.784  26.868  57.376  1.00  0.00     0.009 A 
ENDBRANCH  19  20
ENDBRANCH  16  19
ENDBRANCH   8  15
BRANCH  10  26
HETATM   26  C   UNL     1       4.387  32.259  57.614  1.00  0.00     0.032 A 
HETATM   27  C   UNL     1       3.426  31.296  57.288  1.00  0.00     0.020 A 
HETATM   28  C   UNL     1       2.988  31.177  55.970  1.00  0.00     0.038 A 
HETATM   29  C   UNL     1       3.490  32.021  54.976  1.00  0.00     0.068 A 
HETATM   30  C   UNL     1       4.432  32.996  55.313  1.00  0.00     0.038 A 
HETATM   31  C   UNL     1       4.871  33.128  56.636  1.00  0.00     0.020 A 
BRANCH  29  32
HETATM   32  O   UNL     1       2.974  31.797  53.731  1.00  0.00    -0.356 OA
HETATM   33  C   UNL     1       3.495  30.690  53.007  1.00  0.00     0.210 C 
ENDBRANCH  29  32
ENDBRANCH  10  26
BRANCH   1  34
HETATM   34  C   UNL     1       4.747  36.380  63.262  1.00  0.00     0.032 A 
HETATM   35  C   UNL     1       5.832  37.083  63.791  1.00  0.00     0.020 A 
HETATM   36  C   UNL     1       5.977  38.445  63.513  1.00  0.00     0.038 A 
HETATM   37  C   UNL     1       5.073  39.100  62.672  1.00  0.00     0.068 A 
HETATM   38  C   UNL     1       4.000  38.390  62.129  1.00  0.00     0.038 A 
HETATM   39  C   UNL     1       3.842  37.029  62.417  1.00  0.00     0.020 A 
BRANCH  37  40
HETATM   40  O   UNL     1       5.338  40.425  62.464  1.00  0.00    -0.356 OA
HETATM   41  C   UNL     1       5.824  41.152  63.588  1.00  0.00     0.210 C 
ENDBRANCH  37  40
ENDBRANCH   1  34
TORSDOF 7
ENDMDL
