MODEL 1
REMARK VINA RESULT:      -9.0      0.000      0.000
REMARK  6 active torsions:
REMARK  status: ('A' for Active; 'I' for Inactive)
REMARK    1  A    between atoms: N_1  and  C_2 
REMARK    2  A    between atoms: C_2  and  C_3 
REMARK    3  A    between atoms: C_2  and  C_11 
REMARK    4  A    between atoms: C_3  and  C_4 
REMARK       I    between atoms: C_11  and  N_13 
REMARK    5  A    between atoms: N_13  and  C_14 
REMARK    6  A    between atoms: C_17  and  C_20 
ROOT
HETATM    1  C   UNL     1       6.128  26.522  54.245  1.00  0.00     0.255 C 
HETATM    2  O   UNL     1       6.561  27.312  53.411  1.00  0.00    -0.271 OA
HETATM    3  N   UNL     1       6.192  26.663  55.619  1.00  0.00    -0.325 N 
HETATM    4  H   UNL     1       5.759  25.887  56.120  1.00  0.00     0.169 HD
ENDROOT
BRANCH   1   5
HETATM    5  C   UNL     1       5.449  25.194  53.827  1.00  0.00     0.313 C 
BRANCH   5   6
HETATM    6  N   UNL     1       4.156  25.473  53.133  1.00  0.00     0.092 N 
HETATM    7  H   UNL     1       3.409  25.086  53.717  1.00  0.00     0.313 HD
HETATM    8  H   UNL     1       4.128  24.912  52.278  1.00  0.00     0.313 HD
ENDBRANCH   5   6
BRANCH   5   9
HETATM    9  C   UNL     1       6.429  24.383  52.958  1.00  0.00     0.083 C 
BRANCH   9  10
HETATM   10  C   UNL     1       7.210  23.337  53.720  1.00  0.00    -0.056 A 
HETATM   11  C   UNL     1       7.187  23.309  55.122  1.00  0.00     0.009 A 
HETATM   12  C   UNL     1       7.900  22.331  55.820  1.00  0.00     0.024 A 
HETATM   13  C   UNL     1       8.637  21.378  55.120  1.00  0.00     0.034 A 
HETATM   14 CL   UNL     1       9.505  20.167  55.980  1.00  0.00    -0.084 Cl
HETATM   15  C   UNL     1       8.670  21.396  53.727  1.00  0.00     0.024 A 
HETATM   16  C   UNL     1       7.961  22.375  53.028  1.00  0.00     0.009 A 
ENDBRANCH   9  10
ENDBRANCH   5   9
ENDBRANCH   1   5
BRANCH   3  17
HETATM   17  C   UNL     1       6.649  27.764  56.361  1.00  0.00     0.034 A 
HETATM   18  C   UNL     1       8.007  27.799  56.693  1.00  0.00     0.030 A 
HETATM   19  C   UNL     1       8.526  28.836  57.480  1.00  0.00     0.014 A 
HETATM   20  C   UNL     1       7.697  29.865  57.944  1.00  0.00    -0.023 A 
HETATM   21  C   UNL     1       6.345  29.840  57.580  1.00  0.00     0.014 A 
HETATM   22  C   UNL     1       5.827  28.800  56.799  1.00  0.00     0.030 A 
BRANCH  20  23
HETATM   23  C   UNL     1       8.235  30.922  58.786  1.00  0.00     0.010 A 
HETATM   24  C   UNL     1       9.524  31.505  58.836  1.00  0.00     0.152 A 
HETATM   25  N   UNL     1       9.636  32.445  59.780  1.00  0.00    -0.187 NA
HETATM   26  N   UNL     1       8.419  32.468  60.343  1.00  0.00    -0.289 N 
HETATM   27  H   UNL     1       8.253  33.114  61.107  1.00  0.00     0.188 HD
HETATM   28  C   UNL     1       7.547  31.575  59.789  1.00  0.00     0.123 A 
ENDBRANCH  20  23
ENDBRANCH   3  17
TORSDOF 6
ENDMDL
MODEL 2
REMARK VINA RESULT:      -8.7      4.081      9.380
REMARK  6 active torsions:
REMARK  status: ('A' for Active; 'I' for Inactive)
REMARK    1  A    between atoms: N_1  and  C_2 
REMARK    2  A    between atoms: C_2  and  C_3 
REMARK    3  A    between atoms: C_2  and  C_11 
REMARK    4  A    between atoms: C_3  and  C_4 
REMARK       I    between atoms: C_11  and  N_13 
REMARK    5  A    between atoms: N_13  and  C_14 
REMARK    6  A    between atoms: C_17  and  C_20 
ROOT
HETATM    1  C   UNL     1       8.759  28.989  57.122  1.00  0.00     0.255 C 
HETATM    2  O   UNL     1       9.823  28.968  56.509  1.00  0.00    -0.271 OA
HETATM    3  N   UNL     1       7.807  27.986  57.146  1.00  0.00    -0.325 N 
HETATM    4  H   UNL     1       7.003  28.215  57.729  1.00  0.00     0.169 HD
ENDROOT
BRANCH   1   5
HETATM    5  C   UNL     1       8.331  30.219  57.960  1.00  0.00     0.313 C 
BRANCH   5   6
HETATM    6  N   UNL     1       7.036  29.944  58.652  1.00  0.00     0.092 N 
HETATM    7  H   UNL     1       6.306  29.928  57.934  1.00  0.00     0.313 HD
HETATM    8  H   UNL     1       6.808  30.757  59.230  1.00  0.00     0.313 HD
ENDBRANCH   5   6
BRANCH   5   9
HETATM    9  C   UNL     1       9.466  30.577  58.938  1.00  0.00     0.083 C 
BRANCH   9  10
HETATM   10  C   UNL     1       8.990  31.161  60.249  1.00  0.00    -0.056 A 
HETATM   11  C   UNL     1       8.383  32.424  60.290  1.00  0.00     0.009 A 
HETATM   12  C   UNL     1       7.933  32.951  61.503  1.00  0.00     0.024 A 
HETATM   13  C   UNL     1       8.087  32.218  62.678  1.00  0.00     0.034 A 
HETATM   14 CL   UNL     1       7.522  32.865  64.168  1.00  0.00    -0.084 Cl
HETATM   15  C   UNL     1       8.691  30.963  62.651  1.00  0.00     0.024 A 
HETATM   16  C   UNL     1       9.145  30.436  61.440  1.00  0.00     0.009 A 
ENDBRANCH   9  10
ENDBRANCH   5   9
ENDBRANCH   1   5
BRANCH   3  17
HETATM   17  C   UNL     1       7.882  26.701  56.585  1.00  0.00     0.034 A 
HETATM   18  C   UNL     1       7.443  26.545  55.267  1.00  0.00     0.030 A 
HETATM   19  C   UNL     1       7.434  25.282  54.659  1.00  0.00     0.014 A 
HETATM   20  C   UNL     1       7.871  24.149  55.357  1.00  0.00    -0.023 A 
HETATM   21  C   UNL     1       8.340  24.319  56.666  1.00  0.00     0.014 A 
HETATM   22  C   UNL     1       8.343  25.580  57.274  1.00  0.00     0.030 A 
BRANCH  20  23
HETATM   23  C   UNL     1       7.830  22.836  54.732  1.00  0.00     0.010 A 
HETATM   24  C   UNL     1       7.848  21.538  55.298  1.00  0.00     0.152 A 
HETATM   25  N   UNL     1       7.824  20.569  54.378  1.00  0.00    -0.187 NA
HETATM   26  N   UNL     1       7.794  21.240  53.217  1.00  0.00    -0.289 N 
HETATM   27  H   UNL     1       7.776  20.709  52.353  1.00  0.00     0.188 HD
HETATM   28  C   UNL     1       7.801  22.597  53.373  1.00  0.00     0.123 A 
ENDBRANCH  20  23
ENDBRANCH   3  17
TORSDOF 6
ENDMDL
MODEL 3
REMARK VINA RESULT:      -8.5      5.664      8.656
REMARK  6 active torsions:
REMARK  status: ('A' for Active; 'I' for Inactive)
REMARK    1  A    between atoms: N_1  and  C_2 
REMARK    2  A    between atoms: C_2  and  C_3 
REMARK    3  A    between atoms: C_2  and  C_11 
REMARK    4  A    between atoms: C_3  and  C_4 
REMARK       I    between atoms: C_11  and  N_13 
REMARK    5  A    between atoms: N_13  and  C_14 
REMARK    6  A    between atoms: C_17  and  C_20 
ROOT
HETATM    1  C   UNL     1       5.095  27.127  52.382  1.00  0.00     0.255 C 
HETATM    2  O   UNL     1       4.228  26.844  53.204  1.00  0.00    -0.271 OA
HETATM    3  N   UNL     1       6.334  26.526  52.256  1.00  0.00    -0.325 N 
HETATM    4  H   UNL     1       6.891  26.916  51.496  1.00  0.00     0.169 HD
ENDROOT
BRANCH   1   5
HETATM    5  C   UNL     1       4.896  28.270  51.357  1.00  0.00     0.313 C 
BRANCH   5   6
HETATM    6  N   UNL     1       5.714  29.458  51.745  1.00  0.00     0.092 N 
HETATM    7  H   UNL     1       6.664  29.125  51.927  1.00  0.00     0.313 HD
HETATM    8  H   UNL     1       5.381  29.789  52.654  1.00  0.00     0.313 HD
ENDBRANCH   5   6
BRANCH   5   9
HETATM    9  C   UNL     1       5.238  27.745  49.949  1.00  0.00     0.083 C 
BRANCH   9  10
HETATM   10  C   UNL     1       4.040  27.587  49.041  1.00  0.00    -0.056 A 
HETATM   11  C   UNL     1       2.879  28.345  49.251  1.00  0.00     0.009 A 
HETATM   12  C   UNL     1       1.781  28.204  48.400  1.00  0.00     0.024 A 
HETATM   13  C   UNL     1       1.839  27.307  47.335  1.00  0.00     0.034 A 
HETATM   14 CL   UNL     1       0.489  27.144  46.281  1.00  0.00    -0.084 Cl
HETATM   15  C   UNL     1       2.986  26.547  47.116  1.00  0.00     0.024 A 
HETATM   16  C   UNL     1       4.083  26.684  47.969  1.00  0.00     0.009 A 
ENDBRANCH   9  10
ENDBRANCH   5   9
ENDBRANCH   1   5
BRANCH   3  17
HETATM   17  C   UNL     1       6.832  25.407  52.942  1.00  0.00     0.034 A 
HETATM   18  C   UNL     1       7.488  24.427  52.191  1.00  0.00     0.030 A 
HETATM   19  C   UNL     1       7.962  23.255  52.797  1.00  0.00     0.014 A 
HETATM   20  C   UNL     1       7.795  23.043  54.170  1.00  0.00    -0.023 A 
HETATM   21  C   UNL     1       7.166  24.043  54.923  1.00  0.00     0.014 A 
HETATM   22  C   UNL     1       6.688  25.211  54.315  1.00  0.00     0.030 A 
BRANCH  20  23
HETATM   23  C   UNL     1       8.260  21.811  54.789  1.00  0.00     0.010 A 
HETATM   24  C   UNL     1       8.664  21.534  56.118  1.00  0.00     0.152 A 
HETATM   25  N   UNL     1       9.056  20.268  56.290  1.00  0.00    -0.187 NA
HETATM   26  N   UNL     1       8.910  19.727  55.071  1.00  0.00    -0.289 N 
HETATM   27  H   UNL     1       9.154  18.751  54.944  1.00  0.00     0.188 HD
HETATM   28  C   UNL     1       8.442  20.608  54.138  1.00  0.00     0.123 A 
ENDBRANCH  20  23
ENDBRANCH   3  17
TORSDOF 6
ENDMDL
MODEL 4
REMARK VINA RESULT:      -8.5      3.815      8.721
REMARK  6 active torsions:
REMARK  status: ('A' for Active; 'I' for Inactive)
REMARK    1  A    between atoms: N_1  and  C_2 
REMARK    2  A    between atoms: C_2  and  C_3 
REMARK    3  A    between atoms: C_2  and  C_11 
REMARK    4  A    between atoms: C_3  and  C_4 
REMARK       I    between atoms: C_11  and  N_13 
REMARK    5  A    between atoms: N_13  and  C_14 
REMARK    6  A    between atoms: C_17  and  C_20 
ROOT
HETATM    1  C   UNL     1       5.539  27.369  56.592  1.00  0.00     0.255 C 
HETATM    2  O   UNL     1       4.719  26.597  57.081  1.00  0.00    -0.271 OA
HETATM    3  N   UNL     1       6.731  27.023  55.983  1.00  0.00    -0.325 N 
HETATM    4  H   UNL     1       7.252  27.829  55.639  1.00  0.00     0.169 HD
ENDROOT
BRANCH   1   5
HETATM    5  C   UNL     1       5.328  28.903  56.629  1.00  0.00     0.313 C 
BRANCH   5   6
HETATM    6  N   UNL     1       4.565  29.288  57.854  1.00  0.00     0.092 N 
HETATM    7  H   UNL     1       4.778  28.593  58.575  1.00  0.00     0.313 HD
HETATM    8  H   UNL     1       3.568  29.157  57.660  1.00  0.00     0.313 HD
ENDBRANCH   5   6
BRANCH   5   9
HETATM    9  C   UNL     1       6.700  29.599  56.538  1.00  0.00     0.083 C 
BRANCH   9  10
HETATM   10  C   UNL     1       7.142  30.262  57.823  1.00  0.00    -0.056 A 
HETATM   11  C   UNL     1       6.568  31.473  58.236  1.00  0.00     0.009 A 
HETATM   12  C   UNL     1       6.971  32.073  59.431  1.00  0.00     0.024 A 
HETATM   13  C   UNL     1       7.948  31.466  60.217  1.00  0.00     0.034 A 
HETATM   14 CL   UNL     1       8.434  32.202  61.694  1.00  0.00    -0.084 Cl
HETATM   15  C   UNL     1       8.528  30.264  59.817  1.00  0.00     0.024 A 
HETATM   16  C   UNL     1       8.129  29.665  58.621  1.00  0.00     0.009 A 
ENDBRANCH   9  10
ENDBRANCH   5   9
ENDBRANCH   1   5
BRANCH   3  17
HETATM   17  C   UNL     1       7.216  25.739  55.686  1.00  0.00     0.034 A 
HETATM   18  C   UNL     1       6.885  25.195  54.442  1.00  0.00     0.030 A 
HETATM   19  C   UNL     1       7.285  23.896  54.098  1.00  0.00     0.014 A 
HETATM   20  C   UNL     1       8.031  23.118  54.991  1.00  0.00    -0.023 A 
HETATM   21  C   UNL     1       8.386  23.681  56.223  1.00  0.00     0.014 A 
HETATM   22  C   UNL     1       7.981  24.977  56.567  1.00  0.00     0.030 A 
BRANCH  20  23
HETATM   23  C   UNL     1       8.416  21.759  54.641  1.00  0.00     0.010 A 
HETATM   24  C   UNL     1       8.356  21.065  53.408  1.00  0.00     0.152 A 
HETATM   25  N   UNL     1       8.784  19.802  53.500  1.00  0.00    -0.187 NA
HETATM   26  N   UNL     1       9.118  19.678  54.793  1.00  0.00    -0.289 N 
HETATM   27  H   UNL     1       9.474  18.785  55.116  1.00  0.00     0.188 HD
HETATM   28  C   UNL     1       8.913  20.817  55.519  1.00  0.00     0.123 A 
ENDBRANCH  20  23
ENDBRANCH   3  17
TORSDOF 6
ENDMDL
MODEL 5
REMARK VINA RESULT:      -8.5      8.856     14.171
REMARK  6 active torsions:
REMARK  status: ('A' for Active; 'I' for Inactive)
REMARK    1  A    between atoms: N_1  and  C_2 
REMARK    2  A    between atoms: C_2  and  C_3 
REMARK    3  A    between atoms: C_2  and  C_11 
REMARK    4  A    between atoms: C_3  and  C_4 
REMARK       I    between atoms: C_11  and  N_13 
REMARK    5  A    between atoms: N_13  and  C_14 
REMARK    6  A    between atoms: C_17  and  C_20 
ROOT
HETATM    1  C   UNL     1       5.163  34.234  65.868  1.00  0.00     0.255 C 
HETATM    2  O   UNL     1       4.211  33.546  65.510  1.00  0.00    -0.271 OA
HETATM    3  N   UNL     1       6.393  34.323  65.241  1.00  0.00    -0.325 N 
HETATM    4  H   UNL     1       7.033  34.964  65.709  1.00  0.00     0.169 HD
ENDROOT
BRANCH   1   5
HETATM    5  C   UNL     1       5.098  35.103  67.148  1.00  0.00     0.313 C 
BRANCH   5   6
HETATM    6  N   UNL     1       3.887  35.978  67.115  1.00  0.00     0.092 N 
HETATM    7  H   UNL     1       4.215  36.947  67.088  1.00  0.00     0.313 HD
HETATM    8  H   UNL     1       3.411  35.894  68.017  1.00  0.00     0.313 HD
ENDBRANCH   5   6
BRANCH   5   9
HETATM    9  C   UNL     1       5.134  34.181  68.382  1.00  0.00     0.083 C 
BRANCH   9  10
HETATM   10  C   UNL     1       6.134  34.598  69.436  1.00  0.00    -0.056 A 
HETATM   11  C   UNL     1       5.739  34.759  70.771  1.00  0.00     0.009 A 
HETATM   12  C   UNL     1       6.671  35.132  71.743  1.00  0.00     0.024 A 
HETATM   13  C   UNL     1       8.000  35.342  71.384  1.00  0.00     0.034 A 
HETATM   14 CL   UNL     1       9.149  35.789  72.584  1.00  0.00    -0.084 Cl
HETATM   15  C   UNL     1       8.405  35.187  70.060  1.00  0.00     0.024 A 
HETATM   16  C   UNL     1       7.474  34.819  69.087  1.00  0.00     0.009 A 
ENDBRANCH   9  10
ENDBRANCH   5   9
ENDBRANCH   1   5
BRANCH   3  17
HETATM   17  C   UNL     1       6.790  33.756  64.020  1.00  0.00     0.034 A 
HETATM   18  C   UNL     1       7.824  32.815  64.050  1.00  0.00     0.030 A 
HETATM   19  C   UNL     1       8.313  32.249  62.866  1.00  0.00     0.014 A 
HETATM   20  C   UNL     1       7.772  32.607  61.625  1.00  0.00    -0.023 A 
HETATM   21  C   UNL     1       6.715  33.525  61.605  1.00  0.00     0.014 A 
HETATM   22  C   UNL     1       6.231  34.095  62.789  1.00  0.00     0.030 A 
BRANCH  20  23
HETATM   23  C   UNL     1       8.305  32.039  60.396  1.00  0.00     0.010 A 
HETATM   24  C   UNL     1       9.609  32.072  59.847  1.00  0.00     0.152 A 
HETATM   25  N   UNL     1       9.695  31.448  58.668  1.00  0.00    -0.187 NA
HETATM   26  N   UNL     1       8.444  31.013  58.453  1.00  0.00    -0.289 N 
HETATM   27  H   UNL     1       8.251  30.502  57.599  1.00  0.00     0.188 HD
HETATM   28  C   UNL     1       7.574  31.344  59.453  1.00  0.00     0.123 A 
ENDBRANCH  20  23
ENDBRANCH   3  17
TORSDOF 6
ENDMDL
MODEL 6
REMARK VINA RESULT:      -8.2      5.020      8.715
REMARK  6 active torsions:
REMARK  status: ('A' for Active; 'I' for Inactive)
REMARK    1  A    between atoms: N_1  and  C_2 
REMARK    2  A    between atoms: C_2  and  C_3 
REMARK    3  A    between atoms: C_2  and  C_11 
REMARK    4  A    between atoms: C_3  and  C_4 
REMARK       I    between atoms: C_11  and  N_13 
REMARK    5  A    between atoms: N_13  and  C_14 
REMARK    6  A    between atoms: C_17  and  C_20 
ROOT
HETATM    1  C   UNL     1       5.567  26.786  52.481  1.00  0.00     0.255 C 
HETATM    2  O   UNL     1       4.502  26.450  52.991  1.00  0.00    -0.271 OA
HETATM    3  N   UNL     1       5.766  27.151  51.162  1.00  0.00    -0.325 N 
HETATM    4  H   UNL     1       6.734  27.401  50.959  1.00  0.00     0.169 HD
ENDROOT
BRANCH   1   5
HETATM    5  C   UNL     1       6.883  26.814  53.297  1.00  0.00     0.313 C 
BRANCH   5   6
HETATM    6  N   UNL     1       7.245  28.221  53.642  1.00  0.00     0.092 N 
HETATM    7  H   UNL     1       8.205  28.374  53.319  1.00  0.00     0.313 HD
HETATM    8  H   UNL     1       7.304  28.293  54.661  1.00  0.00     0.313 HD
ENDBRANCH   5   6
BRANCH   5   9
HETATM    9  C   UNL     1       6.718  25.918  54.541  1.00  0.00     0.083 C 
BRANCH   9  10
HETATM   10  C   UNL     1       7.163  24.488  54.335  1.00  0.00    -0.056 A 
HETATM   11  C   UNL     1       7.556  24.038  53.067  1.00  0.00     0.009 A 
HETATM   12  C   UNL     1       7.978  22.719  52.886  1.00  0.00     0.024 A 
HETATM   13  C   UNL     1       8.010  21.846  53.971  1.00  0.00     0.034 A 
HETATM   14 CL   UNL     1       8.542  20.225  53.749  1.00  0.00    -0.084 Cl
HETATM   15  C   UNL     1       7.620  22.280  55.236  1.00  0.00     0.024 A 
HETATM   16  C   UNL     1       7.193  23.597  55.417  1.00  0.00     0.009 A 
ENDBRANCH   9  10
ENDBRANCH   5   9
ENDBRANCH   1   5
BRANCH   3  17
HETATM   17  C   UNL     1       4.805  27.329  50.154  1.00  0.00     0.034 A 
HETATM   18  C   UNL     1       4.131  28.553  50.113  1.00  0.00     0.030 A 
HETATM   19  C   UNL     1       3.118  28.784  49.172  1.00  0.00     0.014 A 
HETATM   20  C   UNL     1       2.765  27.795  48.246  1.00  0.00    -0.023 A 
HETATM   21  C   UNL     1       3.467  26.583  48.271  1.00  0.00     0.014 A 
HETATM   22  C   UNL     1       4.474  26.352  49.216  1.00  0.00     0.030 A 
BRANCH  20  23
HETATM   23  C   UNL     1       1.692  28.028  47.292  1.00  0.00     0.010 A 
HETATM   24  C   UNL     1       0.711  27.152  46.765  1.00  0.00     0.152 A 
HETATM   25  N   UNL     1      -0.094  27.745  45.878  1.00  0.00    -0.187 NA
HETATM   26  N   UNL     1       0.368  29.003  45.828  1.00  0.00    -0.289 N 
HETATM   27  H   UNL     1      -0.089  29.660  45.205  1.00  0.00     0.188 HD
HETATM   28  C   UNL     1       1.437  29.222  46.649  1.00  0.00     0.123 A 
ENDBRANCH  20  23
ENDBRANCH   3  17
TORSDOF 6
ENDMDL
MODEL 7
REMARK VINA RESULT:      -8.0      5.404      8.296
REMARK  6 active torsions:
REMARK  status: ('A' for Active; 'I' for Inactive)
REMARK    1  A    between atoms: N_1  and  C_2 
REMARK    2  A    between atoms: C_2  and  C_3 
REMARK    3  A    between atoms: C_2  and  C_11 
REMARK    4  A    between atoms: C_3  and  C_4 
REMARK       I    between atoms: C_11  and  N_13 
REMARK    5  A    between atoms: N_13  and  C_14 
REMARK    6  A    between atoms: C_17  and  C_20 
ROOT
HETATM    1  C   UNL     1       5.449  26.782  52.110  1.00  0.00     0.255 C 
HETATM    2  O   UNL     1       6.021  27.837  52.366  1.00  0.00    -0.271 OA
HETATM    3  N   UNL     1       4.616  26.541  51.032  1.00  0.00    -0.325 N 
HETATM    4  H   UNL     1       4.256  25.587  51.012  1.00  0.00     0.169 HD
ENDROOT
BRANCH   1   5
HETATM    5  C   UNL     1       5.581  25.544  53.031  1.00  0.00     0.313 C 
BRANCH   5   6
HETATM    6  N   UNL     1       4.263  24.854  53.160  1.00  0.00     0.092 N 
HETATM    7  H   UNL     1       3.545  25.512  52.841  1.00  0.00     0.313 HD
HETATM    8  H   UNL     1       4.068  24.727  54.156  1.00  0.00     0.313 HD
ENDBRANCH   5   6
BRANCH   5   9
HETATM    9  C   UNL     1       6.684  24.623  52.475  1.00  0.00     0.083 C 
BRANCH   9  10
HETATM   10  C   UNL     1       7.190  23.598  53.465  1.00  0.00    -0.056 A 
HETATM   11  C   UNL     1       7.128  23.846  54.843  1.00  0.00     0.009 A 
HETATM   12  C   UNL     1       7.585  22.889  55.753  1.00  0.00     0.024 A 
HETATM   13  C   UNL     1       8.104  21.682  55.289  1.00  0.00     0.034 A 
HETATM   14 CL   UNL     1       8.655  20.500  56.411  1.00  0.00    -0.084 Cl
HETATM   15  C   UNL     1       8.173  21.425  53.921  1.00  0.00     0.024 A 
HETATM   16  C   UNL     1       7.720  22.382  53.011  1.00  0.00     0.009 A 
ENDBRANCH   9  10
ENDBRANCH   5   9
ENDBRANCH   1   5
BRANCH   3  17
HETATM   17  C   UNL     1       4.330  27.386  49.948  1.00  0.00     0.034 A 
HETATM   18  C   UNL     1       3.589  28.542  50.208  1.00  0.00     0.030 A 
HETATM   19  C   UNL     1       3.216  29.404  49.167  1.00  0.00     0.014 A 
HETATM   20  C   UNL     1       3.584  29.129  47.844  1.00  0.00    -0.023 A 
HETATM   21  C   UNL     1       4.353  27.986  47.596  1.00  0.00     0.014 A 
HETATM   22  C   UNL     1       4.721  27.123  48.636  1.00  0.00     0.030 A 
BRANCH  20  23
HETATM   23  C   UNL     1       3.167  30.010  46.764  1.00  0.00     0.010 A 
HETATM   24  C   UNL     1       3.894  30.963  46.010  1.00  0.00     0.152 A 
HETATM   25  N   UNL     1       3.140  31.602  45.111  1.00  0.00    -0.187 NA
HETATM   26  N   UNL     1       1.923  31.064  45.286  1.00  0.00    -0.289 N 
HETATM   27  H   UNL     1       1.161  31.399  44.707  1.00  0.00     0.188 HD
HETATM   28  C   UNL     1       1.885  30.113  46.264  1.00  0.00     0.123 A 
ENDBRANCH  20  23
ENDBRANCH   3  17
TORSDOF 6
ENDMDL
MODEL 8
REMARK VINA RESULT:      -8.0      3.450      5.540
REMARK  6 active torsions:
REMARK  status: ('A' for Active; 'I' for Inactive)
REMARK    1  A    between atoms: N_1  and  C_2 
REMARK    2  A    between atoms: C_2  and  C_3 
REMARK    3  A    between atoms: C_2  and  C_11 
REMARK    4  A    between atoms: C_3  and  C_4 
REMARK       I    between atoms: C_11  and  N_13 
REMARK    5  A    between atoms: N_13  and  C_14 
REMARK    6  A    between atoms: C_17  and  C_20 
ROOT
HETATM    1  C   UNL     1       7.678  30.176  58.087  1.00  0.00     0.255 C 
HETATM    2  O   UNL     1       6.739  30.864  57.694  1.00  0.00    -0.271 OA
HETATM    3  N   UNL     1       8.284  30.246  59.328  1.00  0.00    -0.325 N 
HETATM    4  H   UNL     1       9.041  29.572  59.440  1.00  0.00     0.169 HD
ENDROOT
BRANCH   1   5
HETATM    5  C   UNL     1       8.340  29.114  57.174  1.00  0.00     0.313 C 
BRANCH   5   6
HETATM    6  N   UNL     1       9.828  29.236  57.239  1.00  0.00     0.092 N 
HETATM    7  H   UNL     1      10.158  28.559  57.932  1.00  0.00     0.313 HD
HETATM    8  H   UNL     1      10.053  30.148  57.645  1.00  0.00     0.313 HD
ENDBRANCH   5   6
BRANCH   5   9
HETATM    9  C   UNL     1       7.839  27.717  57.587  1.00  0.00     0.083 C 
BRANCH   9  10
HETATM   10  C   UNL     1       7.763  26.727  56.447  1.00  0.00    -0.056 A 
HETATM   11  C   UNL     1       7.442  27.153  55.151  1.00  0.00     0.009 A 
HETATM   12  C   UNL     1       7.387  26.235  54.099  1.00  0.00     0.024 A 
HETATM   13  C   UNL     1       7.653  24.889  54.340  1.00  0.00     0.034 A 
HETATM   14 CL   UNL     1       7.596  23.761  53.041  1.00  0.00    -0.084 Cl
HETATM   15  C   UNL     1       7.970  24.452  55.624  1.00  0.00     0.024 A 
HETATM   16  C   UNL     1       8.022  25.368  56.676  1.00  0.00     0.009 A 
ENDBRANCH   9  10
ENDBRANCH   5   9
ENDBRANCH   1   5
BRANCH   3  17
HETATM   17  C   UNL     1       7.906  31.017  60.439  1.00  0.00     0.034 A 
HETATM   18  C   UNL     1       8.615  30.827  61.628  1.00  0.00     0.030 A 
HETATM   19  C   UNL     1       8.259  31.518  62.794  1.00  0.00     0.014 A 
HETATM   20  C   UNL     1       7.188  32.420  62.792  1.00  0.00    -0.023 A 
HETATM   21  C   UNL     1       6.502  32.629  61.588  1.00  0.00     0.014 A 
HETATM   22  C   UNL     1       6.856  31.933  60.426  1.00  0.00     0.030 A 
BRANCH  20  23
HETATM   23  C   UNL     1       6.802  33.111  64.012  1.00  0.00     0.010 A 
HETATM   24  C   UNL     1       5.532  33.305  64.608  1.00  0.00     0.152 A 
HETATM   25  N   UNL     1       5.587  34.029  65.730  1.00  0.00    -0.187 NA
HETATM   26  N   UNL     1       6.893  34.306  65.858  1.00  0.00    -0.289 N 
HETATM   27  H   UNL     1       7.192  34.862  66.652  1.00  0.00     0.188 HD
HETATM   28  C   UNL     1       7.661  33.785  64.856  1.00  0.00     0.123 A 
ENDBRANCH  20  23
ENDBRANCH   3  17
TORSDOF 6
ENDMDL
MODEL 9
REMARK VINA RESULT:      -8.0      1.591      2.148
REMARK  6 active torsions:
REMARK  status: ('A' for Active; 'I' for Inactive)
REMARK    1  A    between atoms: N_1  and  C_2 
REMARK    2  A    between atoms: C_2  and  C_3 
REMARK    3  A    between atoms: C_2  and  C_11 
REMARK    4  A    between atoms: C_3  and  C_4 
REMARK       I    between atoms: C_11  and  N_13 
REMARK    5  A    between atoms: N_13  and  C_14 
REMARK    6  A    between atoms: C_17  and  C_20 
ROOT
HETATM    1  C   UNL     1       5.621  26.391  53.273  1.00  0.00     0.255 C 
HETATM    2  O   UNL     1       4.409  26.529  53.418  1.00  0.00    -0.271 OA
HETATM    3  N   UNL     1       6.612  27.064  53.963  1.00  0.00    -0.325 N 
HETATM    4  H   UNL     1       7.552  26.784  53.684  1.00  0.00     0.169 HD
ENDROOT
BRANCH   1   5
HETATM    5  C   UNL     1       6.204  25.412  52.223  1.00  0.00     0.313 C 
BRANCH   5   6
HETATM    6  N   UNL     1       6.113  26.009  50.857  1.00  0.00     0.092 N 
HETATM    7  H   UNL     1       5.202  26.473  50.789  1.00  0.00     0.313 HD
HETATM    8  H   UNL     1       6.060  25.244  50.180  1.00  0.00     0.313 HD
ENDBRANCH   5   6
BRANCH   5   9
HETATM    9  C   UNL     1       7.648  25.053  52.622  1.00  0.00     0.083 C 
BRANCH   9  10
HETATM   10  C   UNL     1       7.760  23.827  53.500  1.00  0.00    -0.056 A 
HETATM   11  C   UNL     1       7.817  23.951  54.895  1.00  0.00     0.009 A 
HETATM   12  C   UNL     1       7.906  22.814  55.701  1.00  0.00     0.024 A 
HETATM   13  C   UNL     1       7.937  21.550  55.116  1.00  0.00     0.034 A 
HETATM   14 CL   UNL     1       8.036  20.150  56.111  1.00  0.00    -0.084 Cl
HETATM   15  C   UNL     1       7.884  21.414  53.731  1.00  0.00     0.024 A 
HETATM   16  C   UNL     1       7.799  22.550  52.924  1.00  0.00     0.009 A 
ENDBRANCH   9  10
ENDBRANCH   5   9
ENDBRANCH   1   5
BRANCH   3  17
HETATM   17  C   UNL     1       6.472  27.953  55.040  1.00  0.00     0.034 A 
HETATM   18  C   UNL     1       5.797  29.154  54.803  1.00  0.00     0.030 A 
HETATM   19  C   UNL     1       5.667  30.117  55.814  1.00  0.00     0.014 A 
HETATM   20  C   UNL     1       6.206  29.893  57.087  1.00  0.00    -0.023 A 
HETATM   21  C   UNL     1       6.853  28.674  57.327  1.00  0.00     0.014 A 
HETATM   22  C   UNL     1       6.986  27.716  56.314  1.00  0.00     0.030 A 
BRANCH  20  23
HETATM   23  C   UNL     1       6.096  30.908  58.123  1.00  0.00     0.010 A 
HETATM   24  C   UNL     1       4.972  31.611  58.618  1.00  0.00     0.152 A 
HETATM   25  N   UNL     1       5.288  32.497  59.568  1.00  0.00    -0.187 NA
HETATM   26  N   UNL     1       6.618  32.368  59.685  1.00  0.00    -0.289 N 
HETATM   27  H   UNL     1       7.102  32.953  60.358  1.00  0.00     0.188 HD
HETATM   28  C   UNL     1       7.150  31.435  58.842  1.00  0.00     0.123 A 
ENDBRANCH  20  23
ENDBRANCH   3  17
TORSDOF 6
ENDMDL
MODEL 10
REMARK VINA RESULT:      -7.8      6.338      9.110
REMARK  6 active torsions:
REMARK  status: ('A' for Active; 'I' for Inactive)
REMARK    1  A    between atoms: N_1  and  C_2 
REMARK    2  A    between atoms: C_2  and  C_3 
REMARK    3  A    between atoms: C_2  and  C_11 
REMARK    4  A    between atoms: C_3  and  C_4 
REMARK       I    between atoms: C_11  and  N_13 
REMARK    5  A    between atoms: N_13  and  C_14 
REMARK    6  A    between atoms: C_17  and  C_20 
ROOT
HETATM    1  C   UNL     1       4.125  28.381  51.959  1.00  0.00     0.255 C 
HETATM    2  O   UNL     1       4.741  28.999  52.824  1.00  0.00    -0.271 OA
HETATM    3  N   UNL     1       4.331  27.065  51.587  1.00  0.00    -0.325 N 
HETATM    4  H   UNL     1       3.697  26.755  50.851  1.00  0.00     0.169 HD
ENDROOT
BRANCH   1   5
HETATM    5  C   UNL     1       3.006  29.053  51.125  1.00  0.00     0.313 C 
BRANCH   5   6
HETATM    6  N   UNL     1       2.562  30.317  51.786  1.00  0.00     0.092 N 
HETATM    7  H   UNL     1       1.735  30.092  52.346  1.00  0.00     0.313 HD
HETATM    8  H   UNL     1       2.214  30.949  51.060  1.00  0.00     0.313 HD
ENDBRANCH   5   6
BRANCH   5   9
HETATM    9  C   UNL     1       3.519  29.278  49.690  1.00  0.00     0.083 C 
BRANCH   9  10
HETATM   10  C   UNL     1       2.577  28.789  48.614  1.00  0.00    -0.056 A 
HETATM   11  C   UNL     1       2.137  27.457  48.601  1.00  0.00     0.009 A 
HETATM   12  C   UNL     1       1.256  27.015  47.612  1.00  0.00     0.024 A 
HETATM   13  C   UNL     1       0.810  27.900  46.633  1.00  0.00     0.034 A 
HETATM   14 CL   UNL     1      -0.284  27.356  45.423  1.00  0.00    -0.084 Cl
HETATM   15  C   UNL     1       1.241  29.225  46.634  1.00  0.00     0.024 A 
HETATM   16  C   UNL     1       2.125  29.668  47.619  1.00  0.00     0.009 A 
ENDBRANCH   9  10
ENDBRANCH   5   9
ENDBRANCH   1   5
BRANCH   3  17
HETATM   17  C   UNL     1       5.189  26.120  52.172  1.00  0.00     0.034 A 
HETATM   18  C   UNL     1       6.363  25.800  51.483  1.00  0.00     0.030 A 
HETATM   19  C   UNL     1       7.240  24.824  51.976  1.00  0.00     0.014 A 
HETATM   20  C   UNL     1       6.963  24.152  53.172  1.00  0.00    -0.023 A 
HETATM   21  C   UNL     1       5.801  24.500  53.873  1.00  0.00     0.014 A 
HETATM   22  C   UNL     1       4.923  25.471  53.377  1.00  0.00     0.030 A 
BRANCH  20  23
HETATM   23  C   UNL     1       7.860  23.117  53.663  1.00  0.00     0.010 A 
HETATM   24  C   UNL     1       8.097  21.799  53.203  1.00  0.00     0.152 A 
HETATM   25  N   UNL     1       8.990  21.140  53.948  1.00  0.00    -0.187 NA
HETATM   26  N   UNL     1       9.328  22.031  54.892  1.00  0.00    -0.289 N 
HETATM   27  H   UNL     1      10.005  21.755  55.595  1.00  0.00     0.188 HD
HETATM   28  C   UNL     1       8.678  23.226  54.769  1.00  0.00     0.123 A 
ENDBRANCH  20  23
ENDBRANCH   3  17
TORSDOF 6
ENDMDL
