MODEL 1
REMARK VINA RESULT:      -8.7      0.000      0.000
REMARK  2 active torsions:
REMARK  status: ('A' for Active; 'I' for Inactive)
REMARK    1  A    between atoms: C_11  and  N_12 
REMARK       I    between atoms: N_12  and  C_13 
REMARK    2  A    between atoms: C_13  and  C_14 
ROOT
HETATM    1  N   UNL     1       5.772  26.052  55.490  1.00  0.00    -0.351 N 
HETATM    2  C   UNL     1       6.503  24.932  55.861  1.00  0.00     0.273 C 
HETATM    3  O   UNL     1       6.707  24.622  57.028  1.00  0.00    -0.266 OA
HETATM    4  H   UNL     1       5.916  26.263  54.500  1.00  0.00     0.163 HD
ENDROOT
BRANCH   1   5
HETATM    5  C   UNL     1       5.390  27.089  56.427  1.00  0.00     0.089 C 
HETATM    6  C   UNL     1       4.339  28.073  55.898  1.00  0.00     0.063 C 
HETATM    7  C   UNL     1       4.843  29.051  54.831  1.00  0.00     0.121 C 
HETATM    8  N   UNL     1       6.121  29.707  55.311  1.00  0.00    -0.059 N 
HETATM    9  C   UNL     1       5.052  28.426  53.448  1.00  0.00     0.046 C 
HETATM   10  C   UNL     1       3.816  30.192  54.668  1.00  0.00     0.046 C 
HETATM   11  C   UNL     1       7.212  28.879  55.958  1.00  0.00     0.121 C 
HETATM   12  H   UNL     1       5.846  30.431  55.991  1.00  0.00     0.279 HD
HETATM   13  H   UNL     1       6.529  30.241  54.529  1.00  0.00     0.279 HD
HETATM   14  C   UNL     1       8.098  28.240  54.883  1.00  0.00     0.046 C 
HETATM   15  C   UNL     1       8.091  29.876  56.743  1.00  0.00     0.046 C 
HETATM   16  C   UNL     1       6.604  27.867  56.945  1.00  0.00     0.063 C 
ENDBRANCH   1   5
BRANCH   2  17
HETATM   17  C   UNL     1       6.985  24.163  54.705  1.00  0.00     0.157 A 
HETATM   18  N   UNL     1       7.043  24.729  53.478  1.00  0.00    -0.168 NA
HETATM   19  N   UNL     1       7.512  23.735  52.694  1.00  0.00    -0.277 N 
HETATM   20  H   UNL     1       7.646  23.917  51.706  1.00  0.00     0.189 HD
HETATM   21  C   UNL     1       7.757  22.564  53.354  1.00  0.00     0.063 A 
HETATM   22  C   UNL     1       7.430  22.811  54.682  1.00  0.00     0.028 A 
HETATM   23  C   UNL     1       8.235  21.330  52.903  1.00  0.00     0.032 A 
HETATM   24  C   UNL     1       7.589  21.778  55.626  1.00  0.00     0.016 A 
HETATM   25  C   UNL     1       8.069  20.535  55.196  1.00  0.00     0.001 A 
HETATM   26  C   UNL     1       8.383  20.317  53.856  1.00  0.00     0.002 A 
ENDBRANCH   2  17
TORSDOF 2
ENDMDL
MODEL 2
REMARK VINA RESULT:      -8.6      1.753      3.213
REMARK  2 active torsions:
REMARK  status: ('A' for Active; 'I' for Inactive)
REMARK    1  A    between atoms: C_11  and  N_12 
REMARK       I    between atoms: N_12  and  C_13 
REMARK    2  A    between atoms: C_13  and  C_14 
ROOT
HETATM    1  N   UNL     1       7.346  25.776  54.182  1.00  0.00    -0.351 N 
HETATM    2  C   UNL     1       7.921  24.970  53.209  1.00  0.00     0.273 C 
HETATM    3  O   UNL     1       8.404  25.412  52.174  1.00  0.00    -0.266 OA
HETATM    4  H   UNL     1       6.801  25.212  54.838  1.00  0.00     0.163 HD
ENDROOT
BRANCH   1   5
HETATM    5  C   UNL     1       7.043  27.176  53.968  1.00  0.00     0.089 C 
HETATM    6  C   UNL     1       8.014  28.152  54.644  1.00  0.00     0.063 C 
HETATM    7  C   UNL     1       7.897  28.232  56.170  1.00  0.00     0.121 C 
HETATM    8  N   UNL     1       6.446  28.435  56.555  1.00  0.00    -0.059 N 
HETATM    9  C   UNL     1       8.483  27.028  56.913  1.00  0.00     0.046 C 
HETATM   10  C   UNL     1       8.647  29.487  56.667  1.00  0.00     0.046 C 
HETATM   11  C   UNL     1       5.356  27.619  55.892  1.00  0.00     0.121 C 
HETATM   12  H   UNL     1       6.229  29.427  56.383  1.00  0.00     0.279 HD
HETATM   13  H   UNL     1       6.362  28.333  57.577  1.00  0.00     0.279 HD
HETATM   14  C   UNL     1       5.216  26.260  56.588  1.00  0.00     0.046 C 
HETATM   15  C   UNL     1       4.043  28.394  56.131  1.00  0.00     0.046 C 
HETATM   16  C   UNL     1       5.607  27.518  54.377  1.00  0.00     0.063 C 
ENDBRANCH   1   5
BRANCH   2  17
HETATM   17  C   UNL     1       7.894  23.545  53.566  1.00  0.00     0.157 A 
HETATM   18  N   UNL     1       7.695  22.602  52.617  1.00  0.00    -0.168 NA
HETATM   19  N   UNL     1       7.724  21.445  53.312  1.00  0.00    -0.277 N 
HETATM   20  H   UNL     1       7.594  20.573  52.812  1.00  0.00     0.189 HD
HETATM   21  C   UNL     1       7.930  21.598  54.655  1.00  0.00     0.063 A 
HETATM   22  C   UNL     1       8.056  22.967  54.857  1.00  0.00     0.028 A 
HETATM   23  C   UNL     1       8.019  20.662  55.690  1.00  0.00     0.032 A 
HETATM   24  C   UNL     1       8.289  23.443  56.162  1.00  0.00     0.016 A 
HETATM   25  C   UNL     1       8.385  22.523  57.213  1.00  0.00     0.001 A 
HETATM   26  C   UNL     1       8.249  21.156  56.978  1.00  0.00     0.002 A 
ENDBRANCH   2  17
TORSDOF 2
ENDMDL
MODEL 3
REMARK VINA RESULT:      -8.4      1.677      3.104
REMARK  2 active torsions:
REMARK  status: ('A' for Active; 'I' for Inactive)
REMARK    1  A    between atoms: C_11  and  N_12 
REMARK       I    between atoms: N_12  and  C_13 
REMARK    2  A    between atoms: C_13  and  C_14 
ROOT
HETATM    1  N   UNL     1       7.748  26.581  55.132  1.00  0.00    -0.351 N 
HETATM    2  C   UNL     1       7.525  25.497  54.294  1.00  0.00     0.273 C 
HETATM    3  O   UNL     1       7.208  25.616  53.117  1.00  0.00    -0.266 OA
HETATM    4  H   UNL     1       7.766  26.280  56.109  1.00  0.00     0.163 HD
ENDROOT
BRANCH   1   5
HETATM    5  C   UNL     1       7.397  27.939  54.774  1.00  0.00     0.089 C 
HETATM    6  C   UNL     1       8.027  29.019  55.663  1.00  0.00     0.063 C 
HETATM    7  C   UNL     1       7.451  29.112  57.080  1.00  0.00     0.121 C 
HETATM    8  N   UNL     1       5.939  29.174  57.007  1.00  0.00    -0.059 N 
HETATM    9  C   UNL     1       7.894  27.985  58.018  1.00  0.00     0.046 C 
HETATM   10  C   UNL     1       7.899  30.444  57.720  1.00  0.00     0.046 C 
HETATM   11  C   UNL     1       5.177  28.242  56.088  1.00  0.00     0.121 C 
HETATM   12  H   UNL     1       5.694  30.136  56.733  1.00  0.00     0.279 HD
HETATM   13  H   UNL     1       5.561  29.081  57.961  1.00  0.00     0.279 HD
HETATM   14  C   UNL     1       4.959  26.887  56.772  1.00  0.00     0.046 C 
HETATM   15  C   UNL     1       3.788  28.885  55.890  1.00  0.00     0.046 C 
HETATM   16  C   UNL     1       5.879  28.142  54.722  1.00  0.00     0.063 C 
ENDBRANCH   1   5
BRANCH   2  17
HETATM   17  C   UNL     1       7.724  24.209  54.970  1.00  0.00     0.157 A 
HETATM   18  N   UNL     1       7.766  24.139  56.321  1.00  0.00    -0.168 NA
HETATM   19  N   UNL     1       7.970  22.827  56.563  1.00  0.00    -0.277 N 
HETATM   20  H   UNL     1       8.040  22.515  57.525  1.00  0.00     0.189 HD
HETATM   21  C   UNL     1       8.060  22.053  55.440  1.00  0.00     0.063 A 
HETATM   22  C   UNL     1       7.894  22.928  54.373  1.00  0.00     0.028 A 
HETATM   23  C   UNL     1       8.267  20.680  55.277  1.00  0.00     0.032 A 
HETATM   24  C   UNL     1       7.929  22.415  53.061  1.00  0.00     0.016 A 
HETATM   25  C   UNL     1       8.131  21.042  52.875  1.00  0.00     0.001 A 
HETATM   26  C   UNL     1       8.300  20.192  53.966  1.00  0.00     0.002 A 
ENDBRANCH   2  17
TORSDOF 2
ENDMDL
MODEL 4
REMARK VINA RESULT:      -7.8      3.588      6.518
REMARK  2 active torsions:
REMARK  status: ('A' for Active; 'I' for Inactive)
REMARK    1  A    between atoms: C_11  and  N_12 
REMARK       I    between atoms: N_12  and  C_13 
REMARK    2  A    between atoms: C_13  and  C_14 
ROOT
HETATM    1  N   UNL     1       5.262  26.760  52.746  1.00  0.00    -0.351 N 
HETATM    2  C   UNL     1       4.311  27.751  52.552  1.00  0.00     0.273 C 
HETATM    3  O   UNL     1       3.388  27.957  53.331  1.00  0.00    -0.266 OA
HETATM    4  H   UNL     1       5.792  26.598  51.888  1.00  0.00     0.163 HD
ENDROOT
BRANCH   1   5
HETATM    5  C   UNL     1       5.124  25.722  53.747  1.00  0.00     0.089 C 
HETATM    6  C   UNL     1       5.637  26.104  55.141  1.00  0.00     0.063 C 
HETATM    7  C   UNL     1       7.162  26.197  55.269  1.00  0.00     0.121 C 
HETATM    8  N   UNL     1       7.794  24.944  54.697  1.00  0.00    -0.059 N 
HETATM    9  C   UNL     1       7.775  27.444  54.626  1.00  0.00     0.046 C 
HETATM   10  C   UNL     1       7.541  26.218  56.766  1.00  0.00     0.046 C 
HETATM   11  C   UNL     1       7.316  24.379  53.376  1.00  0.00     0.121 C 
HETATM   12  H   UNL     1       7.676  24.203  55.404  1.00  0.00     0.279 HD
HETATM   13  H   UNL     1       8.813  25.085  54.649  1.00  0.00     0.279 HD
HETATM   14  C   UNL     1       8.005  25.101  52.213  1.00  0.00     0.046 C 
HETATM   15  C   UNL     1       7.788  22.910  53.349  1.00  0.00     0.046 C 
HETATM   16  C   UNL     1       5.779  24.410  53.303  1.00  0.00     0.063 C 
ENDBRANCH   1   5
BRANCH   2  17
HETATM   17  C   UNL     1       4.544  28.526  51.325  1.00  0.00     0.157 A 
HETATM   18  N   UNL     1       4.672  29.872  51.375  1.00  0.00    -0.168 NA
HETATM   19  N   UNL     1       4.858  30.219  50.084  1.00  0.00    -0.277 N 
HETATM   20  H   UNL     1       4.982  31.199  49.857  1.00  0.00     0.189 HD
HETATM   21  C   UNL     1       4.857  29.168  49.211  1.00  0.00     0.063 A 
HETATM   22  C   UNL     1       4.662  28.036  49.994  1.00  0.00     0.028 A 
HETATM   23  C   UNL     1       5.013  29.118  47.822  1.00  0.00     0.032 A 
HETATM   24  C   UNL     1       4.622  26.774  49.368  1.00  0.00     0.016 A 
HETATM   25  C   UNL     1       4.779  26.701  47.979  1.00  0.00     0.001 A 
HETATM   26  C   UNL     1       4.969  27.855  47.221  1.00  0.00     0.002 A 
ENDBRANCH   2  17
TORSDOF 2
ENDMDL
MODEL 5
REMARK VINA RESULT:      -7.8      2.463      6.752
REMARK  2 active torsions:
REMARK  status: ('A' for Active; 'I' for Inactive)
REMARK    1  A    between atoms: C_11  and  N_12 
REMARK       I    between atoms: N_12  and  C_13 
REMARK    2  A    between atoms: C_13  and  C_14 
ROOT
HETATM    1  N   UNL     1       6.204  27.870  57.199  1.00  0.00    -0.351 N 
HETATM    2  C   UNL     1       5.802  29.176  57.443  1.00  0.00     0.273 C 
HETATM    3  O   UNL     1       4.651  29.564  57.281  1.00  0.00    -0.266 OA
HETATM    4  H   UNL     1       7.224  27.810  57.165  1.00  0.00     0.163 HD
ENDROOT
BRANCH   1   5
HETATM    5  C   UNL     1       5.374  26.907  56.505  1.00  0.00     0.089 C 
HETATM    6  C   UNL     1       5.786  25.443  56.709  1.00  0.00     0.063 C 
HETATM    7  C   UNL     1       7.078  25.027  55.999  1.00  0.00     0.121 C 
HETATM    8  N   UNL     1       7.017  25.458  54.547  1.00  0.00    -0.059 N 
HETATM    9  C   UNL     1       8.358  25.550  56.657  1.00  0.00     0.046 C 
HETATM   10  C   UNL     1       7.168  23.485  55.980  1.00  0.00     0.046 C 
HETATM   11  C   UNL     1       6.525  26.841  54.179  1.00  0.00     0.121 C 
HETATM   12  H   UNL     1       6.411  24.781  54.062  1.00  0.00     0.279 HD
HETATM   13  H   UNL     1       7.945  25.312  54.123  1.00  0.00     0.279 HD
HETATM   14  C   UNL     1       7.667  27.857  54.297  1.00  0.00     0.046 C 
HETATM   15  C   UNL     1       6.131  26.767  52.688  1.00  0.00     0.046 C 
HETATM   16  C   UNL     1       5.280  27.207  55.006  1.00  0.00     0.063 C 
ENDBRANCH   1   5
BRANCH   2  17
HETATM   17  C   UNL     1       6.900  30.025  57.924  1.00  0.00     0.157 A 
HETATM   18  N   UNL     1       6.653  31.062  58.758  1.00  0.00    -0.168 NA
HETATM   19  N   UNL     1       7.874  31.598  58.964  1.00  0.00    -0.277 N 
HETATM   20  H   UNL     1       7.955  32.408  59.569  1.00  0.00     0.189 HD
HETATM   21  C   UNL     1       8.889  30.960  58.307  1.00  0.00     0.063 A 
HETATM   22  C   UNL     1       8.286  29.914  57.619  1.00  0.00     0.028 A 
HETATM   23  C   UNL     1      10.265  31.210  58.264  1.00  0.00     0.032 A 
HETATM   24  C   UNL     1       9.090  29.056  56.844  1.00  0.00     0.016 A 
HETATM   25  C   UNL     1      10.470  29.286  56.790  1.00  0.00     0.001 A 
HETATM   26  C   UNL     1      11.045  30.346  57.487  1.00  0.00     0.002 A 
ENDBRANCH   2  17
TORSDOF 2
ENDMDL
MODEL 6
REMARK VINA RESULT:      -7.6      3.512      7.896
REMARK  2 active torsions:
REMARK  status: ('A' for Active; 'I' for Inactive)
REMARK    1  A    between atoms: C_11  and  N_12 
REMARK       I    between atoms: N_12  and  C_13 
REMARK    2  A    between atoms: C_13  and  C_14 
ROOT
HETATM    1  N   UNL     1       6.490  28.861  57.767  1.00  0.00    -0.351 N 
HETATM    2  C   UNL     1       6.529  30.235  57.953  1.00  0.00     0.273 C 
HETATM    3  O   UNL     1       5.642  30.989  57.568  1.00  0.00    -0.266 OA
HETATM    4  H   UNL     1       7.409  28.450  57.940  1.00  0.00     0.163 HD
ENDROOT
BRANCH   1   5
HETATM    5  C   UNL     1       5.532  28.210  56.897  1.00  0.00     0.089 C 
HETATM    6  C   UNL     1       5.517  26.679  56.993  1.00  0.00     0.063 C 
HETATM    7  C   UNL     1       6.735  25.978  56.381  1.00  0.00     0.121 C 
HETATM    8  N   UNL     1       6.974  26.510  54.983  1.00  0.00    -0.059 N 
HETATM    9  C   UNL     1       8.013  26.086  57.218  1.00  0.00     0.046 C 
HETATM   10  C   UNL     1       6.421  24.475  56.215  1.00  0.00     0.046 C 
HETATM   11  C   UNL     1       6.911  27.998  54.708  1.00  0.00     0.121 C 
HETATM   12  H   UNL     1       6.278  26.060  54.371  1.00  0.00     0.279 HD
HETATM   13  H   UNL     1       7.877  26.148  54.644  1.00  0.00     0.279 HD
HETATM   14  C   UNL     1       8.255  28.654  55.046  1.00  0.00     0.046 C 
HETATM   15  C   UNL     1       6.704  28.138  53.184  1.00  0.00     0.046 C 
HETATM   16  C   UNL     1       5.711  28.629  55.434  1.00  0.00     0.063 C 
ENDBRANCH   1   5
BRANCH   2  17
HETATM   17  C   UNL     1       7.734  30.676  58.667  1.00  0.00     0.157 A 
HETATM   18  N   UNL     1       8.954  30.568  58.091  1.00  0.00    -0.168 NA
HETATM   19  N   UNL     1       9.791  31.050  59.034  1.00  0.00    -0.277 N 
HETATM   20  H   UNL     1      10.785  31.075  58.835  1.00  0.00     0.189 HD
HETATM   21  C   UNL     1       9.173  31.461  60.181  1.00  0.00     0.063 A 
HETATM   22  C   UNL     1       7.817  31.238  59.973  1.00  0.00     0.028 A 
HETATM   23  C   UNL     1       9.684  32.005  61.364  1.00  0.00     0.032 A 
HETATM   24  C   UNL     1       6.907  31.577  60.993  1.00  0.00     0.016 A 
HETATM   25  C   UNL     1       7.397  32.126  62.184  1.00  0.00     0.001 A 
HETATM   26  C   UNL     1       8.763  32.333  62.365  1.00  0.00     0.002 A 
ENDBRANCH   2  17
TORSDOF 2
ENDMDL
MODEL 7
REMARK VINA RESULT:      -7.5      4.758      6.381
REMARK  2 active torsions:
REMARK  status: ('A' for Active; 'I' for Inactive)
REMARK    1  A    between atoms: C_11  and  N_12 
REMARK       I    between atoms: N_12  and  C_13 
REMARK    2  A    between atoms: C_13  and  C_14 
ROOT
HETATM    1  N   UNL     1       3.877  27.624  50.558  1.00  0.00    -0.351 N 
HETATM    2  C   UNL     1       4.441  27.649  51.825  1.00  0.00     0.273 C 
HETATM    3  O   UNL     1       4.117  28.458  52.687  1.00  0.00    -0.266 OA
HETATM    4  H   UNL     1       4.437  27.047  49.927  1.00  0.00     0.163 HD
ENDROOT
BRANCH   1   5
HETATM    5  C   UNL     1       3.037  28.689  50.049  1.00  0.00     0.089 C 
HETATM    6  C   UNL     1       1.770  28.213  49.325  1.00  0.00     0.063 C 
HETATM    7  C   UNL     1       2.007  27.575  47.952  1.00  0.00     0.121 C 
HETATM    8  N   UNL     1       2.894  28.481  47.121  1.00  0.00    -0.059 N 
HETATM    9  C   UNL     1       2.590  26.160  48.004  1.00  0.00     0.046 C 
HETATM   10  C   UNL     1       0.663  27.490  47.197  1.00  0.00     0.046 C 
HETATM   11  C   UNL     1       4.126  29.116  47.730  1.00  0.00     0.121 C 
HETATM   12  H   UNL     1       2.297  29.247  46.776  1.00  0.00     0.279 HD
HETATM   13  H   UNL     1       3.169  27.974  46.267  1.00  0.00     0.279 HD
HETATM   14  C   UNL     1       5.304  28.136  47.683  1.00  0.00     0.046 C 
HETATM   15  C   UNL     1       4.484  30.307  46.816  1.00  0.00     0.046 C 
HETATM   16  C   UNL     1       3.815  29.646  49.141  1.00  0.00     0.063 C 
ENDBRANCH   1   5
BRANCH   2  17
HETATM   17  C   UNL     1       5.449  26.598  52.017  1.00  0.00     0.157 A 
HETATM   18  N   UNL     1       6.180  26.147  50.971  1.00  0.00    -0.168 NA
HETATM   19  N   UNL     1       6.969  25.201  51.523  1.00  0.00    -0.277 N 
HETATM   20  H   UNL     1       7.623  24.704  50.928  1.00  0.00     0.189 HD
HETATM   21  C   UNL     1       6.782  25.022  52.865  1.00  0.00     0.063 A 
HETATM   22  C   UNL     1       5.794  25.931  53.226  1.00  0.00     0.028 A 
HETATM   23  C   UNL     1       7.390  24.153  53.777  1.00  0.00     0.032 A 
HETATM   24  C   UNL     1       5.385  25.991  54.573  1.00  0.00     0.016 A 
HETATM   25  C   UNL     1       5.983  25.133  55.503  1.00  0.00     0.001 A 
HETATM   26  C   UNL     1       6.967  24.229  55.108  1.00  0.00     0.002 A 
ENDBRANCH   2  17
TORSDOF 2
ENDMDL
MODEL 8
REMARK VINA RESULT:      -7.3      4.351      6.804
REMARK  2 active torsions:
REMARK  status: ('A' for Active; 'I' for Inactive)
REMARK    1  A    between atoms: C_11  and  N_12 
REMARK       I    between atoms: N_12  and  C_13 
REMARK    2  A    between atoms: C_13  and  C_14 
ROOT
HETATM    1  N   UNL     1       5.630  27.403  51.661  1.00  0.00    -0.351 N 
HETATM    2  C   UNL     1       5.255  28.545  50.968  1.00  0.00     0.273 C 
HETATM    3  O   UNL     1       5.974  29.531  50.864  1.00  0.00    -0.266 OA
HETATM    4  H   UNL     1       4.819  26.804  51.830  1.00  0.00     0.163 HD
ENDROOT
BRANCH   1   5
HETATM    5  C   UNL     1       6.790  27.351  52.526  1.00  0.00     0.089 C 
HETATM    6  C   UNL     1       7.176  25.943  52.996  1.00  0.00     0.063 C 
HETATM    7  C   UNL     1       6.227  25.319  54.026  1.00  0.00     0.121 C 
HETATM    8  N   UNL     1       5.985  26.304  55.151  1.00  0.00    -0.059 N 
HETATM    9  C   UNL     1       4.895  24.834  53.446  1.00  0.00     0.046 C 
HETATM   10  C   UNL     1       6.918  24.098  54.672  1.00  0.00     0.046 C 
HETATM   11  C   UNL     1       5.700  27.760  54.847  1.00  0.00     0.121 C 
HETATM   12  H   UNL     1       6.821  26.279  55.753  1.00  0.00     0.279 HD
HETATM   13  H   UNL     1       5.233  25.937  55.751  1.00  0.00     0.279 HD
HETATM   14  C   UNL     1       4.212  27.952  54.533  1.00  0.00     0.046 C 
HETATM   15  C   UNL     1       5.997  28.531  56.151  1.00  0.00     0.046 C 
HETATM   16  C   UNL     1       6.639  28.272  53.741  1.00  0.00     0.063 C 
ENDBRANCH   1   5
BRANCH   2  17
HETATM   17  C   UNL     1       3.918  28.431  50.370  1.00  0.00     0.157 A 
HETATM   18  N   UNL     1       2.862  29.075  50.917  1.00  0.00    -0.168 NA
HETATM   19  N   UNL     1       1.832  28.727  50.117  1.00  0.00    -0.277 N 
HETATM   20  H   UNL     1       0.909  29.092  50.326  1.00  0.00     0.189 HD
HETATM   21  C   UNL     1       2.172  27.895  49.088  1.00  0.00     0.063 A 
HETATM   22  C   UNL     1       3.540  27.686  49.217  1.00  0.00     0.028 A 
HETATM   23  C   UNL     1       1.405  27.323  48.068  1.00  0.00     0.032 A 
HETATM   24  C   UNL     1       4.194  26.863  48.279  1.00  0.00     0.016 A 
HETATM   25  C   UNL     1       3.445  26.282  47.248  1.00  0.00     0.001 A 
HETATM   26  C   UNL     1       2.074  26.508  47.148  1.00  0.00     0.002 A 
ENDBRANCH   2  17
TORSDOF 2
ENDMDL
MODEL 9
REMARK VINA RESULT:      -7.2      4.003      5.893
REMARK  2 active torsions:
REMARK  status: ('A' for Active; 'I' for Inactive)
REMARK    1  A    between atoms: C_11  and  N_12 
REMARK       I    between atoms: N_12  and  C_13 
REMARK    2  A    between atoms: C_13  and  C_14 
ROOT
HETATM    1  N   UNL     1       5.223  27.550  50.568  1.00  0.00    -0.351 N 
HETATM    2  C   UNL     1       4.917  26.287  51.054  1.00  0.00     0.273 C 
HETATM    3  O   UNL     1       4.565  25.359  50.335  1.00  0.00    -0.266 OA
HETATM    4  H   UNL     1       5.260  28.228  51.331  1.00  0.00     0.163 HD
ENDROOT
BRANCH   1   5
HETATM    5  C   UNL     1       4.927  27.965  49.212  1.00  0.00     0.089 C 
HETATM    6  C   UNL     1       5.583  29.286  48.790  1.00  0.00     0.063 C 
HETATM    7  C   UNL     1       4.989  30.542  49.436  1.00  0.00     0.121 C 
HETATM    8  N   UNL     1       3.481  30.522  49.286  1.00  0.00    -0.059 N 
HETATM    9  C   UNL     1       5.375  30.741  50.905  1.00  0.00     0.046 C 
HETATM   10  C   UNL     1       5.476  31.786  48.661  1.00  0.00     0.046 C 
HETATM   11  C   UNL     1       2.700  29.254  49.561  1.00  0.00     0.121 C 
HETATM   12  H   UNL     1       3.276  30.799  48.315  1.00  0.00     0.279 HD
HETATM   13  H   UNL     1       3.085  31.286  49.853  1.00  0.00     0.279 HD
HETATM   14  C   UNL     1       2.422  29.121  51.063  1.00  0.00     0.046 C 
HETATM   15  C   UNL     1       1.339  29.434  48.857  1.00  0.00     0.046 C 
HETATM   16  C   UNL     1       3.419  28.037  48.953  1.00  0.00     0.063 C 
ENDBRANCH   1   5
BRANCH   2  17
HETATM   17  C   UNL     1       5.074  26.188  52.511  1.00  0.00     0.157 A 
HETATM   18  N   UNL     1       4.452  27.066  53.332  1.00  0.00    -0.168 NA
HETATM   19  N   UNL     1       4.837  26.672  54.564  1.00  0.00    -0.277 N 
HETATM   20  H   UNL     1       4.495  27.186  55.369  1.00  0.00     0.189 HD
HETATM   21  C   UNL     1       5.672  25.590  54.577  1.00  0.00     0.063 A 
HETATM   22  C   UNL     1       5.843  25.239  53.243  1.00  0.00     0.028 A 
HETATM   23  C   UNL     1       6.278  24.900  55.632  1.00  0.00     0.032 A 
HETATM   24  C   UNL     1       6.659  24.134  52.930  1.00  0.00     0.016 A 
HETATM   25  C   UNL     1       7.272  23.427  53.970  1.00  0.00     0.001 A 
HETATM   26  C   UNL     1       7.085  23.808  55.298  1.00  0.00     0.002 A 
ENDBRANCH   2  17
TORSDOF 2
ENDMDL
MODEL 10
REMARK VINA RESULT:      -7.2      5.066      7.692
REMARK  2 active torsions:
REMARK  status: ('A' for Active; 'I' for Inactive)
REMARK    1  A    between atoms: C_11  and  N_12 
REMARK       I    between atoms: N_12  and  C_13 
REMARK    2  A    between atoms: C_13  and  C_14 
ROOT
HETATM    1  N   UNL     1       5.336  26.773  50.618  1.00  0.00    -0.351 N 
HETATM    2  C   UNL     1       5.044  27.536  49.496  1.00  0.00     0.273 C 
HETATM    3  O   UNL     1       5.711  28.505  49.153  1.00  0.00    -0.266 OA
HETATM    4  H   UNL     1       4.543  26.174  50.860  1.00  0.00     0.163 HD
ENDROOT
BRANCH   1   5
HETATM    5  C   UNL     1       6.297  27.182  51.620  1.00  0.00     0.089 C 
HETATM    6  C   UNL     1       6.724  26.071  52.588  1.00  0.00     0.063 C 
HETATM    7  C   UNL     1       5.657  25.650  53.605  1.00  0.00     0.121 C 
HETATM    8  N   UNL     1       5.093  26.882  54.284  1.00  0.00    -0.059 N 
HETATM    9  C   UNL     1       4.526  24.799  53.020  1.00  0.00     0.046 C 
HETATM   10  C   UNL     1       6.325  24.819  54.722  1.00  0.00     0.046 C 
HETATM   11  C   UNL     1       4.726  28.105  53.470  1.00  0.00     0.121 C 
HETATM   12  H   UNL     1       5.789  27.180  54.983  1.00  0.00     0.279 HD
HETATM   13  H   UNL     1       4.277  26.600  54.847  1.00  0.00     0.279 HD
HETATM   14  C   UNL     1       3.319  27.945  52.882  1.00  0.00     0.046 C 
HETATM   15  C   UNL     1       4.673  29.279  54.471  1.00  0.00     0.046 C 
HETATM   16  C   UNL     1       5.810  28.396  52.418  1.00  0.00     0.063 C 
ENDBRANCH   1   5
BRANCH   2  17
HETATM   17  C   UNL     1       3.865  27.046  48.769  1.00  0.00     0.157 A 
HETATM   18  N   UNL     1       3.584  25.723  48.726  1.00  0.00    -0.168 NA
HETATM   19  N   UNL     1       2.464  25.663  47.976  1.00  0.00    -0.277 N 
HETATM   20  H   UNL     1       2.047  24.757  47.795  1.00  0.00     0.189 HD
HETATM   21  C   UNL     1       2.013  26.876  47.536  1.00  0.00     0.063 A 
HETATM   22  C   UNL     1       2.906  27.811  48.046  1.00  0.00     0.028 A 
HETATM   23  C   UNL     1       0.911  27.225  46.749  1.00  0.00     0.032 A 
HETATM   24  C   UNL     1       2.697  29.176  47.767  1.00  0.00     0.016 A 
HETATM   25  C   UNL     1       1.598  29.547  46.983  1.00  0.00     0.001 A 
HETATM   26  C   UNL     1       0.723  28.585  46.482  1.00  0.00     0.002 A 
ENDBRANCH   2  17
TORSDOF 2
ENDMDL
