MODEL 1
REMARK VINA RESULT:      -8.6      0.000      0.000
REMARK  8 active torsions:
REMARK  status: ('A' for Active; 'I' for Inactive)
REMARK    1  A    between atoms: N_3  and  C_4 
REMARK    2  A    between atoms: C_4  and  C_5 
REMARK    3  A    between atoms: C_5  and  O_6 
REMARK    4  A    between atoms: C_11  and  C_12 
REMARK    5  A    between atoms: C_13  and  C_14 
REMARK    6  A    between atoms: C_22  and  C_23 
REMARK       I    between atoms: C_23  and  N_24 
REMARK    7  A    between atoms: N_24  and  C_25 
REMARK    8  A    between atoms: C_26  and  O_27 
ROOT
HETATM    1  C   UNL     1       8.788  26.310  56.738  1.00  0.00     0.069 C 
HETATM    2  C   UNL     1       7.407  26.626  56.217  1.00  0.00     0.026 C 
HETATM    3  N   UNL     1       6.650  27.619  56.861  1.00  0.00    -0.301 N 
HETATM    4  C   UNL     1       5.283  27.795  56.618  1.00  0.00     0.323 C 
HETATM    5  O   UNL     1       4.555  28.590  57.207  1.00  0.00    -0.247 OA
HETATM    6  N   UNL     1       4.724  26.969  55.690  1.00  0.00    -0.330 N 
HETATM    7  C   UNL     1       5.470  26.271  54.678  1.00  0.00     0.161 C 
HETATM    8  C   UNL     1       6.852  25.979  55.172  1.00  0.00     0.059 C 
HETATM    9  H   UNL     1       3.743  27.154  55.531  1.00  0.00     0.165 HD
ENDROOT
BRANCH   8  10
HETATM   10  C   UNL     1       7.541  24.841  54.510  1.00  0.00     0.256 C 
HETATM   11  N   UNL     1       7.216  23.627  55.066  1.00  0.00    -0.321 N 
HETATM   12  H   UNL     1       6.566  23.602  55.848  1.00  0.00     0.169 HD
HETATM   13  O   UNL     1       8.301  25.057  53.575  1.00  0.00    -0.267 OA
BRANCH  11  14
HETATM   14  C   UNL     1       7.726  22.352  54.732  1.00  0.00     0.068 A 
HETATM   15  C   UNL     1       8.333  21.616  55.773  1.00  0.00     0.095 A 
HETATM   16  C   UNL     1       8.873  20.354  55.507  1.00  0.00     0.039 A 
HETATM   17  C   UNL     1       8.806  19.822  54.219  1.00  0.00     0.003 A 
HETATM   18  C   UNL     1       8.203  20.545  53.193  1.00  0.00     0.002 A 
HETATM   19  C   UNL     1       7.665  21.808  53.447  1.00  0.00     0.032 A 
BRANCH  15  20
HETATM   20  O   UNL     1       8.343  22.235  57.002  1.00  0.00    -0.354 OA
HETATM   21  C   UNL     1       8.439  21.397  58.147  1.00  0.00     0.210 C 
ENDBRANCH  15  20
ENDBRANCH  11  14
ENDBRANCH   8  10
BRANCH   7  22
HETATM   22  C   UNL     1       5.422  27.068  53.372  1.00  0.00    -0.016 A 
HETATM   23  C   UNL     1       5.128  26.456  52.126  1.00  0.00     0.056 A 
HETATM   24  C   UNL     1       5.099  27.245  50.959  1.00  0.00     0.017 A 
HETATM   25  C   UNL     1       5.334  28.618  51.012  1.00  0.00     0.001 A 
HETATM   26  C   UNL     1       5.596  29.227  52.231  1.00  0.00     0.001 A 
HETATM   27  C   UNL     1       5.635  28.464  53.397  1.00  0.00     0.010 A 
BRANCH  23  28
HETATM   28  C   UNL     1       4.826  24.976  52.011  1.00  0.00     0.418 C 
HETATM   29  F   UNL     1       4.011  24.538  53.011  1.00  0.00    -0.166 F 
HETATM   30  F   UNL     1       4.205  24.629  50.850  1.00  0.00    -0.166 F 
HETATM   31  F   UNL     1       5.949  24.211  52.076  1.00  0.00    -0.166 F 
ENDBRANCH  23  28
ENDBRANCH   7  22
BRANCH   3  32
HETATM   32  C   UNL     1       7.246  28.524  57.856  1.00  0.00     0.160 C 
BRANCH  32  33
HETATM   33  C   UNL     1       7.924  29.755  57.235  1.00  0.00     0.187 C 
BRANCH  33  34
HETATM   34  O   UNL     1       9.314  29.796  57.563  1.00  0.00    -0.394 OA
HETATM   35  C   UNL     1      10.131  29.711  56.403  1.00  0.00     0.201 C 
ENDBRANCH  33  34
ENDBRANCH  32  33
ENDBRANCH   3  32
TORSDOF 8
ENDMDL
MODEL 2
REMARK VINA RESULT:      -8.5      3.101      5.373
REMARK  8 active torsions:
REMARK  status: ('A' for Active; 'I' for Inactive)
REMARK    1  A    between atoms: N_3  and  C_4 
REMARK    2  A    between atoms: C_4  and  C_5 
REMARK    3  A    between atoms: C_5  and  O_6 
REMARK    4  A    between atoms: C_11  and  C_12 
REMARK    5  A    between atoms: C_13  and  C_14 
REMARK    6  A    between atoms: C_22  and  C_23 
REMARK       I    between atoms: C_23  and  N_24 
REMARK    7  A    between atoms: N_24  and  C_25 
REMARK    8  A    between atoms: C_26  and  O_27 
ROOT
HETATM    1  C   UNL     1       4.673  25.085  51.762  1.00  0.00     0.069 C 
HETATM    2  C   UNL     1       5.310  26.336  52.319  1.00  0.00     0.026 C 
HETATM    3  N   UNL     1       5.182  27.538  51.602  1.00  0.00    -0.301 N 
HETATM    4  C   UNL     1       5.946  28.672  51.900  1.00  0.00     0.323 C 
HETATM    5  O   UNL     1       5.935  29.721  51.260  1.00  0.00    -0.247 OA
HETATM    6  N   UNL     1       6.804  28.563  52.951  1.00  0.00    -0.330 N 
HETATM    7  C   UNL     1       6.679  27.583  53.996  1.00  0.00     0.161 C 
HETATM    8  C   UNL     1       6.021  26.350  53.464  1.00  0.00     0.059 C 
HETATM    9  H   UNL     1       7.312  29.416  53.141  1.00  0.00     0.165 HD
ENDROOT
BRANCH   8  10
HETATM   10  C   UNL     1       6.299  25.100  54.220  1.00  0.00     0.256 C 
HETATM   11  N   UNL     1       7.334  24.374  53.684  1.00  0.00    -0.321 N 
HETATM   12  H   UNL     1       7.804  24.727  52.854  1.00  0.00     0.169 HD
HETATM   13  O   UNL     1       5.623  24.829  55.205  1.00  0.00    -0.267 OA
BRANCH  11  14
HETATM   14  C   UNL     1       7.824  23.116  54.104  1.00  0.00     0.068 A 
HETATM   15  C   UNL     1       8.558  23.090  55.310  1.00  0.00     0.095 A 
HETATM   16  C   UNL     1       9.086  21.882  55.775  1.00  0.00     0.039 A 
HETATM   17  C   UNL     1       8.881  20.705  55.053  1.00  0.00     0.003 A 
HETATM   18  C   UNL     1       8.151  20.730  53.867  1.00  0.00     0.002 A 
HETATM   19  C   UNL     1       7.626  21.932  53.391  1.00  0.00     0.032 A 
BRANCH  15  20
HETATM   20  O   UNL     1       8.699  24.306  55.939  1.00  0.00    -0.354 OA
HETATM   21  C   UNL     1       8.806  24.291  57.358  1.00  0.00     0.210 C 
ENDBRANCH  15  20
ENDBRANCH  11  14
ENDBRANCH   8  10
BRANCH   7  22
HETATM   22  C   UNL     1       5.965  28.212  55.197  1.00  0.00    -0.016 A 
HETATM   23  C   UNL     1       6.675  28.701  56.324  1.00  0.00     0.056 A 
HETATM   24  C   UNL     1       5.959  29.269  57.396  1.00  0.00     0.017 A 
HETATM   25  C   UNL     1       4.570  29.375  57.360  1.00  0.00     0.001 A 
HETATM   26  C   UNL     1       3.872  28.922  56.249  1.00  0.00     0.001 A 
HETATM   27  C   UNL     1       4.560  28.352  55.179  1.00  0.00     0.010 A 
BRANCH  23  28
HETATM   28  C   UNL     1       8.186  28.649  56.404  1.00  0.00     0.418 C 
HETATM   29  F   UNL     1       8.659  29.187  57.562  1.00  0.00    -0.166 F 
HETATM   30  F   UNL     1       8.698  27.388  56.347  1.00  0.00    -0.166 F 
HETATM   31  F   UNL     1       8.783  29.339  55.394  1.00  0.00    -0.166 F 
ENDBRANCH  23  28
ENDBRANCH   7  22
BRANCH   3  32
HETATM   32  C   UNL     1       4.249  27.670  50.473  1.00  0.00     0.160 C 
BRANCH  32  33
HETATM   33  C   UNL     1       4.933  27.580  49.100  1.00  0.00     0.187 C 
BRANCH  33  34
HETATM   34  O   UNL     1       4.625  26.345  48.452  1.00  0.00    -0.394 OA
HETATM   35  C   UNL     1       3.224  26.169  48.294  1.00  0.00     0.201 C 
ENDBRANCH  33  34
ENDBRANCH  32  33
ENDBRANCH   3  32
TORSDOF 8
ENDMDL
MODEL 3
REMARK VINA RESULT:      -8.0      9.436     14.191
REMARK  8 active torsions:
REMARK  status: ('A' for Active; 'I' for Inactive)
REMARK    1  A    between atoms: N_3  and  C_4 
REMARK    2  A    between atoms: C_4  and  C_5 
REMARK    3  A    between atoms: C_5  and  O_6 
REMARK    4  A    between atoms: C_11  and  C_12 
REMARK    5  A    between atoms: C_13  and  C_14 
REMARK    6  A    between atoms: C_22  and  C_23 
REMARK       I    between atoms: C_23  and  N_24 
REMARK    7  A    between atoms: N_24  and  C_25 
REMARK    8  A    between atoms: C_26  and  O_27 
ROOT
HETATM    1  C   UNL     1       3.868  36.213  59.071  1.00  0.00     0.069 C 
HETATM    2  C   UNL     1       3.866  35.055  60.040  1.00  0.00     0.026 C 
HETATM    3  N   UNL     1       3.595  33.765  59.554  1.00  0.00    -0.301 N 
HETATM    4  C   UNL     1       3.317  32.688  60.403  1.00  0.00     0.323 C 
HETATM    5  O   UNL     1       2.995  31.561  60.036  1.00  0.00    -0.247 OA
HETATM    6  N   UNL     1       3.357  32.947  61.739  1.00  0.00    -0.330 N 
HETATM    7  C   UNL     1       4.055  34.060  62.325  1.00  0.00     0.161 C 
HETATM    8  C   UNL     1       4.090  35.204  61.362  1.00  0.00     0.059 C 
HETATM    9  H   UNL     1       3.177  32.132  62.309  1.00  0.00     0.165 HD
ENDROOT
BRANCH   8  10
HETATM   10  C   UNL     1       4.272  36.548  61.971  1.00  0.00     0.256 C 
HETATM   11  N   UNL     1       5.569  36.994  61.896  1.00  0.00    -0.321 N 
HETATM   12  H   UNL     1       6.268  36.402  61.456  1.00  0.00     0.169 HD
HETATM   13  O   UNL     1       3.309  37.122  62.464  1.00  0.00    -0.267 OA
BRANCH  11  14
HETATM   14  C   UNL     1       6.110  38.189  62.422  1.00  0.00     0.068 A 
HETATM   15  C   UNL     1       6.672  39.095  61.496  1.00  0.00     0.095 A 
HETATM   16  C   UNL     1       7.240  40.289  61.951  1.00  0.00     0.039 A 
HETATM   17  C   UNL     1       7.243  40.588  63.314  1.00  0.00     0.003 A 
HETATM   18  C   UNL     1       6.683  39.697  64.227  1.00  0.00     0.002 A 
HETATM   19  C   UNL     1       6.120  38.499  63.784  1.00  0.00     0.032 A 
BRANCH  15  20
HETATM   20  O   UNL     1       6.614  38.701  60.179  1.00  0.00    -0.354 OA
HETATM   21  C   UNL     1       5.953  39.575  59.272  1.00  0.00     0.210 C 
ENDBRANCH  15  20
ENDBRANCH  11  14
ENDBRANCH   8  10
BRANCH   7  22
HETATM   22  C   UNL     1       5.433  33.598  62.807  1.00  0.00    -0.016 A 
HETATM   23  C   UNL     1       5.850  33.751  64.154  1.00  0.00     0.056 A 
HETATM   24  C   UNL     1       7.131  33.305  64.535  1.00  0.00     0.017 A 
HETATM   25  C   UNL     1       7.986  32.700  63.616  1.00  0.00     0.001 A 
HETATM   26  C   UNL     1       7.574  32.525  62.302  1.00  0.00     0.001 A 
HETATM   27  C   UNL     1       6.313  32.963  61.903  1.00  0.00     0.010 A 
BRANCH  23  28
HETATM   28  C   UNL     1       4.950  34.365  65.207  1.00  0.00     0.418 C 
HETATM   29  F   UNL     1       5.435  34.184  66.467  1.00  0.00    -0.166 F 
HETATM   30  F   UNL     1       4.777  35.708  65.068  1.00  0.00    -0.166 F 
HETATM   31  F   UNL     1       3.701  33.825  65.200  1.00  0.00    -0.166 F 
ENDBRANCH  23  28
ENDBRANCH   7  22
BRANCH   3  32
HETATM   32  C   UNL     1       3.560  33.472  58.113  1.00  0.00     0.160 C 
BRANCH  32  33
HETATM   33  C   UNL     1       4.954  33.360  57.477  1.00  0.00     0.187 C 
BRANCH  33  34
HETATM   34  O   UNL     1       5.889  32.777  58.387  1.00  0.00    -0.394 OA
HETATM   35  C   UNL     1       6.082  31.393  58.128  1.00  0.00     0.201 C 
ENDBRANCH  33  34
ENDBRANCH  32  33
ENDBRANCH   3  32
TORSDOF 8
ENDMDL
MODEL 4
REMARK VINA RESULT:      -7.8      2.777      7.208
REMARK  8 active torsions:
REMARK  status: ('A' for Active; 'I' for Inactive)
REMARK    1  A    between atoms: N_3  and  C_4 
REMARK    2  A    between atoms: C_4  and  C_5 
REMARK    3  A    between atoms: C_5  and  O_6 
REMARK    4  A    between atoms: C_11  and  C_12 
REMARK    5  A    between atoms: C_13  and  C_14 
REMARK    6  A    between atoms: C_22  and  C_23 
REMARK       I    between atoms: C_23  and  N_24 
REMARK    7  A    between atoms: N_24  and  C_25 
REMARK    8  A    between atoms: C_26  and  O_27 
ROOT
HETATM    1  C   UNL     1       7.591  25.423  51.910  1.00  0.00     0.069 C 
HETATM    2  C   UNL     1       7.103  25.479  53.338  1.00  0.00     0.026 C 
HETATM    3  N   UNL     1       7.392  24.405  54.196  1.00  0.00    -0.301 N 
HETATM    4  C   UNL     1       6.767  24.251  55.439  1.00  0.00     0.323 C 
HETATM    5  O   UNL     1       6.919  23.293  56.194  1.00  0.00    -0.247 OA
HETATM    6  N   UNL     1       5.881  25.222  55.794  1.00  0.00    -0.330 N 
HETATM    7  C   UNL     1       5.865  26.544  55.230  1.00  0.00     0.161 C 
HETATM    8  C   UNL     1       6.377  26.506  53.825  1.00  0.00     0.059 C 
HETATM    9  H   UNL     1       5.479  25.079  56.711  1.00  0.00     0.165 HD
ENDROOT
BRANCH   8  10
HETATM   10  C   UNL     1       5.933  27.625  52.952  1.00  0.00     0.256 C 
HETATM   11  N   UNL     1       4.644  27.469  52.503  1.00  0.00    -0.321 N 
HETATM   12  H   UNL     1       4.122  26.644  52.784  1.00  0.00     0.169 HD
HETATM   13  O   UNL     1       6.704  28.546  52.713  1.00  0.00    -0.267 OA
BRANCH  11  14
HETATM   14  C   UNL     1       3.926  28.301  51.613  1.00  0.00     0.068 A 
HETATM   15  C   UNL     1       3.920  27.923  50.253  1.00  0.00     0.095 A 
HETATM   16  C   UNL     1       3.244  28.710  49.317  1.00  0.00     0.039 A 
HETATM   17  C   UNL     1       2.570  29.862  49.727  1.00  0.00     0.003 A 
HETATM   18  C   UNL     1       2.571  30.232  51.070  1.00  0.00     0.002 A 
HETATM   19  C   UNL     1       3.249  29.455  52.011  1.00  0.00     0.032 A 
BRANCH  15  20
HETATM   20  O   UNL     1       4.614  26.771  49.960  1.00  0.00    -0.354 OA
HETATM   21  C   UNL     1       4.144  25.994  48.865  1.00  0.00     0.210 C 
ENDBRANCH  15  20
ENDBRANCH  11  14
ENDBRANCH   8  10
BRANCH   7  22
HETATM   22  C   UNL     1       6.628  27.499  56.153  1.00  0.00    -0.016 A 
HETATM   23  C   UNL     1       6.040  28.687  56.659  1.00  0.00     0.056 A 
HETATM   24  C   UNL     1       6.795  29.524  57.505  1.00  0.00     0.017 A 
HETATM   25  C   UNL     1       8.100  29.194  57.868  1.00  0.00     0.001 A 
HETATM   26  C   UNL     1       8.671  28.020  57.397  1.00  0.00     0.001 A 
HETATM   27  C   UNL     1       7.944  27.181  56.554  1.00  0.00     0.010 A 
BRANCH  23  28
HETATM   28  C   UNL     1       4.614  29.078  56.333  1.00  0.00     0.418 C 
HETATM   29  F   UNL     1       4.510  29.673  55.112  1.00  0.00    -0.166 F 
HETATM   30  F   UNL     1       3.747  28.028  56.306  1.00  0.00    -0.166 F 
HETATM   31  F   UNL     1       4.101  29.963  57.230  1.00  0.00    -0.166 F 
ENDBRANCH  23  28
ENDBRANCH   7  22
BRANCH   3  32
HETATM   32  C   UNL     1       8.355  23.357  53.827  1.00  0.00     0.160 C 
BRANCH  32  33
HETATM   33  C   UNL     1       7.709  22.149  53.132  1.00  0.00     0.187 C 
BRANCH  33  34
HETATM   34  O   UNL     1       8.536  20.989  53.242  1.00  0.00    -0.394 OA
HETATM   35  C   UNL     1       8.351  20.328  54.486  1.00  0.00     0.201 C 
ENDBRANCH  33  34
ENDBRANCH  32  33
ENDBRANCH   3  32
TORSDOF 8
ENDMDL
MODEL 5
REMARK VINA RESULT:      -7.5      2.534      6.451
REMARK  8 active torsions:
REMARK  status: ('A' for Active; 'I' for Inactive)
REMARK    1  A    between atoms: N_3  and  C_4 
REMARK    2  A    between atoms: C_4  and  C_5 
REMARK    3  A    between atoms: C_5  and  O_6 
REMARK    4  A    between atoms: C_11  and  C_12 
REMARK    5  A    between atoms: C_13  and  C_14 
REMARK    6  A    between atoms: C_22  and  C_23 
REMARK       I    between atoms: C_23  and  N_24 
REMARK    7  A    between atoms: N_24  and  C_25 
REMARK    8  A    between atoms: C_26  and  O_27 
ROOT
HETATM    1  C   UNL     1       7.662  23.527  52.723  1.00  0.00     0.069 C 
HETATM    2  C   UNL     1       7.449  24.153  54.080  1.00  0.00     0.026 C 
HETATM    3  N   UNL     1       8.264  23.746  55.149  1.00  0.00    -0.301 N 
HETATM    4  C   UNL     1       7.973  24.071  56.479  1.00  0.00     0.323 C 
HETATM    5  O   UNL     1       8.602  23.678  57.459  1.00  0.00    -0.247 OA
HETATM    6  N   UNL     1       6.868  24.839  56.684  1.00  0.00    -0.330 N 
HETATM    7  C   UNL     1       6.260  25.665  55.675  1.00  0.00     0.161 C 
HETATM    8  C   UNL     1       6.491  25.071  54.322  1.00  0.00     0.059 C 
HETATM    9  H   UNL     1       6.717  25.069  57.657  1.00  0.00     0.165 HD
ENDROOT
BRANCH   8  10
HETATM   10  C   UNL     1       5.516  25.470  53.274  1.00  0.00     0.256 C 
HETATM   11  N   UNL     1       6.052  26.336  52.352  1.00  0.00    -0.321 N 
HETATM   12  H   UNL     1       7.022  26.624  52.453  1.00  0.00     0.169 HD
HETATM   13  O   UNL     1       4.377  25.023  53.309  1.00  0.00    -0.267 OA
BRANCH  11  14
HETATM   14  C   UNL     1       5.401  26.962  51.264  1.00  0.00     0.068 A 
HETATM   15  C   UNL     1       5.069  28.325  51.420  1.00  0.00     0.095 A 
HETATM   16  C   UNL     1       4.408  29.001  50.390  1.00  0.00     0.039 A 
HETATM   17  C   UNL     1       4.085  28.331  49.209  1.00  0.00     0.003 A 
HETATM   18  C   UNL     1       4.418  26.988  49.052  1.00  0.00     0.002 A 
HETATM   19  C   UNL     1       5.072  26.303  50.078  1.00  0.00     0.032 A 
BRANCH  15  20
HETATM   20  O   UNL     1       5.435  28.885  52.623  1.00  0.00    -0.354 OA
HETATM   21  C   UNL     1       4.729  30.050  53.034  1.00  0.00     0.210 C 
ENDBRANCH  15  20
ENDBRANCH  11  14
ENDBRANCH   8  10
BRANCH   7  22
HETATM   22  C   UNL     1       6.763  27.104  55.828  1.00  0.00    -0.016 A 
HETATM   23  C   UNL     1       5.878  28.194  56.024  1.00  0.00     0.056 A 
HETATM   24  C   UNL     1       6.403  29.495  56.157  1.00  0.00     0.017 A 
HETATM   25  C   UNL     1       7.778  29.724  56.119  1.00  0.00     0.001 A 
HETATM   26  C   UNL     1       8.651  28.657  55.954  1.00  0.00     0.001 A 
HETATM   27  C   UNL     1       8.151  27.363  55.814  1.00  0.00     0.010 A 
BRANCH  23  28
HETATM   28  C   UNL     1       4.378  28.003  56.113  1.00  0.00     0.418 C 
HETATM   29  F   UNL     1       3.743  29.117  56.572  1.00  0.00    -0.166 F 
HETATM   30  F   UNL     1       3.788  27.708  54.921  1.00  0.00    -0.166 F 
HETATM   31  F   UNL     1       4.033  26.995  56.959  1.00  0.00    -0.166 F 
ENDBRANCH  23  28
ENDBRANCH   7  22
BRANCH   3  32
HETATM   32  C   UNL     1       9.467  22.926  54.938  1.00  0.00     0.160 C 
BRANCH  32  33
HETATM   33  C   UNL     1       9.163  21.434  54.735  1.00  0.00     0.187 C 
BRANCH  33  34
HETATM   34  O   UNL     1       9.157  20.736  55.982  1.00  0.00    -0.394 OA
HETATM   35  C   UNL     1       7.849  20.315  56.343  1.00  0.00     0.201 C 
ENDBRANCH  33  34
ENDBRANCH  32  33
ENDBRANCH   3  32
TORSDOF 8
ENDMDL
MODEL 6
REMARK VINA RESULT:      -7.5      5.975      8.935
REMARK  8 active torsions:
REMARK  status: ('A' for Active; 'I' for Inactive)
REMARK    1  A    between atoms: N_3  and  C_4 
REMARK    2  A    between atoms: C_4  and  C_5 
REMARK    3  A    between atoms: C_5  and  O_6 
REMARK    4  A    between atoms: C_11  and  C_12 
REMARK    5  A    between atoms: C_13  and  C_14 
REMARK    6  A    between atoms: C_22  and  C_23 
REMARK       I    between atoms: C_23  and  N_24 
REMARK    7  A    between atoms: N_24  and  C_25 
REMARK    8  A    between atoms: C_26  and  O_27 
ROOT
HETATM    1  C   UNL     1       7.850  32.667  62.822  1.00  0.00     0.069 C 
HETATM    2  C   UNL     1       6.544  32.574  62.071  1.00  0.00     0.026 C 
HETATM    3  N   UNL     1       5.341  32.654  62.792  1.00  0.00    -0.301 N 
HETATM    4  C   UNL     1       4.105  32.321  62.226  1.00  0.00     0.323 C 
HETATM    5  O   UNL     1       3.034  32.295  62.827  1.00  0.00    -0.247 OA
HETATM    6  N   UNL     1       4.123  31.943  60.918  1.00  0.00    -0.330 N 
HETATM    7  C   UNL     1       5.181  32.265  59.999  1.00  0.00     0.161 C 
HETATM    8  C   UNL     1       6.476  32.391  60.736  1.00  0.00     0.059 C 
HETATM    9  H   UNL     1       3.203  31.739  60.549  1.00  0.00     0.165 HD
ENDROOT
BRANCH   8  10
HETATM   10  C   UNL     1       7.701  32.183  59.919  1.00  0.00     0.256 C 
HETATM   11  N   UNL     1       7.695  30.982  59.252  1.00  0.00    -0.321 N 
HETATM   12  H   UNL     1       6.899  30.360  59.364  1.00  0.00     0.169 HD
HETATM   13  O   UNL     1       8.569  33.045  59.904  1.00  0.00    -0.267 OA
BRANCH  11  14
HETATM   14  C   UNL     1       8.715  30.433  58.440  1.00  0.00     0.068 A 
HETATM   15  C   UNL     1       8.420  29.219  57.782  1.00  0.00     0.095 A 
HETATM   16  C   UNL     1       9.389  28.613  56.977  1.00  0.00     0.039 A 
HETATM   17  C   UNL     1      10.640  29.211  56.819  1.00  0.00     0.003 A 
HETATM   18  C   UNL     1      10.929  30.411  57.463  1.00  0.00     0.002 A 
HETATM   19  C   UNL     1       9.970  31.021  58.274  1.00  0.00     0.032 A 
BRANCH  15  20
HETATM   20  O   UNL     1       7.157  28.720  58.007  1.00  0.00    -0.354 OA
HETATM   21  C   UNL     1       6.355  28.454  56.863  1.00  0.00     0.210 C 
ENDBRANCH  15  20
ENDBRANCH  11  14
ENDBRANCH   8  10
BRANCH   7  22
HETATM   22  C   UNL     1       4.791  33.507  59.192  1.00  0.00    -0.016 A 
HETATM   23  C   UNL     1       4.622  33.468  57.784  1.00  0.00     0.056 A 
HETATM   24  C   UNL     1       4.262  34.645  57.099  1.00  0.00     0.017 A 
HETATM   25  C   UNL     1       4.051  35.841  57.783  1.00  0.00     0.001 A 
HETATM   26  C   UNL     1       4.190  35.880  59.164  1.00  0.00     0.001 A 
HETATM   27  C   UNL     1       4.551  34.728  59.860  1.00  0.00     0.010 A 
BRANCH  23  28
HETATM   28  C   UNL     1       4.799  32.190  56.991  1.00  0.00     0.418 C 
HETATM   29  F   UNL     1       4.404  32.330  55.695  1.00  0.00    -0.166 F 
HETATM   30  F   UNL     1       6.086  31.747  56.938  1.00  0.00    -0.166 F 
HETATM   31  F   UNL     1       4.071  31.159  57.499  1.00  0.00    -0.166 F 
ENDBRANCH  23  28
ENDBRANCH   7  22
BRANCH   3  32
HETATM   32  C   UNL     1       5.309  33.072  64.202  1.00  0.00     0.160 C 
BRANCH  32  33
HETATM   33  C   UNL     1       5.264  34.596  64.388  1.00  0.00     0.187 C 
BRANCH  33  34
HETATM   34  O   UNL     1       3.917  35.070  64.429  1.00  0.00    -0.394 OA
HETATM   35  C   UNL     1       3.699  36.118  63.495  1.00  0.00     0.201 C 
ENDBRANCH  33  34
ENDBRANCH  32  33
ENDBRANCH   3  32
TORSDOF 8
ENDMDL
MODEL 7
REMARK VINA RESULT:      -7.5      3.062      7.032
REMARK  8 active torsions:
REMARK  status: ('A' for Active; 'I' for Inactive)
REMARK    1  A    between atoms: N_3  and  C_4 
REMARK    2  A    between atoms: C_4  and  C_5 
REMARK    3  A    between atoms: C_5  and  O_6 
REMARK    4  A    between atoms: C_11  and  C_12 
REMARK    5  A    between atoms: C_13  and  C_14 
REMARK    6  A    between atoms: C_22  and  C_23 
REMARK       I    between atoms: C_23  and  N_24 
REMARK    7  A    between atoms: N_24  and  C_25 
REMARK    8  A    between atoms: C_26  and  O_27 
ROOT
HETATM    1  C   UNL     1       7.060  25.494  53.550  1.00  0.00     0.069 C 
HETATM    2  C   UNL     1       6.301  26.075  54.719  1.00  0.00     0.026 C 
HETATM    3  N   UNL     1       6.018  25.251  55.821  1.00  0.00    -0.301 N 
HETATM    4  C   UNL     1       5.109  25.620  56.818  1.00  0.00     0.323 C 
HETATM    5  O   UNL     1       4.762  24.909  57.759  1.00  0.00    -0.247 OA
HETATM    6  N   UNL     1       4.531  26.846  56.685  1.00  0.00    -0.330 N 
HETATM    7  C   UNL     1       5.078  27.913  55.890  1.00  0.00     0.161 C 
HETATM    8  C   UNL     1       5.858  27.349  54.745  1.00  0.00     0.059 C 
HETATM    9  H   UNL     1       3.905  27.076  57.444  1.00  0.00     0.165 HD
ENDROOT
BRANCH   8  10
HETATM   10  C   UNL     1       6.017  28.250  53.574  1.00  0.00     0.256 C 
HETATM   11  N   UNL     1       4.835  28.474  52.911  1.00  0.00    -0.321 N 
HETATM   12  H   UNL     1       3.988  28.028  53.253  1.00  0.00     0.169 HD
HETATM   13  O   UNL     1       7.125  28.698  53.304  1.00  0.00    -0.267 OA
BRANCH  11  14
HETATM   14  C   UNL     1       4.627  29.222  51.731  1.00  0.00     0.068 A 
HETATM   15  C   UNL     1       4.624  28.505  50.515  1.00  0.00     0.095 A 
HETATM   16  C   UNL     1       4.441  29.186  49.307  1.00  0.00     0.039 A 
HETATM   17  C   UNL     1       4.255  30.569  49.306  1.00  0.00     0.003 A 
HETATM   18  C   UNL     1       4.253  31.276  50.505  1.00  0.00     0.002 A 
HETATM   19  C   UNL     1       4.441  30.606  51.716  1.00  0.00     0.032 A 
BRANCH  15  20
HETATM   20  O   UNL     1       4.815  27.147  50.633  1.00  0.00    -0.354 OA
HETATM   21  C   UNL     1       4.544  26.354  49.483  1.00  0.00     0.210 C 
ENDBRANCH  15  20
ENDBRANCH  11  14
ENDBRANCH   8  10
BRANCH   7  22
HETATM   22  C   UNL     1       5.875  28.859  56.792  1.00  0.00    -0.016 A 
HETATM   23  C   UNL     1       5.423  30.170  57.095  1.00  0.00     0.056 A 
HETATM   24  C   UNL     1       6.203  30.992  57.932  1.00  0.00     0.017 A 
HETATM   25  C   UNL     1       7.399  30.533  58.482  1.00  0.00     0.001 A 
HETATM   26  C   UNL     1       7.833  29.243  58.210  1.00  0.00     0.001 A 
HETATM   27  C   UNL     1       7.080  28.415  57.380  1.00  0.00     0.010 A 
BRANCH  23  28
HETATM   28  C   UNL     1       4.114  30.710  56.560  1.00  0.00     0.418 C 
HETATM   29  F   UNL     1       4.085  30.733  55.199  1.00  0.00    -0.166 F 
HETATM   30  F   UNL     1       3.023  29.987  56.939  1.00  0.00    -0.166 F 
HETATM   31  F   UNL     1       3.875  31.986  56.966  1.00  0.00    -0.166 F 
ENDBRANCH  23  28
ENDBRANCH   7  22
BRANCH   3  32
HETATM   32  C   UNL     1       6.645  23.929  55.980  1.00  0.00     0.160 C 
BRANCH  32  33
HETATM   33  C   UNL     1       7.926  23.958  56.826  1.00  0.00     0.187 C 
BRANCH  33  34
HETATM   34  O   UNL     1       9.084  23.752  56.014  1.00  0.00    -0.394 OA
HETATM   35  C   UNL     1       8.992  22.550  55.263  1.00  0.00     0.201 C 
ENDBRANCH  33  34
ENDBRANCH  32  33
ENDBRANCH   3  32
TORSDOF 8
ENDMDL
MODEL 8
REMARK VINA RESULT:      -7.3      5.008      9.418
REMARK  8 active torsions:
REMARK  status: ('A' for Active; 'I' for Inactive)
REMARK    1  A    between atoms: N_3  and  C_4 
REMARK    2  A    between atoms: C_4  and  C_5 
REMARK    3  A    between atoms: C_5  and  O_6 
REMARK    4  A    between atoms: C_11  and  C_12 
REMARK    5  A    between atoms: C_13  and  C_14 
REMARK    6  A    between atoms: C_22  and  C_23 
REMARK       I    between atoms: C_23  and  N_24 
REMARK    7  A    between atoms: N_24  and  C_25 
REMARK    8  A    between atoms: C_26  and  O_27 
ROOT
HETATM    1  C   UNL     1       4.088  30.254  55.735  1.00  0.00     0.069 C 
HETATM    2  C   UNL     1       5.208  29.560  56.474  1.00  0.00     0.026 C 
HETATM    3  N   UNL     1       5.483  28.215  56.179  1.00  0.00    -0.301 N 
HETATM    4  C   UNL     1       6.313  27.426  56.984  1.00  0.00     0.323 C 
HETATM    5  O   UNL     1       6.526  26.227  56.821  1.00  0.00    -0.247 OA
HETATM    6  N   UNL     1       6.875  28.044  58.059  1.00  0.00    -0.330 N 
HETATM    7  C   UNL     1       7.031  29.468  58.180  1.00  0.00     0.161 C 
HETATM    8  C   UNL     1       5.944  30.167  57.427  1.00  0.00     0.059 C 
HETATM    9  H   UNL     1       7.486  27.440  58.591  1.00  0.00     0.165 HD
ENDROOT
BRANCH   8  10
HETATM   10  C   UNL     1       5.642  31.552  57.876  1.00  0.00     0.256 C 
HETATM   11  N   UNL     1       4.887  31.585  59.023  1.00  0.00    -0.321 N 
HETATM   12  H   UNL     1       4.605  30.707  59.452  1.00  0.00     0.169 HD
HETATM   13  O   UNL     1       6.065  32.501  57.228  1.00  0.00    -0.267 OA
BRANCH  11  14
HETATM   14  C   UNL     1       4.369  32.717  59.691  1.00  0.00     0.068 A 
HETATM   15  C   UNL     1       4.757  32.895  61.037  1.00  0.00     0.095 A 
HETATM   16  C   UNL     1       4.268  33.986  61.762  1.00  0.00     0.039 A 
HETATM   17  C   UNL     1       3.405  34.900  61.155  1.00  0.00     0.003 A 
HETATM   18  C   UNL     1       3.026  34.727  59.826  1.00  0.00     0.002 A 
HETATM   19  C   UNL     1       3.505  33.638  59.095  1.00  0.00     0.032 A 
BRANCH  15  20
HETATM   20  O   UNL     1       5.611  31.937  61.534  1.00  0.00    -0.354 OA
HETATM   21  C   UNL     1       6.107  32.135  62.852  1.00  0.00     0.210 C 
ENDBRANCH  15  20
ENDBRANCH  11  14
ENDBRANCH   8  10
BRANCH   7  22
HETATM   22  C   UNL     1       8.449  29.861  57.754  1.00  0.00    -0.016 A 
HETATM   23  C   UNL     1       9.264  30.713  58.542  1.00  0.00     0.056 A 
HETATM   24  C   UNL     1      10.560  31.037  58.094  1.00  0.00     0.017 A 
HETATM   25  C   UNL     1      11.060  30.519  56.901  1.00  0.00     0.001 A 
HETATM   26  C   UNL     1      10.277  29.663  56.138  1.00  0.00     0.001 A 
HETATM   27  C   UNL     1       8.990  29.334  56.561  1.00  0.00     0.010 A 
BRANCH  23  28
HETATM   28  C   UNL     1       8.790  31.276  59.866  1.00  0.00     0.418 C 
HETATM   29  F   UNL     1       8.054  30.375  60.575  1.00  0.00    -0.166 F 
HETATM   30  F   UNL     1       9.800  31.660  60.695  1.00  0.00    -0.166 F 
HETATM   31  F   UNL     1       7.999  32.372  59.711  1.00  0.00    -0.166 F 
ENDBRANCH  23  28
ENDBRANCH   7  22
BRANCH   3  32
HETATM   32  C   UNL     1       4.890  27.541  55.013  1.00  0.00     0.160 C 
BRANCH  32  33
HETATM   33  C   UNL     1       5.770  27.606  53.756  1.00  0.00     0.187 C 
BRANCH  33  34
HETATM   34  O   UNL     1       6.222  26.305  53.375  1.00  0.00    -0.394 OA
HETATM   35  C   UNL     1       5.231  25.315  53.612  1.00  0.00     0.201 C 
ENDBRANCH  33  34
ENDBRANCH  32  33
ENDBRANCH   3  32
TORSDOF 8
ENDMDL
MODEL 9
REMARK VINA RESULT:      -7.3      2.767      3.777
REMARK  8 active torsions:
REMARK  status: ('A' for Active; 'I' for Inactive)
REMARK    1  A    between atoms: N_3  and  C_4 
REMARK    2  A    between atoms: C_4  and  C_5 
REMARK    3  A    between atoms: C_5  and  O_6 
REMARK    4  A    between atoms: C_11  and  C_12 
REMARK    5  A    between atoms: C_13  and  C_14 
REMARK    6  A    between atoms: C_22  and  C_23 
REMARK       I    between atoms: C_23  and  N_24 
REMARK    7  A    between atoms: N_24  and  C_25 
REMARK    8  A    between atoms: C_26  and  O_27 
ROOT
HETATM    1  C   UNL     1       6.357  29.631  56.366  1.00  0.00     0.069 C 
HETATM    2  C   UNL     1       5.355  29.760  55.244  1.00  0.00     0.026 C 
HETATM    3  N   UNL     1       4.362  30.750  55.332  1.00  0.00    -0.301 N 
HETATM    4  C   UNL     1       3.251  30.773  54.483  1.00  0.00     0.323 C 
HETATM    5  O   UNL     1       2.313  31.563  54.564  1.00  0.00    -0.247 OA
HETATM    6  N   UNL     1       3.196  29.800  53.532  1.00  0.00    -0.330 N 
HETATM    7  C   UNL     1       4.339  29.058  53.071  1.00  0.00     0.161 C 
HETATM    8  C   UNL     1       5.353  28.950  54.165  1.00  0.00     0.059 C 
HETATM    9  H   UNL     1       2.390  29.877  52.928  1.00  0.00     0.165 HD
ENDROOT
BRANCH   8  10
HETATM   10  C   UNL     1       6.299  27.809  54.051  1.00  0.00     0.256 C 
HETATM   11  N   UNL     1       5.716  26.603  54.360  1.00  0.00    -0.321 N 
HETATM   12  H   UNL     1       4.736  26.586  54.631  1.00  0.00     0.169 HD
HETATM   13  O   UNL     1       7.457  28.017  53.711  1.00  0.00    -0.267 OA
BRANCH  11  14
HETATM   14  C   UNL     1       6.328  25.331  54.416  1.00  0.00     0.068 A 
HETATM   15  C   UNL     1       6.675  24.848  55.697  1.00  0.00     0.095 A 
HETATM   16  C   UNL     1       7.299  23.603  55.824  1.00  0.00     0.039 A 
HETATM   17  C   UNL     1       7.570  22.837  54.689  1.00  0.00     0.003 A 
HETATM   18  C   UNL     1       7.222  23.311  53.426  1.00  0.00     0.002 A 
HETATM   19  C   UNL     1       6.605  24.555  53.289  1.00  0.00     0.032 A 
BRANCH  15  20
HETATM   20  O   UNL     1       6.361  25.683  56.745  1.00  0.00    -0.354 OA
HETATM   21  C   UNL     1       7.443  26.169  57.530  1.00  0.00     0.210 C 
ENDBRANCH  15  20
ENDBRANCH  11  14
ENDBRANCH   8  10
BRANCH   7  22
HETATM   22  C   UNL     1       4.868  29.692  51.781  1.00  0.00    -0.016 A 
HETATM   23  C   UNL     1       5.241  28.912  50.656  1.00  0.00     0.056 A 
HETATM   24  C   UNL     1       5.720  29.556  49.498  1.00  0.00     0.017 A 
HETATM   25  C   UNL     1       5.815  30.945  49.433  1.00  0.00     0.001 A 
HETATM   26  C   UNL     1       5.427  31.715  50.521  1.00  0.00     0.001 A 
HETATM   27  C   UNL     1       4.955  31.098  51.678  1.00  0.00     0.010 A 
BRANCH  23  28
HETATM   28  C   UNL     1       5.123  27.402  50.653  1.00  0.00     0.418 C 
HETATM   29  F   UNL     1       4.162  26.959  51.510  1.00  0.00    -0.166 F 
HETATM   30  F   UNL     1       4.803  26.877  49.438  1.00  0.00    -0.166 F 
HETATM   31  F   UNL     1       6.278  26.791  51.031  1.00  0.00    -0.166 F 
ENDBRANCH  23  28
ENDBRANCH   7  22
BRANCH   3  32
HETATM   32  C   UNL     1       4.416  31.813  56.348  1.00  0.00     0.160 C 
BRANCH  32  33
HETATM   33  C   UNL     1       5.005  33.131  55.823  1.00  0.00     0.187 C 
BRANCH  33  34
HETATM   34  O   UNL     1       5.236  34.052  56.890  1.00  0.00    -0.394 OA
HETATM   35  C   UNL     1       4.941  33.476  58.156  1.00  0.00     0.201 C 
ENDBRANCH  33  34
ENDBRANCH  32  33
ENDBRANCH   3  32
TORSDOF 8
ENDMDL
MODEL 10
REMARK VINA RESULT:      -7.1      6.364      8.954
REMARK  8 active torsions:
REMARK  status: ('A' for Active; 'I' for Inactive)
REMARK    1  A    between atoms: N_3  and  C_4 
REMARK    2  A    between atoms: C_4  and  C_5 
REMARK    3  A    between atoms: C_5  and  O_6 
REMARK    4  A    between atoms: C_11  and  C_12 
REMARK    5  A    between atoms: C_13  and  C_14 
REMARK    6  A    between atoms: C_22  and  C_23 
REMARK       I    between atoms: C_23  and  N_24 
REMARK    7  A    between atoms: N_24  and  C_25 
REMARK    8  A    between atoms: C_26  and  O_27 
ROOT
HETATM    1  C   UNL     1       7.222  32.024  61.766  1.00  0.00     0.069 C 
HETATM    2  C   UNL     1       5.804  32.406  61.412  1.00  0.00     0.026 C 
HETATM    3  N   UNL     1       4.924  32.773  62.443  1.00  0.00    -0.301 N 
HETATM    4  C   UNL     1       3.544  32.886  62.244  1.00  0.00     0.323 C 
HETATM    5  O   UNL     1       2.718  33.125  63.123  1.00  0.00    -0.247 OA
HETATM    6  N   UNL     1       3.095  32.654  60.980  1.00  0.00    -0.330 N 
HETATM    7  C   UNL     1       3.919  32.732  59.805  1.00  0.00     0.161 C 
HETATM    8  C   UNL     1       5.333  32.386  60.149  1.00  0.00     0.059 C 
HETATM    9  H   UNL     1       2.096  32.775  60.883  1.00  0.00     0.165 HD
ENDROOT
BRANCH   8  10
HETATM   10  C   UNL     1       6.166  31.901  59.018  1.00  0.00     0.256 C 
HETATM   11  N   UNL     1       5.891  30.599  58.675  1.00  0.00    -0.321 N 
HETATM   12  H   UNL     1       5.178  30.094  59.195  1.00  0.00     0.169 HD
HETATM   13  O   UNL     1       6.987  32.653  58.507  1.00  0.00    -0.267 OA
BRANCH  11  14
HETATM   14  C   UNL     1       6.528  29.804  57.696  1.00  0.00     0.068 A 
HETATM   15  C   UNL     1       7.810  29.305  58.017  1.00  0.00     0.095 A 
HETATM   16  C   UNL     1       8.504  28.525  57.087  1.00  0.00     0.039 A 
HETATM   17  C   UNL     1       7.929  28.234  55.849  1.00  0.00     0.003 A 
HETATM   18  C   UNL     1       6.662  28.721  55.535  1.00  0.00     0.002 A 
HETATM   19  C   UNL     1       5.964  29.506  56.454  1.00  0.00     0.032 A 
BRANCH  15  20
HETATM   20  O   UNL     1       8.280  29.652  59.263  1.00  0.00    -0.354 OA
HETATM   21  C   UNL     1       9.466  30.437  59.310  1.00  0.00     0.210 C 
ENDBRANCH  15  20
ENDBRANCH  11  14
ENDBRANCH   8  10
BRANCH   7  22
HETATM   22  C   UNL     1       3.746  34.108  59.154  1.00  0.00    -0.016 A 
HETATM   23  C   UNL     1       3.572  34.263  57.755  1.00  0.00     0.056 A 
HETATM   24  C   UNL     1       3.417  35.557  57.218  1.00  0.00     0.017 A 
HETATM   25  C   UNL     1       3.414  36.682  58.040  1.00  0.00     0.001 A 
HETATM   26  C   UNL     1       3.558  36.535  59.413  1.00  0.00     0.001 A 
HETATM   27  C   UNL     1       3.717  35.264  59.964  1.00  0.00     0.010 A 
BRANCH  23  28
HETATM   28  C   UNL     1       3.528  33.076  56.816  1.00  0.00     0.418 C 
HETATM   29  F   UNL     1       2.671  33.273  55.776  1.00  0.00    -0.166 F 
HETATM   30  F   UNL     1       4.730  32.775  56.250  1.00  0.00    -0.166 F 
HETATM   31  F   UNL     1       3.114  31.938  57.437  1.00  0.00    -0.166 F 
ENDBRANCH  23  28
ENDBRANCH   7  22
BRANCH   3  32
HETATM   32  C   UNL     1       5.399  33.038  63.810  1.00  0.00     0.160 C 
BRANCH  32  33
HETATM   33  C   UNL     1       5.768  34.508  64.056  1.00  0.00     0.187 C 
BRANCH  33  34
HETATM   34  O   UNL     1       5.354  34.931  65.356  1.00  0.00    -0.394 OA
HETATM   35  C   UNL     1       4.617  33.920  66.029  1.00  0.00     0.201 C 
ENDBRANCH  33  34
ENDBRANCH  32  33
ENDBRANCH   3  32
TORSDOF 8
ENDMDL
