MODEL 1
REMARK VINA RESULT:      -8.3      0.000      0.000
REMARK  5 active torsions:
REMARK  status: ('A' for Active; 'I' for Inactive)
REMARK    1  A    between atoms: C_2  and  O_3 
REMARK    2  A    between atoms: C_4  and  C_5 
REMARK    3  A    between atoms: C_5  and  O_6 
REMARK    4  A    between atoms: C_9  and  C_10 
REMARK    5  A    between atoms: C_22  and  O_23 
ROOT
HETATM    1  C   UNL     1       3.893  28.178  53.766  1.00  0.00     0.047 C 
HETATM    2  C   UNL     1       4.825  27.607  54.846  1.00  0.00     0.073 C 
HETATM    3  C   UNL     1       4.977  26.045  54.777  1.00  0.00     0.133 C 
HETATM    4  C   UNL     1       6.077  25.424  55.707  1.00  0.00     0.074 C 
HETATM    5  C   UNL     1       7.026  26.442  56.248  1.00  0.00     0.030 A 
HETATM    6  C   UNL     1       7.078  27.750  55.821  1.00  0.00     0.042 A 
HETATM    7  N   UNL     1       8.046  28.374  56.556  1.00  0.00    -0.279 N 
HETATM    8  H   UNL     1       8.360  29.338  56.507  1.00  0.00     0.189 HD
HETATM    9  N   UNL     1       8.587  27.565  57.491  1.00  0.00    -0.149 NA
HETATM   10  C   UNL     1       7.959  26.414  57.285  1.00  0.00     0.190 A 
HETATM   11  C   UNL     1       6.182  28.368  54.815  1.00  0.00     0.097 C 
ENDROOT
BRANCH   4  12
HETATM   12  C   UNL     1       6.958  24.337  55.097  1.00  0.00    -0.047 A 
HETATM   13  C   UNL     1       7.051  23.041  55.646  1.00  0.00     0.027 A 
HETATM   14  C   UNL     1       7.890  22.083  55.076  1.00  0.00     0.011 A 
HETATM   15 BR   UNL     1       7.998  20.359  55.845  1.00  0.00    -0.051 Br
HETATM   16  C   UNL     1       8.648  22.388  53.951  1.00  0.00     0.019 A 
HETATM   17  C   UNL     1       8.570  23.664  53.395  1.00  0.00     0.002 A 
HETATM   18  C   UNL     1       7.734  24.631  53.962  1.00  0.00     0.008 A 
ENDBRANCH   4  12
BRANCH   3  19
HETATM   19  C   UNL     1       5.095  25.561  53.346  1.00  0.00     0.266 C 
HETATM   20  O   UNL     1       4.490  24.608  52.876  1.00  0.00    -0.265 OA
BRANCH  19  21
HETATM   21  O   UNL     1       5.972  26.351  52.663  1.00  0.00    -0.326 OA
HETATM   22  C   UNL     1       5.806  26.329  51.245  1.00  0.00     0.213 C 
ENDBRANCH  19  21
ENDBRANCH   3  19
BRANCH   2  23
HETATM   23  O   UNL     1       4.145  27.922  56.087  1.00  0.00    -0.389 OA
HETATM   24  H   UNL     1       3.933  27.088  56.545  1.00  0.00     0.210 HD
ENDBRANCH   2  23
BRANCH  10  25
HETATM   25  O   UNL     1       8.282  25.430  58.115  1.00  0.00    -0.343 OA
HETATM   26  H   UNL     1       8.814  25.857  58.808  1.00  0.00     0.219 HD
ENDBRANCH  10  25
TORSDOF 5
ENDMDL
MODEL 2
REMARK VINA RESULT:      -7.9      1.902      2.996
REMARK  5 active torsions:
REMARK  status: ('A' for Active; 'I' for Inactive)
REMARK    1  A    between atoms: C_2  and  O_3 
REMARK    2  A    between atoms: C_4  and  C_5 
REMARK    3  A    between atoms: C_5  and  O_6 
REMARK    4  A    between atoms: C_9  and  C_10 
REMARK    5  A    between atoms: C_22  and  O_23 
ROOT
HETATM    1  C   UNL     1       5.519  26.576  50.954  1.00  0.00     0.047 C 
HETATM    2  C   UNL     1       5.254  26.877  52.437  1.00  0.00     0.073 C 
HETATM    3  C   UNL     1       5.630  25.688  53.392  1.00  0.00     0.133 C 
HETATM    4  C   UNL     1       5.589  26.005  54.928  1.00  0.00     0.074 C 
HETATM    5  C   UNL     1       5.532  27.468  55.219  1.00  0.00     0.030 A 
HETATM    6  C   UNL     1       5.711  28.451  54.271  1.00  0.00     0.042 A 
HETATM    7  N   UNL     1       5.568  29.652  54.904  1.00  0.00    -0.279 N 
HETATM    8  H   UNL     1       5.640  30.589  54.518  1.00  0.00     0.189 HD
HETATM    9  N   UNL     1       5.235  29.514  56.206  1.00  0.00    -0.149 NA
HETATM   10  C   UNL     1       5.221  28.197  56.368  1.00  0.00     0.190 A 
HETATM   11  C   UNL     1       5.931  28.225  52.823  1.00  0.00     0.097 C 
ENDROOT
BRANCH   4  12
HETATM   12  C   UNL     1       6.744  25.471  55.770  1.00  0.00    -0.047 A 
HETATM   13  C   UNL     1       6.937  24.094  56.004  1.00  0.00     0.027 A 
HETATM   14  C   UNL     1       7.989  23.646  56.804  1.00  0.00     0.011 A 
HETATM   15 BR   UNL     1       8.212  21.793  57.105  1.00  0.00    -0.051 Br
HETATM   16  C   UNL     1       8.870  24.552  57.384  1.00  0.00     0.019 A 
HETATM   17  C   UNL     1       8.694  25.918  57.165  1.00  0.00     0.002 A 
HETATM   18  C   UNL     1       7.641  26.374  56.367  1.00  0.00     0.008 A 
ENDBRANCH   4  12
BRANCH   3  19
HETATM   19  C   UNL     1       6.931  25.032  52.977  1.00  0.00     0.266 C 
HETATM   20  O   UNL     1       8.010  25.603  52.896  1.00  0.00    -0.265 OA
BRANCH  19  21
HETATM   21  O   UNL     1       6.719  23.711  52.712  1.00  0.00    -0.326 OA
HETATM   22  C   UNL     1       7.884  22.892  52.814  1.00  0.00     0.213 C 
ENDBRANCH  19  21
ENDBRANCH   3  19
BRANCH   2  23
HETATM   23  O   UNL     1       3.815  27.045  52.501  1.00  0.00    -0.389 OA
HETATM   24  H   UNL     1       3.399  26.164  52.493  1.00  0.00     0.210 HD
ENDBRANCH   2  23
BRANCH  10  25
HETATM   25  O   UNL     1       4.877  27.774  57.578  1.00  0.00    -0.343 OA
HETATM   26  H   UNL     1       5.713  27.490  57.986  1.00  0.00     0.219 HD
ENDBRANCH  10  25
TORSDOF 5
ENDMDL
MODEL 3
REMARK VINA RESULT:      -7.8      3.137      5.834
REMARK  5 active torsions:
REMARK  status: ('A' for Active; 'I' for Inactive)
REMARK    1  A    between atoms: C_2  and  O_3 
REMARK    2  A    between atoms: C_4  and  C_5 
REMARK    3  A    between atoms: C_5  and  O_6 
REMARK    4  A    between atoms: C_9  and  C_10 
REMARK    5  A    between atoms: C_22  and  O_23 
ROOT
HETATM    1  C   UNL     1       9.301  21.722  53.896  1.00  0.00     0.047 C 
HETATM    2  C   UNL     1       8.072  22.592  53.588  1.00  0.00     0.073 C 
HETATM    3  C   UNL     1       7.333  23.108  54.874  1.00  0.00     0.133 C 
HETATM    4  C   UNL     1       6.207  24.174  54.634  1.00  0.00     0.074 C 
HETATM    5  C   UNL     1       6.252  24.772  53.267  1.00  0.00     0.030 A 
HETATM    6  C   UNL     1       7.286  24.583  52.377  1.00  0.00     0.042 A 
HETATM    7  N   UNL     1       6.964  25.263  51.237  1.00  0.00    -0.279 N 
HETATM    8  H   UNL     1       7.495  25.350  50.375  1.00  0.00     0.189 HD
HETATM    9  N   UNL     1       5.741  25.832  51.302  1.00  0.00    -0.149 NA
HETATM   10  C   UNL     1       5.338  25.524  52.529  1.00  0.00     0.190 A 
HETATM   11  C   UNL     1       8.475  23.727  52.601  1.00  0.00     0.097 C 
ENDROOT
BRANCH   4  12
HETATM   12  C   UNL     1       6.170  25.361  55.592  1.00  0.00    -0.047 A 
HETATM   13  C   UNL     1       6.981  26.501  55.417  1.00  0.00     0.027 A 
HETATM   14  C   UNL     1       6.939  27.554  56.331  1.00  0.00     0.011 A 
HETATM   15 BR   UNL     1       8.047  29.063  56.070  1.00  0.00    -0.051 Br
HETATM   16  C   UNL     1       6.092  27.500  57.433  1.00  0.00     0.019 A 
HETATM   17  C   UNL     1       5.284  26.380  57.623  1.00  0.00     0.002 A 
HETATM   18  C   UNL     1       5.322  25.319  56.713  1.00  0.00     0.008 A 
ENDBRANCH   4  12
BRANCH   3  19
HETATM   19  C   UNL     1       8.316  23.544  55.941  1.00  0.00     0.266 C 
HETATM   20  O   UNL     1       9.253  24.310  55.762  1.00  0.00    -0.265 OA
BRANCH  19  21
HETATM   21  O   UNL     1       7.996  22.958  57.131  1.00  0.00    -0.326 OA
HETATM   22  C   UNL     1       8.345  21.577  57.224  1.00  0.00     0.213 C 
ENDBRANCH  19  21
ENDBRANCH   3  19
BRANCH   2  23
HETATM   23  O   UNL     1       7.171  21.683  52.906  1.00  0.00    -0.389 OA
HETATM   24  H   UNL     1       6.435  21.466  53.508  1.00  0.00     0.210 HD
ENDBRANCH   2  23
BRANCH  10  25
HETATM   25  O   UNL     1       4.119  25.940  52.851  1.00  0.00    -0.343 OA
HETATM   26  H   UNL     1       4.222  26.891  53.028  1.00  0.00     0.219 HD
ENDBRANCH  10  25
TORSDOF 5
ENDMDL
MODEL 4
REMARK VINA RESULT:      -7.7      2.870      4.899
REMARK  5 active torsions:
REMARK  status: ('A' for Active; 'I' for Inactive)
REMARK    1  A    between atoms: C_2  and  O_3 
REMARK    2  A    between atoms: C_4  and  C_5 
REMARK    3  A    between atoms: C_5  and  O_6 
REMARK    4  A    between atoms: C_9  and  C_10 
REMARK    5  A    between atoms: C_22  and  O_23 
ROOT
HETATM    1  C   UNL     1       7.331  22.508  53.332  1.00  0.00     0.047 C 
HETATM    2  C   UNL     1       7.633  23.746  54.190  1.00  0.00     0.073 C 
HETATM    3  C   UNL     1       7.259  25.099  53.487  1.00  0.00     0.133 C 
HETATM    4  C   UNL     1       7.337  26.383  54.387  1.00  0.00     0.074 C 
HETATM    5  C   UNL     1       7.425  26.068  55.844  1.00  0.00     0.030 A 
HETATM    6  C   UNL     1       7.241  24.810  56.373  1.00  0.00     0.042 A 
HETATM    7  N   UNL     1       7.417  24.912  57.723  1.00  0.00    -0.279 N 
HETATM    8  H   UNL     1       7.352  24.187  58.431  1.00  0.00     0.189 HD
HETATM    9  N   UNL     1       7.776  26.157  58.105  1.00  0.00    -0.149 NA
HETATM   10  C   UNL     1       7.772  26.829  56.961  1.00  0.00     0.190 A 
HETATM   11  C   UNL     1       6.987  23.574  55.596  1.00  0.00     0.097 C 
ENDROOT
BRANCH   4  12
HETATM   12  C   UNL     1       6.192  27.383  54.258  1.00  0.00    -0.047 A 
HETATM   13  C   UNL     1       6.054  28.235  53.143  1.00  0.00     0.027 A 
HETATM   14  C   UNL     1       5.009  29.157  53.076  1.00  0.00     0.011 A 
HETATM   15 BR   UNL     1       4.859  30.292  51.571  1.00  0.00    -0.051 Br
HETATM   16  C   UNL     1       4.081  29.251  54.107  1.00  0.00     0.019 A 
HETATM   17  C   UNL     1       4.203  28.417  55.218  1.00  0.00     0.002 A 
HETATM   18  C   UNL     1       5.249  27.492  55.294  1.00  0.00     0.008 A 
ENDBRANCH   4  12
BRANCH   3  19
HETATM   19  C   UNL     1       5.939  24.996  52.751  1.00  0.00     0.266 C 
HETATM   20  O   UNL     1       4.864  24.730  53.271  1.00  0.00    -0.265 OA
BRANCH  19  21
HETATM   21  O   UNL     1       6.128  25.251  51.425  1.00  0.00    -0.326 OA
HETATM   22  C   UNL     1       5.054  25.951  50.797  1.00  0.00     0.213 C 
ENDBRANCH  19  21
ENDBRANCH   3  19
BRANCH   2  23
HETATM   23  O   UNL     1       9.076  23.718  54.337  1.00  0.00    -0.389 OA
HETATM   24  H   UNL     1       9.323  22.908  54.819  1.00  0.00     0.210 HD
ENDBRANCH   2  23
BRANCH  10  25
HETATM   25  O   UNL     1       8.135  28.103  57.045  1.00  0.00    -0.343 OA
HETATM   26  H   UNL     1       9.056  28.076  57.357  1.00  0.00     0.219 HD
ENDBRANCH  10  25
TORSDOF 5
ENDMDL
MODEL 5
REMARK VINA RESULT:      -7.7      3.095      5.208
REMARK  5 active torsions:
REMARK  status: ('A' for Active; 'I' for Inactive)
REMARK    1  A    between atoms: C_2  and  O_3 
REMARK    2  A    between atoms: C_4  and  C_5 
REMARK    3  A    between atoms: C_5  and  O_6 
REMARK    4  A    between atoms: C_9  and  C_10 
REMARK    5  A    between atoms: C_22  and  O_23 
ROOT
HETATM    1  C   UNL     1       6.807  23.942  55.546  1.00  0.00     0.047 C 
HETATM    2  C   UNL     1       6.695  25.472  55.628  1.00  0.00     0.073 C 
HETATM    3  C   UNL     1       6.671  26.174  54.224  1.00  0.00     0.133 C 
HETATM    4  C   UNL     1       6.340  27.708  54.231  1.00  0.00     0.074 C 
HETATM    5  C   UNL     1       5.770  28.175  55.529  1.00  0.00     0.030 A 
HETATM    6  C   UNL     1       5.371  27.333  56.543  1.00  0.00     0.042 A 
HETATM    7  N   UNL     1       4.928  28.120  57.568  1.00  0.00    -0.279 N 
HETATM    8  H   UNL     1       4.556  27.840  58.470  1.00  0.00     0.189 HD
HETATM    9  N   UNL     1       5.078  29.437  57.311  1.00  0.00    -0.149 NA
HETATM   10  C   UNL     1       5.583  29.442  56.083  1.00  0.00     0.190 A 
HETATM   11  C   UNL     1       5.490  25.856  56.538  1.00  0.00     0.097 C 
ENDROOT
BRANCH   4  12
HETATM   12  C   UNL     1       5.371  28.206  53.162  1.00  0.00    -0.047 A 
HETATM   13  C   UNL     1       5.806  28.681  51.908  1.00  0.00     0.027 A 
HETATM   14  C   UNL     1       4.890  29.155  50.968  1.00  0.00     0.011 A 
HETATM   15 BR   UNL     1       5.510  29.794  49.300  1.00  0.00    -0.051 Br
HETATM   16  C   UNL     1       3.529  29.166  51.250  1.00  0.00     0.019 A 
HETATM   17  C   UNL     1       3.081  28.701  52.486  1.00  0.00     0.002 A 
HETATM   18  C   UNL     1       3.992  28.226  53.435  1.00  0.00     0.008 A 
ENDBRANCH   4  12
BRANCH   3  19
HETATM   19  C   UNL     1       5.816  25.408  53.235  1.00  0.00     0.266 C 
HETATM   20  O   UNL     1       4.673  25.025  53.444  1.00  0.00    -0.265 OA
BRANCH  19  21
HETATM   21  O   UNL     1       6.510  25.216  52.076  1.00  0.00    -0.326 OA
HETATM   22  C   UNL     1       7.917  25.052  52.249  1.00  0.00     0.213 C 
ENDBRANCH  19  21
ENDBRANCH   3  19
BRANCH   2  23
HETATM   23  O   UNL     1       7.921  25.871  56.291  1.00  0.00    -0.389 OA
HETATM   24  H   UNL     1       8.367  26.541  55.741  1.00  0.00     0.210 HD
ENDBRANCH   2  23
BRANCH  10  25
HETATM   25  O   UNL     1       5.870  30.639  55.588  1.00  0.00    -0.343 OA
HETATM   26  H   UNL     1       5.151  30.824  54.960  1.00  0.00     0.219 HD
ENDBRANCH  10  25
TORSDOF 5
ENDMDL
MODEL 6
REMARK VINA RESULT:      -7.6     10.256     12.634
REMARK  5 active torsions:
REMARK  status: ('A' for Active; 'I' for Inactive)
REMARK    1  A    between atoms: C_2  and  O_3 
REMARK    2  A    between atoms: C_4  and  C_5 
REMARK    3  A    between atoms: C_5  and  O_6 
REMARK    4  A    between atoms: C_9  and  C_10 
REMARK    5  A    between atoms: C_22  and  O_23 
ROOT
HETATM    1  C   UNL     1       6.082  32.069  59.618  1.00  0.00     0.047 C 
HETATM    2  C   UNL     1       4.776  32.508  60.297  1.00  0.00     0.073 C 
HETATM    3  C   UNL     1       4.884  32.599  61.861  1.00  0.00     0.133 C 
HETATM    4  C   UNL     1       3.658  33.248  62.594  1.00  0.00     0.074 C 
HETATM    5  C   UNL     1       2.743  33.978  61.667  1.00  0.00     0.030 A 
HETATM    6  C   UNL     1       3.037  34.247  60.348  1.00  0.00     0.042 A 
HETATM    7  N   UNL     1       1.961  34.905  59.824  1.00  0.00    -0.279 N 
HETATM    8  H   UNL     1       1.829  35.261  58.882  1.00  0.00     0.189 HD
HETATM    9  N   UNL     1       0.946  35.023  60.707  1.00  0.00    -0.149 NA
HETATM   10  C   UNL     1       1.441  34.461  61.802  1.00  0.00     0.190 A 
HETATM   11  C   UNL     1       4.259  33.816  59.629  1.00  0.00     0.097 C 
ENDROOT
BRANCH   4  12
HETATM   12  C   UNL     1       3.973  34.238  63.712  1.00  0.00    -0.047 A 
HETATM   13  C   UNL     1       4.247  33.827  65.033  1.00  0.00     0.027 A 
HETATM   14  C   UNL     1       4.502  34.764  66.034  1.00  0.00     0.011 A 
HETATM   15 BR   UNL     1       4.856  34.177  67.796  1.00  0.00    -0.051 Br
HETATM   16  C   UNL     1       4.492  36.124  65.747  1.00  0.00     0.019 A 
HETATM   17  C   UNL     1       4.222  36.550  64.447  1.00  0.00     0.002 A 
HETATM   18  C   UNL     1       3.963  35.617  63.439  1.00  0.00     0.008 A 
ENDBRANCH   4  12
BRANCH   3  19
HETATM   19  C   UNL     1       6.200  33.214  62.291  1.00  0.00     0.266 C 
HETATM   20  O   UNL     1       6.590  34.330  61.977  1.00  0.00    -0.265 OA
BRANCH  19  21
HETATM   21  O   UNL     1       6.881  32.338  63.085  1.00  0.00    -0.326 OA
HETATM   22  C   UNL     1       7.779  32.952  64.009  1.00  0.00     0.213 C 
ENDBRANCH  19  21
ENDBRANCH   3  19
BRANCH   2  23
HETATM   23  O   UNL     1       3.851  31.434  59.988  1.00  0.00    -0.389 OA
HETATM   24  H   UNL     1       3.251  31.314  60.747  1.00  0.00     0.210 HD
ENDBRANCH   2  23
BRANCH  10  25
HETATM   25  O   UNL     1       0.616  34.407  62.840  1.00  0.00    -0.343 OA
HETATM   26  H   UNL     1       0.078  33.612  62.686  1.00  0.00     0.219 HD
ENDBRANCH  10  25
TORSDOF 5
ENDMDL
MODEL 7
REMARK VINA RESULT:      -7.3     12.704     14.026
REMARK  5 active torsions:
REMARK  status: ('A' for Active; 'I' for Inactive)
REMARK    1  A    between atoms: C_2  and  O_3 
REMARK    2  A    between atoms: C_4  and  C_5 
REMARK    3  A    between atoms: C_5  and  O_6 
REMARK    4  A    between atoms: C_9  and  C_10 
REMARK    5  A    between atoms: C_22  and  O_23 
ROOT
HETATM    1  C   UNL     1       2.796  37.174  59.684  1.00  0.00     0.047 C 
HETATM    2  C   UNL     1       3.490  37.690  60.955  1.00  0.00     0.073 C 
HETATM    3  C   UNL     1       3.144  36.855  62.239  1.00  0.00     0.133 C 
HETATM    4  C   UNL     1       3.984  37.191  63.521  1.00  0.00     0.074 C 
HETATM    5  C   UNL     1       5.199  38.007  63.224  1.00  0.00     0.030 A 
HETATM    6  C   UNL     1       5.664  38.262  61.953  1.00  0.00     0.042 A 
HETATM    7  N   UNL     1       6.771  39.051  62.082  1.00  0.00    -0.279 N 
HETATM    8  H   UNL     1       7.374  39.427  61.355  1.00  0.00     0.189 HD
HETATM    9  N   UNL     1       7.021  39.387  63.366  1.00  0.00    -0.149 NA
HETATM   10  C   UNL     1       6.065  38.747  64.029  1.00  0.00     0.190 A 
HETATM   11  C   UNL     1       5.018  37.827  60.692  1.00  0.00     0.097 C 
ENDROOT
BRANCH   4  12
HETATM   12  C   UNL     1       4.484  36.008  64.344  1.00  0.00    -0.047 A 
HETATM   13  C   UNL     1       5.639  35.277  63.996  1.00  0.00     0.027 A 
HETATM   14  C   UNL     1       6.048  34.183  64.759  1.00  0.00     0.011 A 
HETATM   15 BR   UNL     1       7.596  33.220  64.256  1.00  0.00    -0.051 Br
HETATM   16  C   UNL     1       5.325  33.794  65.880  1.00  0.00     0.019 A 
HETATM   17  C   UNL     1       4.179  34.504  66.239  1.00  0.00     0.002 A 
HETATM   18  C   UNL     1       3.761  35.599  65.478  1.00  0.00     0.008 A 
ENDBRANCH   4  12
BRANCH   3  19
HETATM   19  C   UNL     1       3.119  35.369  61.944  1.00  0.00     0.266 C 
HETATM   20  O   UNL     1       4.002  34.754  61.362  1.00  0.00    -0.265 OA
BRANCH  19  21
HETATM   21  O   UNL     1       1.969  34.821  62.430  1.00  0.00    -0.326 OA
HETATM   22  C   UNL     1       0.950  34.618  61.451  1.00  0.00     0.213 C 
ENDBRANCH  19  21
ENDBRANCH   3  19
BRANCH   2  23
HETATM   23  O   UNL     1       2.931  39.016  61.137  1.00  0.00    -0.389 OA
HETATM   24  H   UNL     1       2.631  39.347  60.271  1.00  0.00     0.210 HD
ENDBRANCH   2  23
BRANCH  10  25
HETATM   25  O   UNL     1       6.054  38.940  65.342  1.00  0.00    -0.343 OA
HETATM   26  H   UNL     1       5.270  39.493  65.502  1.00  0.00     0.219 HD
ENDBRANCH  10  25
TORSDOF 5
ENDMDL
MODEL 8
REMARK VINA RESULT:      -7.1      8.792     11.539
REMARK  5 active torsions:
REMARK  status: ('A' for Active; 'I' for Inactive)
REMARK    1  A    between atoms: C_2  and  O_3 
REMARK    2  A    between atoms: C_4  and  C_5 
REMARK    3  A    between atoms: C_5  and  O_6 
REMARK    4  A    between atoms: C_9  and  C_10 
REMARK    5  A    between atoms: C_22  and  O_23 
ROOT
HETATM    1  C   UNL     1       7.773  32.653  63.568  1.00  0.00     0.047 C 
HETATM    2  C   UNL     1       6.897  32.253  62.372  1.00  0.00     0.073 C 
HETATM    3  C   UNL     1       5.431  32.810  62.456  1.00  0.00     0.133 C 
HETATM    4  C   UNL     1       4.552  32.623  61.170  1.00  0.00     0.074 C 
HETATM    5  C   UNL     1       5.354  32.253  59.965  1.00  0.00     0.030 A 
HETATM    6  C   UNL     1       6.730  32.280  59.918  1.00  0.00     0.042 A 
HETATM    7  N   UNL     1       7.097  31.862  58.670  1.00  0.00    -0.279 N 
HETATM    8  H   UNL     1       8.030  31.763  58.281  1.00  0.00     0.189 HD
HETATM    9  N   UNL     1       6.039  31.494  57.916  1.00  0.00    -0.149 NA
HETATM   10  C   UNL     1       5.008  31.739  58.715  1.00  0.00     0.190 A 
HETATM   11  C   UNL     1       7.628  32.619  61.047  1.00  0.00     0.097 C 
ENDROOT
BRANCH   4  12
HETATM   12  C   UNL     1       3.703  33.815  60.739  1.00  0.00    -0.047 A 
HETATM   13  C   UNL     1       4.194  34.825  59.885  1.00  0.00     0.027 A 
HETATM   14  C   UNL     1       3.395  35.915  59.537  1.00  0.00     0.011 A 
HETATM   15 BR   UNL     1       4.089  37.255  58.399  1.00  0.00    -0.051 Br
HETATM   16  C   UNL     1       2.097  36.023  60.023  1.00  0.00     0.019 A 
HETATM   17  C   UNL     1       1.596  35.035  60.869  1.00  0.00     0.002 A 
HETATM   18  C   UNL     1       2.391  33.941  61.225  1.00  0.00     0.008 A 
ENDBRANCH   4  12
BRANCH   3  19
HETATM   19  C   UNL     1       5.408  34.238  62.962  1.00  0.00     0.266 C 
HETATM   20  O   UNL     1       6.126  35.139  62.552  1.00  0.00    -0.265 OA
BRANCH  19  21
HETATM   21  O   UNL     1       4.464  34.367  63.938  1.00  0.00    -0.326 OA
HETATM   22  C   UNL     1       4.801  33.739  65.175  1.00  0.00     0.213 C 
ENDBRANCH  19  21
ENDBRANCH   3  19
BRANCH   2  23
HETATM   23  O   UNL     1       6.818  30.808  62.473  1.00  0.00    -0.389 OA
HETATM   24  H   UNL     1       6.458  30.578  63.349  1.00  0.00     0.210 HD
ENDBRANCH   2  23
BRANCH  10  25
HETATM   25  O   UNL     1       3.817  31.423  58.223  1.00  0.00    -0.343 OA
HETATM   26  H   UNL     1       3.247  32.176  58.457  1.00  0.00     0.219 HD
ENDBRANCH  10  25
TORSDOF 5
ENDMDL
MODEL 9
REMARK VINA RESULT:      -7.1      3.159      4.837
REMARK  5 active torsions:
REMARK  status: ('A' for Active; 'I' for Inactive)
REMARK    1  A    between atoms: C_2  and  O_3 
REMARK    2  A    between atoms: C_4  and  C_5 
REMARK    3  A    between atoms: C_5  and  O_6 
REMARK    4  A    between atoms: C_9  and  C_10 
REMARK    5  A    between atoms: C_22  and  O_23 
ROOT
HETATM    1  C   UNL     1       5.597  25.828  50.973  1.00  0.00     0.047 C 
HETATM    2  C   UNL     1       6.499  25.500  52.173  1.00  0.00     0.073 C 
HETATM    3  C   UNL     1       6.973  26.771  52.964  1.00  0.00     0.133 C 
HETATM    4  C   UNL     1       7.712  26.496  54.320  1.00  0.00     0.074 C 
HETATM    5  C   UNL     1       7.544  25.093  54.802  1.00  0.00     0.030 A 
HETATM    6  C   UNL     1       6.668  24.187  54.247  1.00  0.00     0.042 A 
HETATM    7  N   UNL     1       6.811  23.016  54.935  1.00  0.00    -0.279 N 
HETATM    8  H   UNL     1       6.321  22.136  54.803  1.00  0.00     0.189 HD
HETATM    9  N   UNL     1       7.784  23.081  55.869  1.00  0.00    -0.149 NA
HETATM   10  C   UNL     1       8.206  24.335  55.769  1.00  0.00     0.190 A 
HETATM   11  C   UNL     1       5.803  24.432  53.068  1.00  0.00     0.097 C 
ENDROOT
BRANCH   4  12
HETATM   12  C   UNL     1       7.325  27.378  55.504  1.00  0.00    -0.047 A 
HETATM   13  C   UNL     1       8.204  28.333  56.056  1.00  0.00     0.027 A 
HETATM   14  C   UNL     1       7.824  29.100  57.157  1.00  0.00     0.011 A 
HETATM   15 BR   UNL     1       9.031  30.364  57.878  1.00  0.00    -0.051 Br
HETATM   16  C   UNL     1       6.567  28.939  57.730  1.00  0.00     0.019 A 
HETATM   17  C   UNL     1       5.686  27.999  57.199  1.00  0.00     0.002 A 
HETATM   18  C   UNL     1       6.060  27.224  56.097  1.00  0.00     0.008 A 
ENDBRANCH   4  12
BRANCH   3  19
HETATM   19  C   UNL     1       5.854  27.780  53.116  1.00  0.00     0.266 C 
HETATM   20  O   UNL     1       4.769  27.553  53.635  1.00  0.00    -0.265 OA
BRANCH  19  21
HETATM   21  O   UNL     1       6.239  28.980  52.594  1.00  0.00    -0.326 OA
HETATM   22  C   UNL     1       5.419  29.450  51.524  1.00  0.00     0.213 C 
ENDBRANCH  19  21
ENDBRANCH   3  19
BRANCH   2  23
HETATM   23  O   UNL     1       7.673  24.903  51.567  1.00  0.00    -0.389 OA
HETATM   24  H   UNL     1       7.410  24.486  50.726  1.00  0.00     0.210 HD
ENDBRANCH   2  23
BRANCH  10  25
HETATM   25  O   UNL     1       9.213  24.665  56.568  1.00  0.00    -0.343 OA
HETATM   26  H   UNL     1       8.988  24.263  57.425  1.00  0.00     0.219 HD
ENDBRANCH  10  25
TORSDOF 5
ENDMDL
MODEL 10
REMARK VINA RESULT:      -7.0      3.011      4.724
REMARK  5 active torsions:
REMARK  status: ('A' for Active; 'I' for Inactive)
REMARK    1  A    between atoms: C_2  and  O_3 
REMARK    2  A    between atoms: C_4  and  C_5 
REMARK    3  A    between atoms: C_5  and  O_6 
REMARK    4  A    between atoms: C_9  and  C_10 
REMARK    5  A    between atoms: C_22  and  O_23 
ROOT
HETATM    1  C   UNL     1       5.030  30.032  57.575  1.00  0.00     0.047 C 
HETATM    2  C   UNL     1       5.158  29.888  56.051  1.00  0.00     0.073 C 
HETATM    3  C   UNL     1       6.052  28.675  55.610  1.00  0.00     0.133 C 
HETATM    4  C   UNL     1       6.046  28.341  54.077  1.00  0.00     0.074 C 
HETATM    5  C   UNL     1       4.934  29.011  53.340  1.00  0.00     0.030 A 
HETATM    6  C   UNL     1       3.894  29.677  53.951  1.00  0.00     0.042 A 
HETATM    7  N   UNL     1       3.095  30.170  52.960  1.00  0.00    -0.279 N 
HETATM    8  H   UNL     1       2.237  30.707  53.041  1.00  0.00     0.189 HD
HETATM    9  N   UNL     1       3.589  29.925  51.727  1.00  0.00    -0.149 NA
HETATM   10  C   UNL     1       4.690  29.229  51.983  1.00  0.00     0.190 A 
HETATM   11  C   UNL     1       3.739  29.882  55.410  1.00  0.00     0.097 C 
ENDROOT
BRANCH   4  12
HETATM   12  C   UNL     1       5.951  26.867  53.695  1.00  0.00    -0.047 A 
HETATM   13  C   UNL     1       7.068  26.005  53.722  1.00  0.00     0.027 A 
HETATM   14  C   UNL     1       6.947  24.669  53.337  1.00  0.00     0.011 A 
HETATM   15 BR   UNL     1       8.467  23.545  53.375  1.00  0.00    -0.051 Br
HETATM   16  C   UNL     1       5.721  24.161  52.923  1.00  0.00     0.019 A 
HETATM   17  C   UNL     1       4.606  24.999  52.890  1.00  0.00     0.002 A 
HETATM   18  C   UNL     1       4.720  26.339  53.271  1.00  0.00     0.008 A 
ENDBRANCH   4  12
BRANCH   3  19
HETATM   19  C   UNL     1       5.787  27.451  56.464  1.00  0.00     0.266 C 
HETATM   20  O   UNL     1       4.697  26.913  56.600  1.00  0.00    -0.265 OA
BRANCH  19  21
HETATM   21  O   UNL     1       6.946  27.037  57.051  1.00  0.00    -0.326 OA
HETATM   22  C   UNL     1       6.961  25.659  57.425  1.00  0.00     0.213 C 
ENDBRANCH  19  21
ENDBRANCH   3  19
BRANCH   2  23
HETATM   23  O   UNL     1       5.843  31.100  55.648  1.00  0.00    -0.389 OA
HETATM   24  H   UNL     1       6.748  30.867  55.370  1.00  0.00     0.210 HD
ENDBRANCH   2  23
BRANCH  10  25
HETATM   25  O   UNL     1       5.407  28.884  50.922  1.00  0.00    -0.343 OA
HETATM   26  H   UNL     1       4.894  28.174  50.498  1.00  0.00     0.219 HD
ENDBRANCH  10  25
TORSDOF 5
ENDMDL
