MODEL 1
REMARK VINA RESULT:      -8.2      0.000      0.000
REMARK  3 active torsions:
REMARK  status: ('A' for Active; 'I' for Inactive)
REMARK    1  A    between atoms: C_5  and  C_6 
REMARK    2  A    between atoms: C_10  and  N_11 
REMARK    3  A    between atoms: C_18  and  C_19 
ROOT
HETATM    1  C   UNL     1       7.270  28.160  55.587  1.00  0.00     0.106 A 
HETATM    2  C   UNL     1       7.830  28.900  56.808  1.00  0.00     0.081 A 
HETATM    3  C   UNL     1       9.249  28.929  56.940  1.00  0.00     0.100 C 
HETATM    4  N   UNL     1      10.405  28.957  57.046  1.00  0.00    -0.191 NA
HETATM    5  C   UNL     1       7.039  29.545  57.709  1.00  0.00     0.140 A 
HETATM    6  O   UNL     1       5.641  29.579  57.580  1.00  0.00    -0.279 OA
HETATM    7  C   UNL     1       5.136  29.022  56.486  1.00  0.00     0.175 A 
HETATM    8  C   UNL     1       5.795  28.348  55.490  1.00  0.00     0.040 A 
HETATM    9  N   UNL     1       3.823  29.033  56.157  1.00  0.00    -0.256 N 
HETATM   10  H   UNL     1       3.050  29.444  56.667  1.00  0.00     0.191 HD
HETATM   11  N   UNL     1       3.575  28.413  54.991  1.00  0.00    -0.172 NA
HETATM   12  C   UNL     1       4.783  28.005  54.547  1.00  0.00     0.099 A 
ENDROOT
BRANCH   1  13
HETATM   13  C   UNL     1       7.537  26.661  55.660  1.00  0.00    -0.044 A 
HETATM   14  C   UNL     1       7.875  25.892  54.532  1.00  0.00     0.009 A 
HETATM   15  C   UNL     1       8.037  24.508  54.629  1.00  0.00     0.007 A 
HETATM   16  C   UNL     1       7.858  23.854  55.852  1.00  0.00    -0.062 A 
HETATM   17  C   UNL     1       7.976  22.361  55.937  1.00  0.00     0.048 C 
HETATM   18  C   UNL     1       7.501  24.606  56.975  1.00  0.00     0.007 A 
HETATM   19  C   UNL     1       7.347  25.992  56.882  1.00  0.00     0.009 A 
ENDBRANCH   1  13
BRANCH   5  20
HETATM   20  N   UNL     1       7.486  30.226  58.819  1.00  0.00    -0.282 NA
HETATM   21  H   UNL     1       7.762  29.645  59.608  1.00  0.00     0.126 HD
HETATM   22  H   UNL     1       6.857  30.981  59.083  1.00  0.00     0.126 HD
ENDBRANCH   5  20
BRANCH  12  23
HETATM   23  C   UNL     1       4.898  27.309  53.263  1.00  0.00    -0.005 A 
HETATM   24  C   UNL     1       4.789  25.916  53.172  1.00  0.00     0.014 A 
HETATM   25  C   UNL     1       4.917  25.273  51.938  1.00  0.00     0.001 A 
HETATM   26  C   UNL     1       5.167  26.013  50.784  1.00  0.00     0.000 A 
HETATM   27  C   UNL     1       5.291  27.398  50.863  1.00  0.00     0.001 A 
HETATM   28  C   UNL     1       5.159  28.042  52.096  1.00  0.00     0.014 A 
ENDBRANCH  12  23
TORSDOF 3
ENDMDL
MODEL 2
REMARK VINA RESULT:      -8.2      1.878      2.458
REMARK  3 active torsions:
REMARK  status: ('A' for Active; 'I' for Inactive)
REMARK    1  A    between atoms: C_5  and  C_6 
REMARK    2  A    between atoms: C_10  and  N_11 
REMARK    3  A    between atoms: C_18  and  C_19 
ROOT
HETATM    1  C   UNL     1       7.650  29.589  56.441  1.00  0.00     0.106 A 
HETATM    2  C   UNL     1       8.758  29.927  57.445  1.00  0.00     0.081 A 
HETATM    3  C   UNL     1      10.098  29.704  57.013  1.00  0.00     0.100 C 
HETATM    4  N   UNL     1      11.190  29.526  56.661  1.00  0.00    -0.191 NA
HETATM    5  C   UNL     1       8.508  30.457  58.673  1.00  0.00     0.140 A 
HETATM    6  O   UNL     1       7.202  30.737  59.109  1.00  0.00    -0.279 OA
HETATM    7  C   UNL     1       6.230  30.538  58.228  1.00  0.00     0.175 A 
HETATM    8  C   UNL     1       6.321  30.022  56.960  1.00  0.00     0.040 A 
HETATM    9  N   UNL     1       4.927  30.829  58.445  1.00  0.00    -0.256 N 
HETATM   10  H   UNL     1       4.500  31.224  59.275  1.00  0.00     0.191 HD
HETATM   11  N   UNL     1       4.148  30.546  57.387  1.00  0.00    -0.172 NA
HETATM   12  C   UNL     1       4.992  30.071  56.447  1.00  0.00     0.099 A 
ENDROOT
BRANCH   1  13
HETATM   13  C   UNL     1       7.569  28.093  56.165  1.00  0.00    -0.044 A 
HETATM   14  C   UNL     1       7.603  27.555  54.866  1.00  0.00     0.009 A 
HETATM   15  C   UNL     1       7.450  26.182  54.653  1.00  0.00     0.007 A 
HETATM   16  C   UNL     1       7.250  25.313  55.729  1.00  0.00    -0.062 A 
HETATM   17  C   UNL     1       7.027  23.849  55.490  1.00  0.00     0.048 C 
HETATM   18  C   UNL     1       7.192  25.840  57.023  1.00  0.00     0.007 A 
HETATM   19  C   UNL     1       7.354  27.211  57.239  1.00  0.00     0.009 A 
ENDBRANCH   1  13
BRANCH   5  20
HETATM   20  N   UNL     1       9.461  30.781  59.612  1.00  0.00    -0.282 NA
HETATM   21  H   UNL     1       9.734  30.027  60.238  1.00  0.00     0.126 HD
HETATM   22  H   UNL     1       9.236  31.643  60.104  1.00  0.00     0.126 HD
ENDBRANCH   5  20
BRANCH  12  23
HETATM   23  C   UNL     1       4.484  29.687  55.128  1.00  0.00    -0.005 A 
HETATM   24  C   UNL     1       4.269  28.345  54.788  1.00  0.00     0.014 A 
HETATM   25  C   UNL     1       3.798  28.001  53.518  1.00  0.00     0.001 A 
HETATM   26  C   UNL     1       3.546  28.993  52.572  1.00  0.00     0.000 A 
HETATM   27  C   UNL     1       3.768  30.330  52.893  1.00  0.00     0.001 A 
HETATM   28  C   UNL     1       4.236  30.674  54.163  1.00  0.00     0.014 A 
ENDBRANCH  12  23
TORSDOF 3
ENDMDL
MODEL 3
REMARK VINA RESULT:      -7.9      2.449      6.540
REMARK  3 active torsions:
REMARK  status: ('A' for Active; 'I' for Inactive)
REMARK    1  A    between atoms: C_5  and  C_6 
REMARK    2  A    between atoms: C_10  and  N_11 
REMARK    3  A    between atoms: C_18  and  C_19 
ROOT
HETATM    1  C   UNL     1       6.327  28.128  54.975  1.00  0.00     0.106 A 
HETATM    2  C   UNL     1       5.451  27.301  54.027  1.00  0.00     0.081 A 
HETATM    3  C   UNL     1       4.977  27.963  52.856  1.00  0.00     0.100 C 
HETATM    4  N   UNL     1       4.594  28.501  51.901  1.00  0.00    -0.191 NA
HETATM    5  C   UNL     1       5.163  25.988  54.240  1.00  0.00     0.140 A 
HETATM    6  O   UNL     1       5.656  25.292  55.357  1.00  0.00    -0.279 OA
HETATM    7  C   UNL     1       6.489  25.959  56.147  1.00  0.00     0.175 A 
HETATM    8  C   UNL     1       6.880  27.271  56.061  1.00  0.00     0.040 A 
HETATM    9  N   UNL     1       7.122  25.425  57.217  1.00  0.00    -0.256 N 
HETATM   10  H   UNL     1       7.065  24.479  57.574  1.00  0.00     0.191 HD
HETATM   11  N   UNL     1       7.921  26.307  57.841  1.00  0.00    -0.172 NA
HETATM   12  C   UNL     1       7.809  27.448  57.127  1.00  0.00     0.099 A 
ENDROOT
BRANCH   1  13
HETATM   13  C   UNL     1       5.542  29.255  55.636  1.00  0.00    -0.044 A 
HETATM   14  C   UNL     1       6.064  30.550  55.803  1.00  0.00     0.009 A 
HETATM   15  C   UNL     1       5.340  31.534  56.482  1.00  0.00     0.007 A 
HETATM   16  C   UNL     1       4.081  31.247  57.019  1.00  0.00    -0.062 A 
HETATM   17  C   UNL     1       3.335  32.290  57.798  1.00  0.00     0.048 C 
HETATM   18  C   UNL     1       3.563  29.958  56.878  1.00  0.00     0.007 A 
HETATM   19  C   UNL     1       4.281  28.975  56.191  1.00  0.00     0.009 A 
ENDBRANCH   1  13
BRANCH   5  20
HETATM   20  N   UNL     1       4.386  25.197  53.423  1.00  0.00    -0.282 NA
HETATM   21  H   UNL     1       4.871  24.426  52.971  1.00  0.00     0.126 HD
HETATM   22  H   UNL     1       3.827  25.749  52.777  1.00  0.00     0.126 HD
ENDBRANCH   5  20
BRANCH  12  23
HETATM   23  C   UNL     1       8.581  28.632  57.507  1.00  0.00    -0.005 A 
HETATM   24  C   UNL     1       8.146  29.497  58.519  1.00  0.00     0.014 A 
HETATM   25  C   UNL     1       8.893  30.630  58.855  1.00  0.00     0.001 A 
HETATM   26  C   UNL     1      10.076  30.916  58.176  1.00  0.00     0.000 A 
HETATM   27  C   UNL     1      10.513  30.071  57.159  1.00  0.00     0.001 A 
HETATM   28  C   UNL     1       9.769  28.937  56.825  1.00  0.00     0.014 A 
ENDBRANCH  12  23
TORSDOF 3
ENDMDL
MODEL 4
REMARK VINA RESULT:      -7.9      2.662      5.607
REMARK  3 active torsions:
REMARK  status: ('A' for Active; 'I' for Inactive)
REMARK    1  A    between atoms: C_5  and  C_6 
REMARK    2  A    between atoms: C_10  and  N_11 
REMARK    3  A    between atoms: C_18  and  C_19 
ROOT
HETATM    1  C   UNL     1       5.575  27.388  55.931  1.00  0.00     0.106 A 
HETATM    2  C   UNL     1       5.658  26.084  55.128  1.00  0.00     0.081 A 
HETATM    3  C   UNL     1       6.262  24.971  55.782  1.00  0.00     0.100 C 
HETATM    4  N   UNL     1       6.750  24.063  56.316  1.00  0.00    -0.191 NA
HETATM    5  C   UNL     1       5.149  25.954  53.872  1.00  0.00     0.140 A 
HETATM    6  O   UNL     1       4.503  27.017  53.220  1.00  0.00    -0.279 OA
HETATM    7  C   UNL     1       4.338  28.129  53.924  1.00  0.00     0.175 A 
HETATM    8  C   UNL     1       4.781  28.410  55.192  1.00  0.00     0.040 A 
HETATM    9  N   UNL     1       3.668  29.221  53.487  1.00  0.00    -0.256 N 
HETATM   10  H   UNL     1       3.209  29.362  52.595  1.00  0.00     0.191 HD
HETATM   11  N   UNL     1       3.632  30.208  54.399  1.00  0.00    -0.172 NA
HETATM   12  C   UNL     1       4.291  29.719  55.471  1.00  0.00     0.099 A 
ENDROOT
BRANCH   1  13
HETATM   13  C   UNL     1       6.953  27.982  56.196  1.00  0.00    -0.044 A 
HETATM   14  C   UNL     1       7.447  28.208  57.493  1.00  0.00     0.009 A 
HETATM   15  C   UNL     1       8.685  28.825  57.692  1.00  0.00     0.007 A 
HETATM   16  C   UNL     1       9.457  29.238  56.602  1.00  0.00    -0.062 A 
HETATM   17  C   UNL     1      10.758  29.952  56.822  1.00  0.00     0.048 C 
HETATM   18  C   UNL     1       8.966  29.038  55.309  1.00  0.00     0.007 A 
HETATM   19  C   UNL     1       7.731  28.413  55.108  1.00  0.00     0.009 A 
ENDBRANCH   1  13
BRANCH   5  20
HETATM   20  N   UNL     1       5.193  24.810  53.108  1.00  0.00    -0.282 NA
HETATM   21  H   UNL     1       5.269  23.939  53.627  1.00  0.00     0.126 HD
HETATM   22  H   UNL     1       5.870  24.881  52.351  1.00  0.00     0.126 HD
ENDBRANCH   5  20
BRANCH  12  23
HETATM   23  C   UNL     1       4.420  30.526  56.686  1.00  0.00    -0.005 A 
HETATM   24  C   UNL     1       5.551  31.317  56.923  1.00  0.00     0.014 A 
HETATM   25  C   UNL     1       5.659  32.067  58.097  1.00  0.00     0.001 A 
HETATM   26  C   UNL     1       4.643  32.028  59.051  1.00  0.00     0.000 A 
HETATM   27  C   UNL     1       3.519  31.235  58.833  1.00  0.00     0.001 A 
HETATM   28  C   UNL     1       3.409  30.487  57.658  1.00  0.00     0.014 A 
ENDBRANCH  12  23
TORSDOF 3
ENDMDL
MODEL 5
REMARK VINA RESULT:      -7.9      2.770      5.013
REMARK  3 active torsions:
REMARK  status: ('A' for Active; 'I' for Inactive)
REMARK    1  A    between atoms: C_5  and  C_6 
REMARK    2  A    between atoms: C_10  and  N_11 
REMARK    3  A    between atoms: C_18  and  C_19 
ROOT
HETATM    1  C   UNL     1       6.113  26.300  55.348  1.00  0.00     0.106 A 
HETATM    2  C   UNL     1       6.721  24.924  55.053  1.00  0.00     0.081 A 
HETATM    3  C   UNL     1       7.374  24.270  56.138  1.00  0.00     0.100 C 
HETATM    4  N   UNL     1       7.904  23.735  57.022  1.00  0.00    -0.191 NA
HETATM    5  C   UNL     1       6.616  24.313  53.841  1.00  0.00     0.140 A 
HETATM    6  O   UNL     1       5.934  24.908  52.766  1.00  0.00    -0.279 OA
HETATM    7  C   UNL     1       5.323  26.058  53.019  1.00  0.00     0.175 A 
HETATM    8  C   UNL     1       5.327  26.789  54.180  1.00  0.00     0.040 A 
HETATM    9  N   UNL     1       4.554  26.729  52.130  1.00  0.00    -0.256 N 
HETATM   10  H   UNL     1       4.334  26.477  51.174  1.00  0.00     0.191 HD
HETATM   11  N   UNL     1       4.038  27.860  52.640  1.00  0.00    -0.172 NA
HETATM   12  C   UNL     1       4.480  27.904  53.915  1.00  0.00     0.099 A 
ENDROOT
BRANCH   1  13
HETATM   13  C   UNL     1       7.184  27.342  55.648  1.00  0.00    -0.044 A 
HETATM   14  C   UNL     1       7.910  28.000  54.640  1.00  0.00     0.009 A 
HETATM   15  C   UNL     1       8.935  28.893  54.960  1.00  0.00     0.007 A 
HETATM   16  C   UNL     1       9.268  29.146  56.294  1.00  0.00    -0.062 A 
HETATM   17  C   UNL     1      10.409  30.061  56.630  1.00  0.00     0.048 C 
HETATM   18  C   UNL     1       8.567  28.481  57.304  1.00  0.00     0.007 A 
HETATM   19  C   UNL     1       7.534  27.594  56.986  1.00  0.00     0.009 A 
ENDBRANCH   1  13
BRANCH   5  20
HETATM   20  N   UNL     1       7.139  23.080  53.521  1.00  0.00    -0.282 NA
HETATM   21  H   UNL     1       7.076  22.819  52.539  1.00  0.00     0.126 HD
HETATM   22  H   UNL     1       6.808  22.350  54.147  1.00  0.00     0.126 HD
ENDBRANCH   5  20
BRANCH  12  23
HETATM   23  C   UNL     1       4.078  29.003  54.795  1.00  0.00    -0.005 A 
HETATM   24  C   UNL     1       4.090  28.867  56.189  1.00  0.00     0.014 A 
HETATM   25  C   UNL     1       3.687  29.925  57.009  1.00  0.00     0.001 A 
HETATM   26  C   UNL     1       3.260  31.126  56.445  1.00  0.00     0.000 A 
HETATM   27  C   UNL     1       3.232  31.270  55.060  1.00  0.00     0.001 A 
HETATM   28  C   UNL     1       3.637  30.214  54.240  1.00  0.00     0.014 A 
ENDBRANCH  12  23
TORSDOF 3
ENDMDL
MODEL 6
REMARK VINA RESULT:      -7.8      7.903     10.729
REMARK  3 active torsions:
REMARK  status: ('A' for Active; 'I' for Inactive)
REMARK    1  A    between atoms: C_5  and  C_6 
REMARK    2  A    between atoms: C_10  and  N_11 
REMARK    3  A    between atoms: C_18  and  C_19 
ROOT
HETATM    1  C   UNL     1       4.558  35.107  61.090  1.00  0.00     0.106 A 
HETATM    2  C   UNL     1       3.395  36.029  60.707  1.00  0.00     0.081 A 
HETATM    3  C   UNL     1       3.448  37.362  61.210  1.00  0.00     0.100 C 
HETATM    4  N   UNL     1       3.492  38.449  61.616  1.00  0.00    -0.191 NA
HETATM    5  C   UNL     1       2.376  35.639  59.894  1.00  0.00     0.140 A 
HETATM    6  O   UNL     1       2.321  34.348  59.340  1.00  0.00    -0.279 OA
HETATM    7  C   UNL     1       3.359  33.558  59.582  1.00  0.00     0.175 A 
HETATM    8  C   UNL     1       4.456  33.807  60.368  1.00  0.00     0.040 A 
HETATM    9  N   UNL     1       3.514  32.317  59.065  1.00  0.00    -0.256 N 
HETATM   10  H   UNL     1       2.894  31.813  58.443  1.00  0.00     0.191 HD
HETATM   11  N   UNL     1       4.659  31.731  59.455  1.00  0.00    -0.172 NA
HETATM   12  C   UNL     1       5.271  32.645  60.239  1.00  0.00     0.099 A 
ENDROOT
BRANCH   1  13
HETATM   13  C   UNL     1       4.574  34.801  62.583  1.00  0.00    -0.044 A 
HETATM   14  C   UNL     1       3.439  34.351  63.281  1.00  0.00     0.009 A 
HETATM   15  C   UNL     1       3.477  34.155  64.663  1.00  0.00     0.007 A 
HETATM   16  C   UNL     1       4.646  34.412  65.386  1.00  0.00    -0.062 A 
HETATM   17  C   UNL     1       4.664  34.256  66.879  1.00  0.00     0.048 C 
HETATM   18  C   UNL     1       5.773  34.880  64.706  1.00  0.00     0.007 A 
HETATM   19  C   UNL     1       5.740  35.068  63.321  1.00  0.00     0.009 A 
ENDBRANCH   1  13
BRANCH   5  20
HETATM   20  N   UNL     1       1.310  36.424  59.516  1.00  0.00    -0.282 NA
HETATM   21  H   UNL     1       0.440  35.926  59.340  1.00  0.00     0.126 HD
HETATM   22  H   UNL     1       1.556  37.069  58.769  1.00  0.00     0.126 HD
ENDBRANCH   5  20
BRANCH  12  23
HETATM   23  C   UNL     1       6.583  32.354  60.821  1.00  0.00    -0.005 A 
HETATM   24  C   UNL     1       6.718  31.942  62.153  1.00  0.00     0.014 A 
HETATM   25  C   UNL     1       7.982  31.684  62.692  1.00  0.00     0.001 A 
HETATM   26  C   UNL     1       9.124  31.845  61.909  1.00  0.00     0.000 A 
HETATM   27  C   UNL     1       9.004  32.266  60.587  1.00  0.00     0.001 A 
HETATM   28  C   UNL     1       7.741  32.521  60.047  1.00  0.00     0.014 A 
ENDBRANCH  12  23
TORSDOF 3
ENDMDL
MODEL 7
REMARK VINA RESULT:      -7.7      1.431      2.252
REMARK  3 active torsions:
REMARK  status: ('A' for Active; 'I' for Inactive)
REMARK    1  A    between atoms: C_5  and  C_6 
REMARK    2  A    between atoms: C_10  and  N_11 
REMARK    3  A    between atoms: C_18  and  C_19 
ROOT
HETATM    1  C   UNL     1       7.192  29.071  55.611  1.00  0.00     0.106 A 
HETATM    2  C   UNL     1       8.032  29.240  56.882  1.00  0.00     0.081 A 
HETATM    3  C   UNL     1       9.447  29.156  56.727  1.00  0.00     0.100 C 
HETATM    4  N   UNL     1      10.599  29.091  56.600  1.00  0.00    -0.191 NA
HETATM    5  C   UNL     1       7.487  29.505  58.101  1.00  0.00     0.140 A 
HETATM    6  O   UNL     1       6.100  29.646  58.279  1.00  0.00    -0.279 OA
HETATM    7  C   UNL     1       5.356  29.592  57.181  1.00  0.00     0.175 A 
HETATM    8  C   UNL     1       5.754  29.344  55.892  1.00  0.00     0.040 A 
HETATM    9  N   UNL     1       4.017  29.788  57.153  1.00  0.00    -0.256 N 
HETATM   10  H   UNL     1       3.395  29.994  57.925  1.00  0.00     0.191 HD
HETATM   11  N   UNL     1       3.505  29.694  55.914  1.00  0.00    -0.172 NA
HETATM   12  C   UNL     1       4.564  29.447  55.114  1.00  0.00     0.099 A 
ENDROOT
BRANCH   1  13
HETATM   13  C   UNL     1       7.289  27.658  55.049  1.00  0.00    -0.044 A 
HETATM   14  C   UNL     1       7.135  26.509  55.846  1.00  0.00     0.009 A 
HETATM   15  C   UNL     1       7.306  25.233  55.305  1.00  0.00     0.007 A 
HETATM   16  C   UNL     1       7.645  25.070  53.958  1.00  0.00    -0.062 A 
HETATM   17  C   UNL     1       7.885  23.698  53.398  1.00  0.00     0.048 C 
HETATM   18  C   UNL     1       7.822  26.205  53.163  1.00  0.00     0.007 A 
HETATM   19  C   UNL     1       7.642  27.483  53.699  1.00  0.00     0.009 A 
ENDBRANCH   1  13
BRANCH   5  20
HETATM   20  N   UNL     1       8.191  29.669  59.273  1.00  0.00    -0.282 NA
HETATM   21  H   UNL     1       8.196  30.613  59.652  1.00  0.00     0.126 HD
HETATM   22  H   UNL     1       9.120  29.257  59.221  1.00  0.00     0.126 HD
ENDBRANCH   5  20
BRANCH  12  23
HETATM   23  C   UNL     1       4.379  29.316  53.667  1.00  0.00    -0.005 A 
HETATM   24  C   UNL     1       4.288  30.440  52.836  1.00  0.00     0.014 A 
HETATM   25  C   UNL     1       4.096  30.291  51.460  1.00  0.00     0.001 A 
HETATM   26  C   UNL     1       3.982  29.019  50.901  1.00  0.00     0.000 A 
HETATM   27  C   UNL     1       4.057  27.894  51.719  1.00  0.00     0.001 A 
HETATM   28  C   UNL     1       4.253  28.043  53.094  1.00  0.00     0.014 A 
ENDBRANCH  12  23
TORSDOF 3
ENDMDL
MODEL 8
REMARK VINA RESULT:      -7.7      1.764      2.577
REMARK  3 active torsions:
REMARK  status: ('A' for Active; 'I' for Inactive)
REMARK    1  A    between atoms: C_5  and  C_6 
REMARK    2  A    between atoms: C_10  and  N_11 
REMARK    3  A    between atoms: C_18  and  C_19 
ROOT
HETATM    1  C   UNL     1       6.546  28.345  54.184  1.00  0.00     0.106 A 
HETATM    2  C   UNL     1       6.799  28.643  55.666  1.00  0.00     0.081 A 
HETATM    3  C   UNL     1       8.137  28.480  56.130  1.00  0.00     0.100 C 
HETATM    4  N   UNL     1       9.227  28.350  56.507  1.00  0.00    -0.191 NA
HETATM    5  C   UNL     1       5.827  29.089  56.509  1.00  0.00     0.140 A 
HETATM    6  O   UNL     1       4.510  29.310  56.072  1.00  0.00    -0.279 OA
HETATM    7  C   UNL     1       4.283  29.144  54.775  1.00  0.00     0.175 A 
HETATM    8  C   UNL     1       5.152  28.712  53.805  1.00  0.00     0.040 A 
HETATM    9  N   UNL     1       3.099  29.390  54.166  1.00  0.00    -0.256 N 
HETATM   10  H   UNL     1       2.236  29.722  54.580  1.00  0.00     0.191 HD
HETATM   11  N   UNL     1       3.137  29.157  52.843  1.00  0.00    -0.172 NA
HETATM   12  C   UNL     1       4.404  28.762  52.593  1.00  0.00     0.099 A 
ENDROOT
BRANCH   1  13
HETATM   13  C   UNL     1       6.733  26.867  53.862  1.00  0.00    -0.044 A 
HETATM   14  C   UNL     1       6.074  25.844  54.567  1.00  0.00     0.009 A 
HETATM   15  C   UNL     1       6.332  24.499  54.289  1.00  0.00     0.007 A 
HETATM   16  C   UNL     1       7.261  24.141  53.308  1.00  0.00    -0.062 A 
HETATM   17  C   UNL     1       7.578  22.696  53.055  1.00  0.00     0.048 C 
HETATM   18  C   UNL     1       7.939  25.149  52.617  1.00  0.00     0.007 A 
HETATM   19  C   UNL     1       7.675  26.495  52.886  1.00  0.00     0.009 A 
ENDBRANCH   1  13
BRANCH   5  20
HETATM   20  N   UNL     1       5.997  29.375  57.845  1.00  0.00    -0.282 NA
HETATM   21  H   UNL     1       6.943  29.258  58.200  1.00  0.00     0.126 HD
HETATM   22  H   UNL     1       5.296  28.922  58.426  1.00  0.00     0.126 HD
ENDBRANCH   5  20
BRANCH  12  23
HETATM   23  C   UNL     1       4.820  28.450  51.224  1.00  0.00    -0.005 A 
HETATM   24  C   UNL     1       5.365  29.429  50.384  1.00  0.00     0.014 A 
HETATM   25  C   UNL     1       5.741  29.112  49.075  1.00  0.00     0.001 A 
HETATM   26  C   UNL     1       5.567  27.817  48.590  1.00  0.00     0.000 A 
HETATM   27  C   UNL     1       5.014  26.838  49.412  1.00  0.00     0.001 A 
HETATM   28  C   UNL     1       4.641  27.154  50.720  1.00  0.00     0.014 A 
ENDBRANCH  12  23
TORSDOF 3
ENDMDL
MODEL 9
REMARK VINA RESULT:      -7.7      7.838     11.459
REMARK  3 active torsions:
REMARK  status: ('A' for Active; 'I' for Inactive)
REMARK    1  A    between atoms: C_5  and  C_6 
REMARK    2  A    between atoms: C_10  and  N_11 
REMARK    3  A    between atoms: C_18  and  C_19 
ROOT
HETATM    1  C   UNL     1       4.786  34.149  64.100  1.00  0.00     0.106 A 
HETATM    2  C   UNL     1       4.998  34.515  65.573  1.00  0.00     0.081 A 
HETATM    3  C   UNL     1       3.898  35.125  66.243  1.00  0.00     0.100 C 
HETATM    4  N   UNL     1       3.001  35.619  66.789  1.00  0.00    -0.191 NA
HETATM    5  C   UNL     1       6.150  34.241  66.246  1.00  0.00     0.140 A 
HETATM    6  O   UNL     1       7.234  33.595  65.629  1.00  0.00    -0.279 OA
HETATM    7  C   UNL     1       7.045  33.187  64.380  1.00  0.00     0.175 A 
HETATM    8  C   UNL     1       5.949  33.378  63.577  1.00  0.00     0.040 A 
HETATM    9  N   UNL     1       7.946  32.478  63.661  1.00  0.00    -0.256 N 
HETATM   10  H   UNL     1       8.866  32.162  63.943  1.00  0.00     0.191 HD
HETATM   11  N   UNL     1       7.505  32.178  62.428  1.00  0.00    -0.172 NA
HETATM   12  C   UNL     1       6.262  32.700  62.363  1.00  0.00     0.099 A 
ENDROOT
BRANCH   1  13
HETATM   13  C   UNL     1       4.626  35.386  63.223  1.00  0.00    -0.044 A 
HETATM   14  C   UNL     1       3.471  35.635  62.461  1.00  0.00     0.009 A 
HETATM   15  C   UNL     1       3.395  36.742  61.613  1.00  0.00     0.007 A 
HETATM   16  C   UNL     1       4.474  37.624  61.497  1.00  0.00    -0.062 A 
HETATM   17  C   UNL     1       4.409  38.779  60.540  1.00  0.00     0.048 C 
HETATM   18  C   UNL     1       5.635  37.375  62.233  1.00  0.00     0.007 A 
HETATM   19  C   UNL     1       5.709  36.272  63.090  1.00  0.00     0.009 A 
ENDBRANCH   1  13
BRANCH   5  20
HETATM   20  N   UNL     1       6.394  34.544  67.567  1.00  0.00    -0.282 NA
HETATM   21  H   UNL     1       6.227  35.512  67.832  1.00  0.00     0.126 HD
HETATM   22  H   UNL     1       7.299  34.198  67.877  1.00  0.00     0.126 HD
ENDBRANCH   5  20
BRANCH  12  23
HETATM   23  C   UNL     1       5.455  32.530  61.152  1.00  0.00    -0.005 A 
HETATM   24  C   UNL     1       4.092  32.216  61.219  1.00  0.00     0.014 A 
HETATM   25  C   UNL     1       3.345  32.043  60.050  1.00  0.00     0.001 A 
HETATM   26  C   UNL     1       3.955  32.174  58.803  1.00  0.00     0.000 A 
HETATM   27  C   UNL     1       5.313  32.474  58.723  1.00  0.00     0.001 A 
HETATM   28  C   UNL     1       6.058  32.649  59.892  1.00  0.00     0.014 A 
ENDBRANCH  12  23
TORSDOF 3
ENDMDL
MODEL 10
REMARK VINA RESULT:      -7.6      4.198      6.590
REMARK  3 active torsions:
REMARK  status: ('A' for Active; 'I' for Inactive)
REMARK    1  A    between atoms: C_5  and  C_6 
REMARK    2  A    between atoms: C_10  and  N_11 
REMARK    3  A    between atoms: C_18  and  C_19 
ROOT
HETATM    1  C   UNL     1       5.616  28.609  50.673  1.00  0.00     0.106 A 
HETATM    2  C   UNL     1       5.211  29.712  49.688  1.00  0.00     0.081 A 
HETATM    3  C   UNL     1       5.871  30.967  49.832  1.00  0.00     0.100 C 
HETATM    4  N   UNL     1       6.410  31.989  49.946  1.00  0.00    -0.191 NA
HETATM    5  C   UNL     1       4.308  29.517  48.688  1.00  0.00     0.140 A 
HETATM    6  O   UNL     1       3.679  28.277  48.487  1.00  0.00    -0.279 OA
HETATM    7  C   UNL     1       4.075  27.281  49.269  1.00  0.00     0.175 A 
HETATM    8  C   UNL     1       4.973  27.315  50.306  1.00  0.00     0.040 A 
HETATM    9  N   UNL     1       3.640  26.004  49.164  1.00  0.00    -0.256 N 
HETATM   10  H   UNL     1       2.972  25.619  48.506  1.00  0.00     0.191 HD
HETATM   11  N   UNL     1       4.208  25.185  50.066  1.00  0.00    -0.172 NA
HETATM   12  C   UNL     1       5.056  25.969  50.766  1.00  0.00     0.099 A 
ENDROOT
BRANCH   1  13
HETATM   13  C   UNL     1       5.196  28.940  52.101  1.00  0.00    -0.044 A 
HETATM   14  C   UNL     1       5.979  28.609  53.221  1.00  0.00     0.009 A 
HETATM   15  C   UNL     1       5.522  28.863  54.517  1.00  0.00     0.007 A 
HETATM   16  C   UNL     1       4.269  29.446  54.728  1.00  0.00    -0.062 A 
HETATM   17  C   UNL     1       3.759  29.662  56.122  1.00  0.00     0.048 C 
HETATM   18  C   UNL     1       3.473  29.759  53.622  1.00  0.00     0.007 A 
HETATM   19  C   UNL     1       3.932  29.514  52.325  1.00  0.00     0.009 A 
ENDBRANCH   1  13
BRANCH   5  20
HETATM   20  N   UNL     1       3.910  30.468  47.775  1.00  0.00    -0.282 NA
HETATM   21  H   UNL     1       4.430  30.479  46.900  1.00  0.00     0.126 HD
HETATM   22  H   UNL     1       3.823  31.389  48.196  1.00  0.00     0.126 HD
ENDBRANCH   5  20
BRANCH  12  23
HETATM   23  C   UNL     1       5.882  25.393  51.829  1.00  0.00    -0.005 A 
HETATM   24  C   UNL     1       7.257  25.189  51.659  1.00  0.00     0.014 A 
HETATM   25  C   UNL     1       8.023  24.623  52.682  1.00  0.00     0.001 A 
HETATM   26  C   UNL     1       7.421  24.246  53.882  1.00  0.00     0.000 A 
HETATM   27  C   UNL     1       6.052  24.431  54.059  1.00  0.00     0.001 A 
HETATM   28  C   UNL     1       5.287  25.000  53.037  1.00  0.00     0.014 A 
ENDBRANCH  12  23
TORSDOF 3
ENDMDL
