MODEL 1
REMARK VINA RESULT:     -10.1      0.000      0.000
REMARK  4 active torsions:
REMARK  status: ('A' for Active; 'I' for Inactive)
REMARK    1  A    between atoms: C_3  and  C_4 
REMARK    2  A    between atoms: C_4  and  N_5 
REMARK       I    between atoms: N_5  and  C_6 
REMARK       I    between atoms: C_6  and  N_7 
REMARK    3  A    between atoms: N_7  and  C_8 
REMARK    4  A    between atoms: C_17  and  C_18 
ROOT
HETATM    1  C   UNL     1       4.481  27.892  56.424  1.00  0.00     0.049 C 
HETATM    2  C   UNL     1       5.910  27.471  56.637  1.00  0.00    -0.053 A 
HETATM    3  C   UNL     1       6.923  28.398  56.963  1.00  0.00    -0.035 A 
HETATM    4  C   UNL     1       8.225  27.928  57.217  1.00  0.00     0.010 A 
HETATM    5  C   UNL     1       8.542  26.576  57.078  1.00  0.00     0.014 A 
HETATM    6  C   UNL     1       7.564  25.678  56.648  1.00  0.00    -0.004 A 
HETATM    7  C   UNL     1       6.248  26.119  56.464  1.00  0.00     0.021 A 
ENDROOT
BRANCH   3   8
HETATM    8  C   UNL     1       6.660  29.882  57.059  1.00  0.00     0.163 C 
BRANCH   8   9
HETATM    9  N   UNL     1       6.505  30.314  58.427  1.00  0.00    -0.339 N 
HETATM   10  C   UNL     1       7.400  31.220  58.932  1.00  0.00     0.316 C 
HETATM   11  N   UNL     1       7.101  31.579  60.219  1.00  0.00    -0.339 N 
HETATM   12  O   UNL     1       8.368  31.634  58.310  1.00  0.00    -0.247 OA
HETATM   13  H   UNL     1       6.233  31.250  60.613  1.00  0.00     0.164 HD
HETATM   14  H   UNL     1       5.567  30.341  58.795  1.00  0.00     0.164 HD
BRANCH  11  15
HETATM   15  C   UNL     1       7.837  32.631  60.911  1.00  0.00     0.086 C 
HETATM   16  C   UNL     1       6.882  33.531  61.707  1.00  0.00     0.025 C 
HETATM   17  C   UNL     1       6.320  32.834  62.944  1.00  0.00     0.002 C 
HETATM   18  C   UNL     1       7.431  32.286  63.833  1.00  0.00     0.000 C 
HETATM   19  C   UNL     1       8.369  31.363  63.062  1.00  0.00     0.002 C 
HETATM   20  C   UNL     1       8.928  32.039  61.811  1.00  0.00     0.025 C 
ENDBRANCH  11  15
ENDBRANCH   8   9
ENDBRANCH   3   8
BRANCH   6  21
HETATM   21  C   UNL     1       7.869  24.237  56.423  1.00  0.00     0.098 A 
HETATM   22  N   UNL     1       8.059  23.513  57.485  1.00  0.00    -0.169 NA
HETATM   23  N   UNL     1       8.378  22.188  57.352  1.00  0.00    -0.238 N 
HETATM   24  C   UNL     1       8.560  21.440  58.579  1.00  0.00     0.183 C 
HETATM   25  C   UNL     1       8.600  21.551  56.138  1.00  0.00     0.274 A 
HETATM   26  O   UNL     1       8.961  20.381  56.031  1.00  0.00    -0.266 OA
HETATM   27  C   UNL     1       8.343  22.350  54.927  1.00  0.00     0.046 A 
HETATM   28  C   UNL     1       7.934  23.674  55.050  1.00  0.00     0.011 A 
HETATM   29  C   UNL     1       8.459  21.752  53.662  1.00  0.00     0.018 A 
HETATM   30  C   UNL     1       7.572  24.383  53.895  1.00  0.00     0.015 A 
HETATM   31  C   UNL     1       7.685  23.790  52.634  1.00  0.00     0.001 A 
HETATM   32  C   UNL     1       8.140  22.479  52.516  1.00  0.00     0.001 A 
ENDBRANCH   6  21
TORSDOF 4
ENDMDL
MODEL 2
REMARK VINA RESULT:     -10.1      2.389      9.239
REMARK  4 active torsions:
REMARK  status: ('A' for Active; 'I' for Inactive)
REMARK    1  A    between atoms: C_3  and  C_4 
REMARK    2  A    between atoms: C_4  and  N_5 
REMARK       I    between atoms: N_5  and  C_6 
REMARK       I    between atoms: C_6  and  N_7 
REMARK    3  A    between atoms: N_7  and  C_8 
REMARK    4  A    between atoms: C_17  and  C_18 
ROOT
HETATM    1  C   UNL     1       4.962  25.545  56.908  1.00  0.00     0.049 C 
HETATM    2  C   UNL     1       5.453  26.827  56.292  1.00  0.00    -0.053 A 
HETATM    3  C   UNL     1       5.344  27.083  54.909  1.00  0.00    -0.035 A 
HETATM    4  C   UNL     1       5.760  28.330  54.408  1.00  0.00     0.010 A 
HETATM    5  C   UNL     1       6.345  29.283  55.244  1.00  0.00     0.014 A 
HETATM    6  C   UNL     1       6.553  28.984  56.592  1.00  0.00    -0.004 A 
HETATM    7  C   UNL     1       6.077  27.778  57.118  1.00  0.00     0.021 A 
ENDROOT
BRANCH   3   8
HETATM    8  C   UNL     1       4.786  26.067  53.940  1.00  0.00     0.163 C 
BRANCH   8   9
HETATM    9  N   UNL     1       5.347  24.755  54.153  1.00  0.00    -0.339 N 
HETATM   10  C   UNL     1       6.626  24.514  53.724  1.00  0.00     0.316 C 
HETATM   11  N   UNL     1       7.046  23.250  54.038  1.00  0.00    -0.339 N 
HETATM   12  O   UNL     1       7.299  25.329  53.108  1.00  0.00    -0.247 OA
HETATM   13  H   UNL     1       6.452  22.685  54.624  1.00  0.00     0.164 HD
HETATM   14  H   UNL     1       5.032  24.248  54.964  1.00  0.00     0.164 HD
BRANCH  11  15
HETATM   15  C   UNL     1       8.419  22.818  53.800  1.00  0.00     0.086 C 
HETATM   16  C   UNL     1       9.158  22.595  55.127  1.00  0.00     0.025 C 
HETATM   17  C   UNL     1       8.678  21.341  55.857  1.00  0.00     0.002 C 
HETATM   18  C   UNL     1       8.760  20.107  54.964  1.00  0.00     0.000 C 
HETATM   19  C   UNL     1       8.001  20.304  53.655  1.00  0.00     0.002 C 
HETATM   20  C   UNL     1       8.458  21.564  52.920  1.00  0.00     0.025 C 
ENDBRANCH  11  15
ENDBRANCH   8   9
ENDBRANCH   3   8
BRANCH   6  21
HETATM   21  C   UNL     1       7.231  29.942  57.510  1.00  0.00     0.098 A 
HETATM   22  N   UNL     1       6.459  30.652  58.278  1.00  0.00    -0.169 NA
HETATM   23  N   UNL     1       7.013  31.577  59.122  1.00  0.00    -0.238 N 
HETATM   24  C   UNL     1       6.094  32.321  59.959  1.00  0.00     0.183 C 
HETATM   25  C   UNL     1       8.366  31.885  59.172  1.00  0.00     0.274 A 
HETATM   26  O   UNL     1       8.844  32.771  59.878  1.00  0.00    -0.266 OA
HETATM   27  C   UNL     1       9.255  31.056  58.340  1.00  0.00     0.046 A 
HETATM   28  C   UNL     1       8.712  30.054  57.542  1.00  0.00     0.011 A 
HETATM   29  C   UNL     1      10.644  31.246  58.401  1.00  0.00     0.018 A 
HETATM   30  C   UNL     1       9.576  29.190  56.853  1.00  0.00     0.015 A 
HETATM   31  C   UNL     1      10.961  29.377  56.914  1.00  0.00     0.001 A 
HETATM   32  C   UNL     1      11.495  30.412  57.678  1.00  0.00     0.001 A 
ENDBRANCH   6  21
TORSDOF 4
ENDMDL
MODEL 3
REMARK VINA RESULT:     -10.1      2.975      4.306
REMARK  4 active torsions:
REMARK  status: ('A' for Active; 'I' for Inactive)
REMARK    1  A    between atoms: C_3  and  C_4 
REMARK    2  A    between atoms: C_4  and  N_5 
REMARK       I    between atoms: N_5  and  C_6 
REMARK       I    between atoms: C_6  and  N_7 
REMARK    3  A    between atoms: N_7  and  C_8 
REMARK    4  A    between atoms: C_17  and  C_18 
ROOT
HETATM    1  C   UNL     1      10.611  29.882  56.646  1.00  0.00     0.049 C 
HETATM    2  C   UNL     1       9.199  29.364  56.662  1.00  0.00    -0.053 A 
HETATM    3  C   UNL     1       8.376  29.471  57.803  1.00  0.00    -0.035 A 
HETATM    4  C   UNL     1       7.041  29.028  57.729  1.00  0.00     0.010 A 
HETATM    5  C   UNL     1       6.548  28.420  56.574  1.00  0.00     0.014 A 
HETATM    6  C   UNL     1       7.397  28.215  55.485  1.00  0.00    -0.004 A 
HETATM    7  C   UNL     1       8.703  28.717  55.518  1.00  0.00     0.021 A 
ENDROOT
BRANCH   3   8
HETATM    8  C   UNL     1       8.870  30.055  59.106  1.00  0.00     0.163 C 
BRANCH   8   9
HETATM    9  N   UNL     1       7.782  30.481  59.952  1.00  0.00    -0.339 N 
HETATM   10  C   UNL     1       7.580  31.824  60.129  1.00  0.00     0.316 C 
HETATM   11  N   UNL     1       6.486  32.083  60.910  1.00  0.00    -0.339 N 
HETATM   12  O   UNL     1       8.313  32.687  59.664  1.00  0.00    -0.247 OA
HETATM   13  H   UNL     1       5.896  31.309  61.171  1.00  0.00     0.164 HD
HETATM   14  H   UNL     1       6.970  29.886  59.989  1.00  0.00     0.164 HD
BRANCH  11  15
HETATM   15  C   UNL     1       6.001  33.442  61.121  1.00  0.00     0.086 C 
HETATM   16  C   UNL     1       4.469  33.494  61.034  1.00  0.00     0.025 C 
HETATM   17  C   UNL     1       3.794  32.851  62.244  1.00  0.00     0.002 C 
HETATM   18  C   UNL     1       4.294  33.456  63.552  1.00  0.00     0.000 C 
HETATM   19  C   UNL     1       5.813  33.381  63.666  1.00  0.00     0.002 C 
HETATM   20  C   UNL     1       6.504  34.006  62.454  1.00  0.00     0.025 C 
ENDBRANCH  11  15
ENDBRANCH   8   9
ENDBRANCH   3   8
BRANCH   6  21
HETATM   21  C   UNL     1       6.936  27.513  54.254  1.00  0.00     0.098 A 
HETATM   22  N   UNL     1       6.416  28.257  53.324  1.00  0.00    -0.169 NA
HETATM   23  N   UNL     1       5.940  27.674  52.180  1.00  0.00    -0.238 N 
HETATM   24  C   UNL     1       5.388  28.566  51.181  1.00  0.00     0.183 C 
HETATM   25  C   UNL     1       5.892  26.304  51.958  1.00  0.00     0.274 A 
HETATM   26  O   UNL     1       5.391  25.787  50.960  1.00  0.00    -0.266 OA
HETATM   27  C   UNL     1       6.519  25.454  52.984  1.00  0.00     0.046 A 
HETATM   28  C   UNL     1       7.084  26.042  54.112  1.00  0.00     0.011 A 
HETATM   29  C   UNL     1       6.589  24.066  52.790  1.00  0.00     0.018 A 
HETATM   30  C   UNL     1       7.788  25.235  55.017  1.00  0.00     0.015 A 
HETATM   31  C   UNL     1       7.861  23.852  54.825  1.00  0.00     0.001 A 
HETATM   32  C   UNL     1       7.252  23.265  53.719  1.00  0.00     0.001 A 
ENDBRANCH   6  21
TORSDOF 4
ENDMDL
MODEL 4
REMARK VINA RESULT:     -10.0      2.572      4.162
REMARK  4 active torsions:
REMARK  status: ('A' for Active; 'I' for Inactive)
REMARK    1  A    between atoms: C_3  and  C_4 
REMARK    2  A    between atoms: C_4  and  N_5 
REMARK       I    between atoms: N_5  and  C_6 
REMARK       I    between atoms: C_6  and  N_7 
REMARK    3  A    between atoms: N_7  and  C_8 
REMARK    4  A    between atoms: C_17  and  C_18 
ROOT
HETATM    1  C   UNL     1      11.158  30.064  57.336  1.00  0.00     0.049 C 
HETATM    2  C   UNL     1       9.695  29.743  57.470  1.00  0.00    -0.053 A 
HETATM    3  C   UNL     1       8.870  30.390  58.415  1.00  0.00    -0.035 A 
HETATM    4  C   UNL     1       7.494  30.092  58.442  1.00  0.00     0.010 A 
HETATM    5  C   UNL     1       6.953  29.117  57.602  1.00  0.00     0.014 A 
HETATM    6  C   UNL     1       7.791  28.401  56.746  1.00  0.00    -0.004 A 
HETATM    7  C   UNL     1       9.146  28.738  56.656  1.00  0.00     0.021 A 
ENDROOT
BRANCH   3   8
HETATM    8  C   UNL     1       9.407  31.402  59.399  1.00  0.00     0.163 C 
BRANCH   8   9
HETATM    9  N   UNL     1       8.348  32.078  60.108  1.00  0.00    -0.339 N 
HETATM   10  C   UNL     1       8.035  31.655  61.373  1.00  0.00     0.316 C 
HETATM   11  N   UNL     1       7.052  32.417  61.945  1.00  0.00    -0.339 N 
HETATM   12  O   UNL     1       8.557  30.689  61.912  1.00  0.00    -0.247 OA
HETATM   13  H   UNL     1       6.749  33.244  61.454  1.00  0.00     0.164 HD
HETATM   14  H   UNL     1       8.210  33.055  59.904  1.00  0.00     0.164 HD
BRANCH  11  15
HETATM   15  C   UNL     1       6.654  32.234  63.335  1.00  0.00     0.086 C 
HETATM   16  C   UNL     1       7.307  33.295  64.233  1.00  0.00     0.025 C 
HETATM   17  C   UNL     1       6.700  34.682  64.033  1.00  0.00     0.002 C 
HETATM   18  C   UNL     1       5.185  34.663  64.212  1.00  0.00     0.000 C 
HETATM   19  C   UNL     1       4.520  33.636  63.301  1.00  0.00     0.002 C 
HETATM   20  C   UNL     1       5.127  32.245  63.477  1.00  0.00     0.025 C 
ENDBRANCH  11  15
ENDBRANCH   8   9
ENDBRANCH   3   8
BRANCH   6  21
HETATM   21  C   UNL     1       7.271  27.306  55.878  1.00  0.00     0.098 A 
HETATM   22  N   UNL     1       6.536  27.668  54.869  1.00  0.00    -0.169 NA
HETATM   23  N   UNL     1       5.997  26.714  54.049  1.00  0.00    -0.238 N 
HETATM   24  C   UNL     1       5.200  27.190  52.937  1.00  0.00     0.183 C 
HETATM   25  C   UNL     1       6.108  25.345  54.258  1.00  0.00     0.274 A 
HETATM   26  O   UNL     1       5.555  24.496  53.560  1.00  0.00    -0.266 OA
HETATM   27  C   UNL     1       6.976  24.923  55.370  1.00  0.00     0.046 A 
HETATM   28  C   UNL     1       7.600  25.885  56.158  1.00  0.00     0.011 A 
HETATM   29  C   UNL     1       7.211  23.557  55.591  1.00  0.00     0.018 A 
HETATM   30  C   UNL     1       8.522  25.473  57.131  1.00  0.00     0.015 A 
HETATM   31  C   UNL     1       8.758  24.112  57.352  1.00  0.00     0.001 A 
HETATM   32  C   UNL     1       8.094  23.154  56.591  1.00  0.00     0.001 A 
ENDBRANCH   6  21
TORSDOF 4
ENDMDL
MODEL 5
REMARK VINA RESULT:      -9.9      1.724      2.835
REMARK  4 active torsions:
REMARK  status: ('A' for Active; 'I' for Inactive)
REMARK    1  A    between atoms: C_3  and  C_4 
REMARK    2  A    between atoms: C_4  and  N_5 
REMARK       I    between atoms: N_5  and  C_6 
REMARK       I    between atoms: C_6  and  N_7 
REMARK    3  A    between atoms: N_7  and  C_8 
REMARK    4  A    between atoms: C_17  and  C_18 
ROOT
HETATM    1  C   UNL     1      10.915  29.652  56.794  1.00  0.00     0.049 C 
HETATM    2  C   UNL     1       9.571  29.027  57.050  1.00  0.00    -0.053 A 
HETATM    3  C   UNL     1       8.602  29.643  57.869  1.00  0.00    -0.035 A 
HETATM    4  C   UNL     1       7.339  29.038  58.011  1.00  0.00     0.010 A 
HETATM    5  C   UNL     1       7.061  27.806  57.417  1.00  0.00     0.014 A 
HETATM    6  C   UNL     1       8.058  27.145  56.698  1.00  0.00    -0.004 A 
HETATM    7  C   UNL     1       9.293  27.770  56.487  1.00  0.00     0.021 A 
ENDROOT
BRANCH   3   8
HETATM    8  C   UNL     1       8.866  30.941  58.597  1.00  0.00     0.163 C 
BRANCH   8   9
HETATM    9  N   UNL     1       7.711  31.387  59.337  1.00  0.00    -0.339 N 
HETATM   10  C   UNL     1       7.737  31.299  60.704  1.00  0.00     0.316 C 
HETATM   11  N   UNL     1       6.602  31.805  61.277  1.00  0.00    -0.339 N 
HETATM   12  O   UNL     1       8.660  30.799  61.333  1.00  0.00    -0.247 OA
HETATM   13  H   UNL     1       5.939  32.274  60.680  1.00  0.00     0.164 HD
HETATM   14  H   UNL     1       7.170  32.137  58.936  1.00  0.00     0.164 HD
BRANCH  11  15
HETATM   15  C   UNL     1       6.468  31.939  62.723  1.00  0.00     0.086 C 
HETATM   16  C   UNL     1       7.112  33.245  63.211  1.00  0.00     0.025 C 
HETATM   17  C   UNL     1       6.297  34.477  62.820  1.00  0.00     0.002 C 
HETATM   18  C   UNL     1       4.850  34.366  63.289  1.00  0.00     0.000 C 
HETATM   19  C   UNL     1       4.189  33.087  62.783  1.00  0.00     0.002 C 
HETATM   20  C   UNL     1       4.999  31.845  63.152  1.00  0.00     0.025 C 
ENDBRANCH  11  15
ENDBRANCH   8   9
ENDBRANCH   3   8
BRANCH   6  21
HETATM   21  C   UNL     1       7.830  25.800  56.100  1.00  0.00     0.098 A 
HETATM   22  N   UNL     1       8.118  24.777  56.849  1.00  0.00    -0.169 NA
HETATM   23  N   UNL     1       7.966  23.511  56.352  1.00  0.00    -0.238 N 
HETATM   24  C   UNL     1       8.293  22.420  57.247  1.00  0.00     0.183 C 
HETATM   25  C   UNL     1       7.591  23.219  55.046  1.00  0.00     0.274 A 
HETATM   26  O   UNL     1       7.532  22.080  54.586  1.00  0.00    -0.266 OA
HETATM   27  C   UNL     1       7.218  24.368  54.203  1.00  0.00     0.046 A 
HETATM   28  C   UNL     1       7.286  25.655  54.725  1.00  0.00     0.011 A 
HETATM   29  C   UNL     1       6.744  24.149  52.900  1.00  0.00     0.018 A 
HETATM   30  C   UNL     1       6.808  26.727  53.957  1.00  0.00     0.015 A 
HETATM   31  C   UNL     1       6.335  26.511  52.658  1.00  0.00     0.001 A 
HETATM   32  C   UNL     1       6.313  25.225  52.125  1.00  0.00     0.001 A 
ENDBRANCH   6  21
TORSDOF 4
ENDMDL
MODEL 6
REMARK VINA RESULT:      -9.8      4.384      9.940
REMARK  4 active torsions:
REMARK  status: ('A' for Active; 'I' for Inactive)
REMARK    1  A    between atoms: C_3  and  C_4 
REMARK    2  A    between atoms: C_4  and  N_5 
REMARK       I    between atoms: N_5  and  C_6 
REMARK       I    between atoms: C_6  and  N_7 
REMARK    3  A    between atoms: N_7  and  C_8 
REMARK    4  A    between atoms: C_17  and  C_18 
ROOT
HETATM    1  C   UNL     1       6.637  24.799  56.191  1.00  0.00     0.049 C 
HETATM    2  C   UNL     1       6.331  26.231  55.849  1.00  0.00    -0.053 A 
HETATM    3  C   UNL     1       5.592  26.586  54.700  1.00  0.00    -0.035 A 
HETATM    4  C   UNL     1       5.282  27.940  54.476  1.00  0.00     0.010 A 
HETATM    5  C   UNL     1       5.757  28.938  55.329  1.00  0.00     0.014 A 
HETATM    6  C   UNL     1       6.581  28.594  56.402  1.00  0.00    -0.004 A 
HETATM    7  C   UNL     1       6.835  27.246  56.679  1.00  0.00     0.021 A 
ENDROOT
BRANCH   3   8
HETATM    8  C   UNL     1       5.109  25.561  53.701  1.00  0.00     0.163 C 
BRANCH   8   9
HETATM    9  N   UNL     1       4.450  26.176  52.575  1.00  0.00    -0.339 N 
HETATM   10  C   UNL     1       5.047  26.095  51.344  1.00  0.00     0.316 C 
HETATM   11  N   UNL     1       4.289  26.672  50.362  1.00  0.00    -0.339 N 
HETATM   12  O   UNL     1       6.145  25.588  51.156  1.00  0.00    -0.247 OA
HETATM   13  H   UNL     1       3.361  26.984  50.603  1.00  0.00     0.164 HD
HETATM   14  H   UNL     1       3.444  26.209  52.595  1.00  0.00     0.164 HD
BRANCH  11  15
HETATM   15  C   UNL     1       4.662  26.586  48.956  1.00  0.00     0.086 C 
HETATM   16  C   UNL     1       3.593  25.829  48.154  1.00  0.00     0.025 C 
HETATM   17  C   UNL     1       2.316  26.647  47.971  1.00  0.00     0.002 C 
HETATM   18  C   UNL     1       2.606  28.011  47.355  1.00  0.00     0.000 C 
HETATM   19  C   UNL     1       3.643  28.787  48.161  1.00  0.00     0.002 C 
HETATM   20  C   UNL     1       4.922  27.977  48.367  1.00  0.00     0.025 C 
ENDBRANCH  11  15
ENDBRANCH   8   9
ENDBRANCH   3   8
BRANCH   6  21
HETATM   21  C   UNL     1       7.165  29.628  57.302  1.00  0.00     0.098 A 
HETATM   22  N   UNL     1       6.325  30.311  58.021  1.00  0.00    -0.169 NA
HETATM   23  N   UNL     1       6.789  31.301  58.844  1.00  0.00    -0.238 N 
HETATM   24  C   UNL     1       5.798  32.011  59.626  1.00  0.00     0.183 C 
HETATM   25  C   UNL     1       8.117  31.702  58.920  1.00  0.00     0.274 A 
HETATM   26  O   UNL     1       8.513  32.644  59.605  1.00  0.00    -0.266 OA
HETATM   27  C   UNL     1       9.084  30.906  58.145  1.00  0.00     0.046 A 
HETATM   28  C   UNL     1       8.634  29.841  57.371  1.00  0.00     0.011 A 
HETATM   29  C   UNL     1      10.455  31.193  58.238  1.00  0.00     0.018 A 
HETATM   30  C   UNL     1       9.575  29.014  56.740  1.00  0.00     0.015 A 
HETATM   31  C   UNL     1      10.941  29.297  56.832  1.00  0.00     0.001 A 
HETATM   32  C   UNL     1      11.381  30.393  57.571  1.00  0.00     0.001 A 
ENDBRANCH   6  21
TORSDOF 4
ENDMDL
MODEL 7
REMARK VINA RESULT:      -9.3      2.484     10.470
REMARK  4 active torsions:
REMARK  status: ('A' for Active; 'I' for Inactive)
REMARK    1  A    between atoms: C_3  and  C_4 
REMARK    2  A    between atoms: C_4  and  N_5 
REMARK       I    between atoms: N_5  and  C_6 
REMARK       I    between atoms: C_6  and  N_7 
REMARK    3  A    between atoms: N_7  and  C_8 
REMARK    4  A    between atoms: C_17  and  C_18 
ROOT
HETATM    1  C   UNL     1      10.088  30.158  57.730  1.00  0.00     0.049 C 
HETATM    2  C   UNL     1       8.599  30.373  57.752  1.00  0.00    -0.053 A 
HETATM    3  C   UNL     1       7.743  29.779  56.801  1.00  0.00    -0.035 A 
HETATM    4  C   UNL     1       6.352  29.966  56.919  1.00  0.00     0.010 A 
HETATM    5  C   UNL     1       5.819  30.786  57.915  1.00  0.00     0.014 A 
HETATM    6  C   UNL     1       6.675  31.461  58.786  1.00  0.00    -0.004 A 
HETATM    7  C   UNL     1       8.054  31.226  58.727  1.00  0.00     0.021 A 
ENDROOT
BRANCH   3   8
HETATM    8  C   UNL     1       8.262  28.939  55.658  1.00  0.00     0.163 C 
BRANCH   8   9
HETATM    9  N   UNL     1       8.276  27.534  55.986  1.00  0.00    -0.339 N 
HETATM   10  C   UNL     1       7.330  26.721  55.420  1.00  0.00     0.316 C 
HETATM   11  N   UNL     1       7.494  25.410  55.776  1.00  0.00    -0.339 N 
HETATM   12  O   UNL     1       6.427  27.131  54.702  1.00  0.00    -0.247 OA
HETATM   13  H   UNL     1       8.319  25.162  56.299  1.00  0.00     0.164 HD
HETATM   14  H   UNL     1       9.171  27.121  56.194  1.00  0.00     0.164 HD
BRANCH  11  15
HETATM   15  C   UNL     1       6.686  24.349  55.185  1.00  0.00     0.086 C 
HETATM   16  C   UNL     1       6.636  24.488  53.657  1.00  0.00     0.025 C 
HETATM   17  C   UNL     1       7.963  24.121  52.995  1.00  0.00     0.002 C 
HETATM   18  C   UNL     1       8.429  22.728  53.408  1.00  0.00     0.000 C 
HETATM   19  C   UNL     1       8.515  22.587  54.924  1.00  0.00     0.002 C 
HETATM   20  C   UNL     1       7.200  22.967  55.604  1.00  0.00     0.025 C 
ENDBRANCH  11  15
ENDBRANCH   8   9
ENDBRANCH   3   8
BRANCH   6  21
HETATM   21  C   UNL     1       6.157  32.397  59.823  1.00  0.00     0.098 A 
HETATM   22  N   UNL     1       5.138  33.129  59.484  1.00  0.00    -0.169 NA
HETATM   23  N   UNL     1       4.631  34.036  60.375  1.00  0.00    -0.238 N 
HETATM   24  C   UNL     1       3.486  34.806  59.935  1.00  0.00     0.183 C 
HETATM   25  C   UNL     1       5.181  34.304  61.623  1.00  0.00     0.274 A 
HETATM   26  O   UNL     1       4.766  35.176  62.384  1.00  0.00    -0.266 OA
HETATM   27  C   UNL     1       6.308  33.450  62.035  1.00  0.00     0.046 A 
HETATM   28  C   UNL     1       6.777  32.465  61.172  1.00  0.00     0.011 A 
HETATM   29  C   UNL     1       6.862  33.600  63.316  1.00  0.00     0.018 A 
HETATM   30  C   UNL     1       7.763  31.577  61.625  1.00  0.00     0.015 A 
HETATM   31  C   UNL     1       8.316  31.723  62.901  1.00  0.00     0.001 A 
HETATM   32  C   UNL     1       7.874  32.741  63.743  1.00  0.00     0.001 A 
ENDBRANCH   6  21
TORSDOF 4
ENDMDL
MODEL 8
REMARK VINA RESULT:      -9.1      2.326      3.522
REMARK  4 active torsions:
REMARK  status: ('A' for Active; 'I' for Inactive)
REMARK    1  A    between atoms: C_3  and  C_4 
REMARK    2  A    between atoms: C_4  and  N_5 
REMARK       I    between atoms: N_5  and  C_6 
REMARK       I    between atoms: C_6  and  N_7 
REMARK    3  A    between atoms: N_7  and  C_8 
REMARK    4  A    between atoms: C_17  and  C_18 
ROOT
HETATM    1  C   UNL     1       3.261  30.831  54.891  1.00  0.00     0.049 C 
HETATM    2  C   UNL     1       4.125  29.853  55.640  1.00  0.00    -0.053 A 
HETATM    3  C   UNL     1       4.440  30.024  57.004  1.00  0.00    -0.035 A 
HETATM    4  C   UNL     1       5.196  29.036  57.662  1.00  0.00     0.010 A 
HETATM    5  C   UNL     1       5.698  27.933  56.968  1.00  0.00     0.014 A 
HETATM    6  C   UNL     1       5.478  27.823  55.594  1.00  0.00    -0.004 A 
HETATM    7  C   UNL     1       4.666  28.759  54.943  1.00  0.00     0.021 A 
ENDROOT
BRANCH   3   8
HETATM    8  C   UNL     1       3.987  31.229  57.794  1.00  0.00     0.163 C 
BRANCH   8   9
HETATM    9  N   UNL     1       4.606  31.284  59.096  1.00  0.00    -0.339 N 
HETATM   10  C   UNL     1       5.671  32.126  59.278  1.00  0.00     0.316 C 
HETATM   11  N   UNL     1       6.123  32.116  60.570  1.00  0.00    -0.339 N 
HETATM   12  O   UNL     1       6.173  32.788  58.380  1.00  0.00    -0.247 OA
HETATM   13  H   UNL     1       5.588  31.605  61.255  1.00  0.00     0.164 HD
HETATM   14  H   UNL     1       4.014  31.114  59.893  1.00  0.00     0.164 HD
BRANCH  11  15
HETATM   15  C   UNL     1       7.160  33.034  61.026  1.00  0.00     0.086 C 
HETATM   16  C   UNL     1       6.625  33.955  62.132  1.00  0.00     0.025 C 
HETATM   17  C   UNL     1       6.417  33.217  63.454  1.00  0.00     0.002 C 
HETATM   18  C   UNL     1       7.685  32.497  63.900  1.00  0.00     0.000 C 
HETATM   19  C   UNL     1       8.209  31.554  62.822  1.00  0.00     0.002 C 
HETATM   20  C   UNL     1       8.407  32.272  61.488  1.00  0.00     0.025 C 
ENDBRANCH  11  15
ENDBRANCH   8   9
ENDBRANCH   3   8
BRANCH   6  21
HETATM   21  C   UNL     1       6.047  26.700  54.798  1.00  0.00     0.098 A 
HETATM   22  N   UNL     1       5.656  26.610  53.561  1.00  0.00    -0.169 NA
HETATM   23  N   UNL     1       6.112  25.582  52.781  1.00  0.00    -0.238 N 
HETATM   24  C   UNL     1       5.646  25.554  51.410  1.00  0.00     0.183 C 
HETATM   25  C   UNL     1       6.922  24.550  53.237  1.00  0.00     0.274 A 
HETATM   26  O   UNL     1       7.264  23.589  52.548  1.00  0.00    -0.266 OA
HETATM   27  C   UNL     1       7.408  24.665  54.622  1.00  0.00     0.046 A 
HETATM   28  C   UNL     1       7.021  25.752  55.399  1.00  0.00     0.011 A 
HETATM   29  C   UNL     1       8.302  23.708  55.128  1.00  0.00     0.018 A 
HETATM   30  C   UNL     1       7.590  25.917  56.670  1.00  0.00     0.015 A 
HETATM   31  C   UNL     1       8.481  24.965  57.176  1.00  0.00     0.001 A 
HETATM   32  C   UNL     1       8.828  23.855  56.410  1.00  0.00     0.001 A 
ENDBRANCH   6  21
TORSDOF 4
ENDMDL
MODEL 9
REMARK VINA RESULT:      -8.9      6.182      8.544
REMARK  4 active torsions:
REMARK  status: ('A' for Active; 'I' for Inactive)
REMARK    1  A    between atoms: C_3  and  C_4 
REMARK    2  A    between atoms: C_4  and  N_5 
REMARK       I    between atoms: N_5  and  C_6 
REMARK       I    between atoms: C_6  and  N_7 
REMARK    3  A    between atoms: N_7  and  C_8 
REMARK    4  A    between atoms: C_17  and  C_18 
ROOT
HETATM    1  C   UNL     1       3.466  28.624  52.665  1.00  0.00     0.049 C 
HETATM    2  C   UNL     1       4.525  27.607  52.337  1.00  0.00    -0.053 A 
HETATM    3  C   UNL     1       4.804  27.216  51.011  1.00  0.00    -0.035 A 
HETATM    4  C   UNL     1       5.854  26.311  50.769  1.00  0.00     0.010 A 
HETATM    5  C   UNL     1       6.569  25.740  51.823  1.00  0.00     0.014 A 
HETATM    6  C   UNL     1       6.217  26.043  53.140  1.00  0.00    -0.004 A 
HETATM    7  C   UNL     1       5.226  26.998  53.392  1.00  0.00     0.021 A 
ENDROOT
BRANCH   3   8
HETATM    8  C   UNL     1       4.020  27.743  49.831  1.00  0.00     0.163 C 
BRANCH   8   9
HETATM    9  N   UNL     1       4.736  28.780  49.129  1.00  0.00    -0.339 N 
HETATM   10  C   UNL     1       4.161  30.020  49.033  1.00  0.00     0.316 C 
HETATM   11  N   UNL     1       4.971  30.917  48.390  1.00  0.00    -0.339 N 
HETATM   12  O   UNL     1       3.041  30.281  49.449  1.00  0.00    -0.247 OA
HETATM   13  H   UNL     1       5.910  30.629  48.163  1.00  0.00     0.164 HD
HETATM   14  H   UNL     1       5.743  28.742  49.158  1.00  0.00     0.164 HD
BRANCH  11  15
HETATM   15  C   UNL     1       4.623  32.330  48.292  1.00  0.00     0.086 C 
HETATM   16  C   UNL     1       5.679  33.201  48.987  1.00  0.00     0.025 C 
HETATM   17  C   UNL     1       6.989  33.264  48.204  1.00  0.00     0.002 C 
HETATM   18  C   UNL     1       6.762  33.714  46.765  1.00  0.00     0.000 C 
HETATM   19  C   UNL     1       5.739  32.835  46.052  1.00  0.00     0.002 C 
HETATM   20  C   UNL     1       4.426  32.748  46.830  1.00  0.00     0.025 C 
ENDBRANCH  11  15
ENDBRANCH   8   9
ENDBRANCH   3   8
BRANCH   6  21
HETATM   21  C   UNL     1       6.907  25.410  54.299  1.00  0.00     0.098 A 
HETATM   22  N   UNL     1       6.945  26.103  55.398  1.00  0.00    -0.169 NA
HETATM   23  N   UNL     1       7.593  25.598  56.493  1.00  0.00    -0.238 N 
HETATM   24  C   UNL     1       7.582  26.417  57.687  1.00  0.00     0.183 C 
HETATM   25  C   UNL     1       8.303  24.404  56.505  1.00  0.00     0.274 A 
HETATM   26  O   UNL     1       8.946  23.996  57.470  1.00  0.00    -0.266 OA
HETATM   27  C   UNL     1       8.229  23.589  55.280  1.00  0.00     0.046 A 
HETATM   28  C   UNL     1       7.501  24.053  54.189  1.00  0.00     0.011 A 
HETATM   29  C   UNL     1       8.846  22.329  55.244  1.00  0.00     0.018 A 
HETATM   30  C   UNL     1       7.333  23.214  53.078  1.00  0.00     0.015 A 
HETATM   31  C   UNL     1       7.946  21.958  53.040  1.00  0.00     0.001 A 
HETATM   32  C   UNL     1       8.712  21.520  54.117  1.00  0.00     0.001 A 
ENDBRANCH   6  21
TORSDOF 4
ENDMDL
MODEL 10
REMARK VINA RESULT:      -8.8      3.363     11.567
REMARK  4 active torsions:
REMARK  status: ('A' for Active; 'I' for Inactive)
REMARK    1  A    between atoms: C_3  and  C_4 
REMARK    2  A    between atoms: C_4  and  N_5 
REMARK       I    between atoms: N_5  and  C_6 
REMARK       I    between atoms: C_6  and  N_7 
REMARK    3  A    between atoms: N_7  and  C_8 
REMARK    4  A    between atoms: C_17  and  C_18 
ROOT
HETATM    1  C   UNL     1       6.590  32.292  59.190  1.00  0.00     0.049 C 
HETATM    2  C   UNL     1       7.188  32.334  60.570  1.00  0.00    -0.053 A 
HETATM    3  C   UNL     1       8.323  31.571  60.917  1.00  0.00    -0.035 A 
HETATM    4  C   UNL     1       8.873  31.708  62.206  1.00  0.00     0.010 A 
HETATM    5  C   UNL     1       8.271  32.529  63.161  1.00  0.00     0.014 A 
HETATM    6  C   UNL     1       7.085  33.197  62.849  1.00  0.00    -0.004 A 
HETATM    7  C   UNL     1       6.569  33.127  61.550  1.00  0.00     0.021 A 
ENDROOT
BRANCH   3   8
HETATM    8  C   UNL     1       8.980  30.612  59.952  1.00  0.00     0.163 C 
BRANCH   8   9
HETATM    9  N   UNL     1       8.029  29.692  59.376  1.00  0.00    -0.339 N 
HETATM   10  C   UNL     1       8.276  29.199  58.122  1.00  0.00     0.316 C 
HETATM   11  N   UNL     1       7.324  28.300  57.724  1.00  0.00    -0.339 N 
HETATM   12  O   UNL     1       9.225  29.546  57.432  1.00  0.00    -0.247 OA
HETATM   13  H   UNL     1       6.631  28.014  58.398  1.00  0.00     0.164 HD
HETATM   14  H   UNL     1       7.523  29.097  60.012  1.00  0.00     0.164 HD
BRANCH  11  15
HETATM   15  C   UNL     1       7.454  27.546  56.482  1.00  0.00     0.086 C 
HETATM   16  C   UNL     1       8.062  26.162  56.746  1.00  0.00     0.025 C 
HETATM   17  C   UNL     1       7.085  25.220  57.449  1.00  0.00     0.002 C 
HETATM   18  C   UNL     1       5.768  25.109  56.689  1.00  0.00     0.000 C 
HETATM   19  C   UNL     1       5.136  26.477  56.448  1.00  0.00     0.002 C 
HETATM   20  C   UNL     1       6.106  27.436  55.760  1.00  0.00     0.025 C 
ENDBRANCH  11  15
ENDBRANCH   8   9
ENDBRANCH   3   8
BRANCH   6  21
HETATM   21  C   UNL     1       6.370  34.032  63.855  1.00  0.00     0.098 A 
HETATM   22  N   UNL     1       6.596  33.752  65.105  1.00  0.00    -0.169 NA
HETATM   23  N   UNL     1       5.946  34.456  66.082  1.00  0.00    -0.238 N 
HETATM   24  C   UNL     1       6.257  34.101  67.451  1.00  0.00     0.183 C 
HETATM   25  C   UNL     1       4.976  35.422  65.843  1.00  0.00     0.274 A 
HETATM   26  O   UNL     1       4.343  35.994  66.728  1.00  0.00    -0.266 OA
HETATM   27  C   UNL     1       4.746  35.779  64.432  1.00  0.00     0.046 A 
HETATM   28  C   UNL     1       5.464  35.131  63.433  1.00  0.00     0.011 A 
HETATM   29  C   UNL     1       3.847  36.808  64.113  1.00  0.00     0.018 A 
HETATM   30  C   UNL     1       5.329  35.567  62.107  1.00  0.00     0.015 A 
HETATM   31  C   UNL     1       4.434  36.593  61.786  1.00  0.00     0.001 A 
HETATM   32  C   UNL     1       3.684  37.205  62.787  1.00  0.00     0.001 A 
ENDBRANCH   6  21
TORSDOF 4
ENDMDL
