MODEL 1
REMARK VINA RESULT:      -9.6      0.000      0.000
REMARK  6 active torsions:
REMARK  status: ('A' for Active; 'I' for Inactive)
REMARK    1  A    between atoms: O_2  and  C_3 
REMARK    2  A    between atoms: C_6  and  C_7 
REMARK    3  A    between atoms: C_7  and  N_8 
REMARK       I    between atoms: N_8  and  C_9 
REMARK    4  A    between atoms: C_9  and  C_10 
REMARK    5  A    between atoms: C_10  and  O_11 
REMARK    6  A    between atoms: N_12  and  C_13 
ROOT
HETATM    1  C   UNL     1       7.480  27.390  54.872  1.00  0.00     0.256 C 
HETATM    2  N   UNL     1       7.102  26.086  55.431  1.00  0.00    -0.254 N 
HETATM    3  C   UNL     1       6.252  26.114  56.541  1.00  0.00     0.330 C 
HETATM    4  O   UNL     1       5.559  25.187  56.955  1.00  0.00    -0.246 OA
HETATM    5  N   UNL     1       6.295  27.262  57.305  1.00  0.00    -0.308 N 
HETATM    6  C   UNL     1       7.267  28.252  57.164  1.00  0.00     0.048 A 
HETATM    7  C   UNL     1       7.989  28.294  55.972  1.00  0.00     0.034 A 
HETATM    8  C   UNL     1       7.534  29.144  58.199  1.00  0.00     0.030 A 
HETATM    9  C   UNL     1       8.573  30.064  58.055  1.00  0.00     0.002 A 
HETATM   10  C   UNL     1       9.330  30.090  56.883  1.00  0.00     0.001 A 
HETATM   11  C   UNL     1       9.038  29.212  55.838  1.00  0.00     0.015 A 
HETATM   12  H   UNL     1       5.765  27.196  58.166  1.00  0.00     0.170 HD
ENDROOT
BRANCH   1  13
HETATM   13  C   UNL     1       6.199  28.011  54.150  1.00  0.00     0.279 C 
HETATM   14  N   UNL     1       6.399  28.558  52.895  1.00  0.00    -0.352 N 
HETATM   15  H   UNL     1       7.296  28.452  52.438  1.00  0.00     0.162 HD
HETATM   16  O   UNL     1       5.067  27.922  54.630  1.00  0.00    -0.268 OA
BRANCH  14  17
HETATM   17  C   UNL     1       5.313  29.110  52.121  1.00  0.00     0.161 C 
BRANCH  17  18
HETATM   18  C   UNL     1       5.106  28.339  50.842  1.00  0.00    -0.040 A 
HETATM   19  C   UNL     1       4.882  26.957  50.866  1.00  0.00     0.011 A 
HETATM   20  C   UNL     1       4.645  26.259  49.679  1.00  0.00     0.037 A 
HETATM   21  C   UNL     1       4.615  26.924  48.452  1.00  0.00     0.068 A 
HETATM   22  C   UNL     1       4.845  28.298  48.417  1.00  0.00     0.037 A 
HETATM   23  C   UNL     1       5.082  29.002  49.605  1.00  0.00     0.011 A 
BRANCH  21  24
HETATM   24  O   UNL     1       4.357  26.125  47.372  1.00  0.00    -0.356 OA
HETATM   25  C   UNL     1       3.127  25.412  47.382  1.00  0.00     0.210 C 
ENDBRANCH  21  24
ENDBRANCH  17  18
ENDBRANCH  14  17
ENDBRANCH   1  13
BRANCH   1  26
HETATM   26  O   UNL     1       8.470  27.291  53.844  1.00  0.00    -0.359 OA
HETATM   27  H   UNL     1       9.147  27.945  54.096  1.00  0.00     0.213 HD
ENDBRANCH   1  26
BRANCH   2  28
HETATM   28  C   UNL     1       7.385  24.859  54.759  1.00  0.00     0.043 A 
HETATM   29  C   UNL     1       6.691  24.480  53.601  1.00  0.00     0.031 A 
HETATM   30  C   UNL     1       6.939  23.247  52.985  1.00  0.00     0.026 A 
HETATM   31  C   UNL     1       7.876  22.376  53.530  1.00  0.00     0.034 A 
HETATM   32 CL   UNL     1       8.173  20.856  52.783  1.00  0.00    -0.084 Cl
HETATM   33  C   UNL     1       8.568  22.727  54.685  1.00  0.00     0.026 A 
HETATM   34  C   UNL     1       8.318  23.959  55.297  1.00  0.00     0.031 A 
ENDBRANCH   2  28
TORSDOF 6
ENDMDL
MODEL 2
REMARK VINA RESULT:      -9.1      3.929      8.203
REMARK  6 active torsions:
REMARK  status: ('A' for Active; 'I' for Inactive)
REMARK    1  A    between atoms: O_2  and  C_3 
REMARK    2  A    between atoms: C_6  and  C_7 
REMARK    3  A    between atoms: C_7  and  N_8 
REMARK       I    between atoms: N_8  and  C_9 
REMARK    4  A    between atoms: C_9  and  C_10 
REMARK    5  A    between atoms: C_10  and  O_11 
REMARK    6  A    between atoms: N_12  and  C_13 
ROOT
HETATM    1  C   UNL     1       7.155  27.656  54.645  1.00  0.00     0.256 C 
HETATM    2  N   UNL     1       5.833  27.914  55.229  1.00  0.00    -0.254 N 
HETATM    3  C   UNL     1       5.324  26.916  56.067  1.00  0.00     0.330 C 
HETATM    4  O   UNL     1       4.431  27.047  56.901  1.00  0.00    -0.246 OA
HETATM    5  N   UNL     1       5.797  25.639  55.841  1.00  0.00    -0.308 N 
HETATM    6  C   UNL     1       6.545  25.277  54.721  1.00  0.00     0.048 A 
HETATM    7  C   UNL     1       7.175  26.289  53.999  1.00  0.00     0.034 A 
HETATM    8  C   UNL     1       6.625  23.947  54.316  1.00  0.00     0.030 A 
HETATM    9  C   UNL     1       7.310  23.632  53.142  1.00  0.00     0.002 A 
HETATM   10  C   UNL     1       7.911  24.641  52.388  1.00  0.00     0.001 A 
HETATM   11  C   UNL     1       7.851  25.969  52.815  1.00  0.00     0.015 A 
HETATM   12  H   UNL     1       5.315  24.927  56.377  1.00  0.00     0.170 HD
ENDROOT
BRANCH   1  13
HETATM   13  C   UNL     1       8.243  27.770  55.806  1.00  0.00     0.279 C 
HETATM   14  N   UNL     1       8.940  28.962  55.888  1.00  0.00    -0.352 N 
HETATM   15  H   UNL     1       8.673  29.742  55.301  1.00  0.00     0.162 HD
HETATM   16  O   UNL     1       8.391  26.889  56.657  1.00  0.00    -0.268 OA
BRANCH  14  17
HETATM   17  C   UNL     1       9.919  29.205  56.921  1.00  0.00     0.161 C 
BRANCH  17  18
HETATM   18  C   UNL     1       9.399  30.180  57.947  1.00  0.00    -0.040 A 
HETATM   19  C   UNL     1       8.151  29.988  58.551  1.00  0.00     0.011 A 
HETATM   20  C   UNL     1       7.699  30.871  59.535  1.00  0.00     0.037 A 
HETATM   21  C   UNL     1       8.483  31.952  59.941  1.00  0.00     0.068 A 
HETATM   22  C   UNL     1       9.723  32.157  59.339  1.00  0.00     0.037 A 
HETATM   23  C   UNL     1      10.180  31.274  58.353  1.00  0.00     0.011 A 
BRANCH  21  24
HETATM   24  O   UNL     1       7.928  32.728  60.922  1.00  0.00    -0.356 OA
HETATM   25  C   UNL     1       6.515  32.666  61.064  1.00  0.00     0.210 C 
ENDBRANCH  21  24
ENDBRANCH  17  18
ENDBRANCH  14  17
ENDBRANCH   1  13
BRANCH   1  26
HETATM   26  O   UNL     1       7.540  28.641  53.682  1.00  0.00    -0.359 OA
HETATM   27  H   UNL     1       7.726  29.438  54.212  1.00  0.00     0.213 HD
ENDBRANCH   1  26
BRANCH   2  28
HETATM   28  C   UNL     1       5.200  29.190  55.148  1.00  0.00     0.043 A 
HETATM   29  C   UNL     1       5.541  30.235  56.016  1.00  0.00     0.031 A 
HETATM   30  C   UNL     1       4.871  31.464  55.962  1.00  0.00     0.026 A 
HETATM   31  C   UNL     1       3.844  31.654  55.044  1.00  0.00     0.034 A 
HETATM   32 CL   UNL     1       3.011  33.157  54.983  1.00  0.00    -0.084 Cl
HETATM   33  C   UNL     1       3.481  30.625  54.179  1.00  0.00     0.026 A 
HETATM   34  C   UNL     1       4.153  29.400  54.237  1.00  0.00     0.031 A 
ENDBRANCH   2  28
TORSDOF 6
ENDMDL
MODEL 3
REMARK VINA RESULT:      -8.8      9.012     12.761
REMARK  6 active torsions:
REMARK  status: ('A' for Active; 'I' for Inactive)
REMARK    1  A    between atoms: O_2  and  C_3 
REMARK    2  A    between atoms: C_6  and  C_7 
REMARK    3  A    between atoms: C_7  and  N_8 
REMARK       I    between atoms: N_8  and  C_9 
REMARK    4  A    between atoms: C_9  and  C_10 
REMARK    5  A    between atoms: C_10  and  O_11 
REMARK    6  A    between atoms: N_12  and  C_13 
ROOT
HETATM    1  C   UNL     1       4.488  34.848  62.196  1.00  0.00     0.256 C 
HETATM    2  N   UNL     1       3.676  34.671  63.406  1.00  0.00    -0.254 N 
HETATM    3  C   UNL     1       2.405  34.119  63.219  1.00  0.00     0.330 C 
HETATM    4  O   UNL     1       1.706  33.587  64.079  1.00  0.00    -0.246 OA
HETATM    5  N   UNL     1       1.844  34.303  61.973  1.00  0.00    -0.308 N 
HETATM    6  C   UNL     1       2.360  35.170  61.010  1.00  0.00     0.048 A 
HETATM    7  C   UNL     1       3.688  35.575  61.139  1.00  0.00     0.034 A 
HETATM    8  C   UNL     1       1.560  35.647  59.975  1.00  0.00     0.030 A 
HETATM    9  C   UNL     1       2.086  36.581  59.082  1.00  0.00     0.002 A 
HETATM   10  C   UNL     1       3.400  37.025  59.224  1.00  0.00     0.001 A 
HETATM   11  C   UNL     1       4.206  36.521  60.246  1.00  0.00     0.015 A 
HETATM   12  H   UNL     1       0.878  34.003  61.914  1.00  0.00     0.170 HD
ENDROOT
BRANCH   1  13
HETATM   13  C   UNL     1       4.949  33.405  61.691  1.00  0.00     0.279 C 
HETATM   14  N   UNL     1       6.054  32.854  62.314  1.00  0.00    -0.352 N 
HETATM   15  H   UNL     1       6.459  33.314  63.120  1.00  0.00     0.162 HD
HETATM   16  O   UNL     1       4.301  32.761  60.863  1.00  0.00    -0.268 OA
BRANCH  14  17
HETATM   17  C   UNL     1       6.542  31.537  61.979  1.00  0.00     0.161 C 
BRANCH  17  18
HETATM   18  C   UNL     1       7.589  31.601  60.895  1.00  0.00    -0.040 A 
HETATM   19  C   UNL     1       8.900  31.996  61.188  1.00  0.00     0.011 A 
HETATM   20  C   UNL     1       9.874  32.007  60.186  1.00  0.00     0.037 A 
HETATM   21  C   UNL     1       9.563  31.617  58.881  1.00  0.00     0.068 A 
HETATM   22  C   UNL     1       8.259  31.231  58.580  1.00  0.00     0.037 A 
HETATM   23  C   UNL     1       7.280  31.218  59.581  1.00  0.00     0.011 A 
BRANCH  21  24
HETATM   24  O   UNL     1      10.612  31.660  58.004  1.00  0.00    -0.356 OA
HETATM   25  C   UNL     1      10.957  30.440  57.359  1.00  0.00     0.210 C 
ENDBRANCH  21  24
ENDBRANCH  17  18
ENDBRANCH  14  17
ENDBRANCH   1  13
BRANCH   1  26
HETATM   26  O   UNL     1       5.706  35.558  62.440  1.00  0.00    -0.359 OA
HETATM   27  H   UNL     1       5.510  36.115  63.216  1.00  0.00     0.213 HD
ENDBRANCH   1  26
BRANCH   2  28
HETATM   28  C   UNL     1       4.218  34.829  64.717  1.00  0.00     0.043 A 
HETATM   29  C   UNL     1       4.898  33.785  65.360  1.00  0.00     0.031 A 
HETATM   30  C   UNL     1       5.374  33.935  66.668  1.00  0.00     0.026 A 
HETATM   31  C   UNL     1       5.164  35.129  67.349  1.00  0.00     0.034 A 
HETATM   32 CL   UNL     1       5.737  35.312  68.961  1.00  0.00    -0.084 Cl
HETATM   33  C   UNL     1       4.482  36.174  66.735  1.00  0.00     0.026 A 
HETATM   34  C   UNL     1       4.008  36.020  65.427  1.00  0.00     0.031 A 
ENDBRANCH   2  28
TORSDOF 6
ENDMDL
MODEL 4
REMARK VINA RESULT:      -8.8      3.278      8.024
REMARK  6 active torsions:
REMARK  status: ('A' for Active; 'I' for Inactive)
REMARK    1  A    between atoms: O_2  and  C_3 
REMARK    2  A    between atoms: C_6  and  C_7 
REMARK    3  A    between atoms: C_7  and  N_8 
REMARK       I    between atoms: N_8  and  C_9 
REMARK    4  A    between atoms: C_9  and  C_10 
REMARK    5  A    between atoms: C_10  and  O_11 
REMARK    6  A    between atoms: N_12  and  C_13 
ROOT
HETATM    1  C   UNL     1       6.550  27.847  56.375  1.00  0.00     0.256 C 
HETATM    2  N   UNL     1       7.004  26.850  55.397  1.00  0.00    -0.254 N 
HETATM    3  C   UNL     1       7.287  27.329  54.114  1.00  0.00     0.330 C 
HETATM    4  O   UNL     1       7.973  26.772  53.260  1.00  0.00    -0.246 OA
HETATM    5  N   UNL     1       6.627  28.483  53.742  1.00  0.00    -0.308 N 
HETATM    6  C   UNL     1       5.570  29.038  54.462  1.00  0.00     0.048 A 
HETATM    7  C   UNL     1       5.413  28.658  55.794  1.00  0.00     0.034 A 
HETATM    8  C   UNL     1       4.674  29.914  53.854  1.00  0.00     0.030 A 
HETATM    9  C   UNL     1       3.577  30.380  54.581  1.00  0.00     0.002 A 
HETATM   10  C   UNL     1       3.387  29.975  55.902  1.00  0.00     0.001 A 
HETATM   11  C   UNL     1       4.305  29.119  56.514  1.00  0.00     0.015 A 
HETATM   12  H   UNL     1       6.757  28.728  52.768  1.00  0.00     0.170 HD
ENDROOT
BRANCH   1  13
HETATM   13  C   UNL     1       7.793  28.772  56.757  1.00  0.00     0.279 C 
HETATM   14  N   UNL     1       7.837  29.247  58.054  1.00  0.00    -0.352 N 
HETATM   15  H   UNL     1       7.164  28.917  58.734  1.00  0.00     0.162 HD
HETATM   16  O   UNL     1       8.725  28.974  55.974  1.00  0.00    -0.268 OA
BRANCH  14  17
HETATM   17  C   UNL     1       8.932  30.056  58.535  1.00  0.00     0.161 C 
BRANCH  17  18
HETATM   18  C   UNL     1       8.506  30.920  59.695  1.00  0.00    -0.040 A 
HETATM   19  C   UNL     1       7.390  31.758  59.592  1.00  0.00     0.011 A 
HETATM   20  C   UNL     1       6.975  32.520  60.688  1.00  0.00     0.037 A 
HETATM   21  C   UNL     1       7.655  32.452  61.905  1.00  0.00     0.068 A 
HETATM   22  C   UNL     1       8.773  31.627  62.014  1.00  0.00     0.037 A 
HETATM   23  C   UNL     1       9.192  30.862  60.918  1.00  0.00     0.011 A 
BRANCH  21  24
HETATM   24  O   UNL     1       7.136  33.236  62.898  1.00  0.00    -0.356 OA
HETATM   25  C   UNL     1       7.705  33.090  64.193  1.00  0.00     0.210 C 
ENDBRANCH  21  24
ENDBRANCH  17  18
ENDBRANCH  14  17
ENDBRANCH   1  13
BRANCH   1  26
HETATM   26  O   UNL     1       6.132  27.263  57.613  1.00  0.00    -0.359 OA
HETATM   27  H   UNL     1       5.501  26.567  57.351  1.00  0.00     0.213 HD
ENDBRANCH   1  26
BRANCH   2  28
HETATM   28  C   UNL     1       7.364  25.521  55.775  1.00  0.00     0.043 A 
HETATM   29  C   UNL     1       8.356  25.274  56.733  1.00  0.00     0.031 A 
HETATM   30  C   UNL     1       8.739  23.965  57.052  1.00  0.00     0.026 A 
HETATM   31  C   UNL     1       8.138  22.891  56.406  1.00  0.00     0.034 A 
HETATM   32 CL   UNL     1       8.614  21.282  56.785  1.00  0.00    -0.084 Cl
HETATM   33  C   UNL     1       7.157  23.113  55.443  1.00  0.00     0.026 A 
HETATM   34  C   UNL     1       6.778  24.422  55.127  1.00  0.00     0.031 A 
ENDBRANCH   2  28
TORSDOF 6
ENDMDL
MODEL 5
REMARK VINA RESULT:      -8.5      3.412      6.761
REMARK  6 active torsions:
REMARK  status: ('A' for Active; 'I' for Inactive)
REMARK    1  A    between atoms: O_2  and  C_3 
REMARK    2  A    between atoms: C_6  and  C_7 
REMARK    3  A    between atoms: C_7  and  N_8 
REMARK       I    between atoms: N_8  and  C_9 
REMARK    4  A    between atoms: C_9  and  C_10 
REMARK    5  A    between atoms: C_10  and  O_11 
REMARK    6  A    between atoms: N_12  and  C_13 
ROOT
HETATM    1  C   UNL     1       4.211  28.743  53.072  1.00  0.00     0.256 C 
HETATM    2  N   UNL     1       3.855  29.477  51.851  1.00  0.00    -0.254 N 
HETATM    3  C   UNL     1       4.400  30.759  51.723  1.00  0.00     0.330 C 
HETATM    4  O   UNL     1       4.514  31.403  50.682  1.00  0.00    -0.246 OA
HETATM    5  N   UNL     1       4.726  31.397  52.901  1.00  0.00    -0.308 N 
HETATM    6  C   UNL     1       4.343  30.941  54.162  1.00  0.00     0.048 A 
HETATM    7  C   UNL     1       3.958  29.608  54.286  1.00  0.00     0.034 A 
HETATM    8  C   UNL     1       4.308  31.805  55.254  1.00  0.00     0.030 A 
HETATM    9  C   UNL     1       3.835  31.335  56.480  1.00  0.00     0.002 A 
HETATM   10  C   UNL     1       3.409  30.013  56.608  1.00  0.00     0.001 A 
HETATM   11  C   UNL     1       3.473  29.144  55.516  1.00  0.00     0.015 A 
HETATM   12  H   UNL     1       4.996  32.366  52.777  1.00  0.00     0.170 HD
ENDROOT
BRANCH   1  13
HETATM   13  C   UNL     1       5.746  28.318  52.967  1.00  0.00     0.279 C 
HETATM   14  N   UNL     1       6.142  27.230  53.722  1.00  0.00    -0.352 N 
HETATM   15  H   UNL     1       5.449  26.682  54.217  1.00  0.00     0.162 HD
HETATM   16  O   UNL     1       6.524  28.859  52.177  1.00  0.00    -0.268 OA
BRANCH  14  17
HETATM   17  C   UNL     1       7.492  26.720  53.679  1.00  0.00     0.161 C 
BRANCH  17  18
HETATM   18  C   UNL     1       7.515  25.219  53.816  1.00  0.00    -0.040 A 
HETATM   19  C   UNL     1       7.882  24.406  52.737  1.00  0.00     0.011 A 
HETATM   20  C   UNL     1       7.945  23.018  52.887  1.00  0.00     0.037 A 
HETATM   21  C   UNL     1       7.655  22.417  54.113  1.00  0.00     0.068 A 
HETATM   22  C   UNL     1       7.280  23.218  55.190  1.00  0.00     0.037 A 
HETATM   23  C   UNL     1       7.216  24.609  55.044  1.00  0.00     0.011 A 
BRANCH  21  24
HETATM   24  O   UNL     1       7.770  21.054  54.126  1.00  0.00    -0.356 OA
HETATM   25  C   UNL     1       8.227  20.439  52.929  1.00  0.00     0.210 C 
ENDBRANCH  21  24
ENDBRANCH  17  18
ENDBRANCH  14  17
ENDBRANCH   1  13
BRANCH   1  26
HETATM   26  O   UNL     1       3.497  27.510  53.209  1.00  0.00    -0.359 OA
HETATM   27  H   UNL     1       3.216  27.497  54.143  1.00  0.00     0.213 HD
ENDBRANCH   1  26
BRANCH   2  28
HETATM   28  C   UNL     1       3.191  28.853  50.753  1.00  0.00     0.043 A 
HETATM   29  C   UNL     1       3.872  28.004  49.870  1.00  0.00     0.031 A 
HETATM   30  C   UNL     1       3.222  27.444  48.764  1.00  0.00     0.026 A 
HETATM   31  C   UNL     1       1.884  27.738  48.525  1.00  0.00     0.034 A 
HETATM   32 CL   UNL     1       1.085  27.062  47.160  1.00  0.00    -0.084 Cl
HETATM   33  C   UNL     1       1.191  28.587  49.383  1.00  0.00     0.026 A 
HETATM   34  C   UNL     1       1.844  29.144  50.487  1.00  0.00     0.031 A 
ENDBRANCH   2  28
TORSDOF 6
ENDMDL
MODEL 6
REMARK VINA RESULT:      -8.3      4.392      8.715
REMARK  6 active torsions:
REMARK  status: ('A' for Active; 'I' for Inactive)
REMARK    1  A    between atoms: O_2  and  C_3 
REMARK    2  A    between atoms: C_6  and  C_7 
REMARK    3  A    between atoms: C_7  and  N_8 
REMARK       I    between atoms: N_8  and  C_9 
REMARK    4  A    between atoms: C_9  and  C_10 
REMARK    5  A    between atoms: C_10  and  O_11 
REMARK    6  A    between atoms: N_12  and  C_13 
ROOT
HETATM    1  C   UNL     1       4.428  28.695  49.647  1.00  0.00     0.256 C 
HETATM    2  N   UNL     1       3.825  30.030  49.535  1.00  0.00    -0.254 N 
HETATM    3  C   UNL     1       2.433  30.088  49.656  1.00  0.00     0.330 C 
HETATM    4  O   UNL     1       1.764  31.084  49.924  1.00  0.00    -0.246 OA
HETATM    5  N   UNL     1       1.749  28.937  49.325  1.00  0.00    -0.308 N 
HETATM    6  C   UNL     1       2.334  27.845  48.684  1.00  0.00     0.048 A 
HETATM    7  C   UNL     1       3.722  27.731  48.721  1.00  0.00     0.034 A 
HETATM    8  C   UNL     1       1.554  26.920  47.995  1.00  0.00     0.030 A 
HETATM    9  C   UNL     1       2.180  25.890  47.292  1.00  0.00     0.002 A 
HETATM   10  C   UNL     1       3.571  25.788  47.287  1.00  0.00     0.001 A 
HETATM   11  C   UNL     1       4.346  26.702  48.005  1.00  0.00     0.015 A 
HETATM   12  H   UNL     1       0.743  29.055  49.302  1.00  0.00     0.170 HD
ENDROOT
BRANCH   1  13
HETATM   13  C   UNL     1       4.322  28.228  51.170  1.00  0.00     0.279 C 
HETATM   14  N   UNL     1       5.155  27.196  51.561  1.00  0.00    -0.352 N 
HETATM   15  H   UNL     1       5.863  26.852  50.925  1.00  0.00     0.162 HD
HETATM   16  O   UNL     1       3.614  28.818  51.990  1.00  0.00    -0.268 OA
BRANCH  14  17
HETATM   17  C   UNL     1       5.185  26.713  52.922  1.00  0.00     0.161 C 
BRANCH  17  18
HETATM   18  C   UNL     1       6.150  25.564  53.072  1.00  0.00    -0.040 A 
HETATM   19  C   UNL     1       6.088  24.717  54.185  1.00  0.00     0.011 A 
HETATM   20  C   UNL     1       6.956  23.627  54.293  1.00  0.00     0.037 A 
HETATM   21  C   UNL     1       7.891  23.356  53.293  1.00  0.00     0.068 A 
HETATM   22  C   UNL     1       7.966  24.198  52.185  1.00  0.00     0.037 A 
HETATM   23  C   UNL     1       7.098  25.291  52.073  1.00  0.00     0.011 A 
BRANCH  21  24
HETATM   24  O   UNL     1       8.667  22.251  53.516  1.00  0.00    -0.356 OA
HETATM   25  C   UNL     1       8.124  20.998  53.121  1.00  0.00     0.210 C 
ENDBRANCH  21  24
ENDBRANCH  17  18
ENDBRANCH  14  17
ENDBRANCH   1  13
BRANCH   1  26
HETATM   26  O   UNL     1       5.830  28.691  49.358  1.00  0.00    -0.359 OA
HETATM   27  H   UNL     1       5.916  29.263  48.573  1.00  0.00     0.213 HD
ENDBRANCH   1  26
BRANCH   2  28
HETATM   28  C   UNL     1       4.609  31.222  49.536  1.00  0.00     0.043 A 
HETATM   29  C   UNL     1       4.993  31.846  50.731  1.00  0.00     0.031 A 
HETATM   30  C   UNL     1       5.713  33.047  50.716  1.00  0.00     0.026 A 
HETATM   31  C   UNL     1       6.045  33.641  49.504  1.00  0.00     0.034 A 
HETATM   32 CL   UNL     1       6.918  35.123  49.482  1.00  0.00    -0.084 Cl
HETATM   33  C   UNL     1       5.664  33.045  48.306  1.00  0.00     0.026 A 
HETATM   34  C   UNL     1       4.945  31.845  48.324  1.00  0.00     0.031 A 
ENDBRANCH   2  28
TORSDOF 6
ENDMDL
MODEL 7
REMARK VINA RESULT:      -7.8      3.455      6.801
REMARK  6 active torsions:
REMARK  status: ('A' for Active; 'I' for Inactive)
REMARK    1  A    between atoms: O_2  and  C_3 
REMARK    2  A    between atoms: C_6  and  C_7 
REMARK    3  A    between atoms: C_7  and  N_8 
REMARK       I    between atoms: N_8  and  C_9 
REMARK    4  A    between atoms: C_9  and  C_10 
REMARK    5  A    between atoms: C_10  and  O_11 
REMARK    6  A    between atoms: N_12  and  C_13 
ROOT
HETATM    1  C   UNL     1       3.428  30.074  51.772  1.00  0.00     0.256 C 
HETATM    2  N   UNL     1       4.262  29.718  50.618  1.00  0.00    -0.254 N 
HETATM    3  C   UNL     1       5.465  30.419  50.488  1.00  0.00     0.330 C 
HETATM    4  O   UNL     1       6.443  30.078  49.825  1.00  0.00    -0.246 OA
HETATM    5  N   UNL     1       5.500  31.671  51.067  1.00  0.00    -0.308 N 
HETATM    6  C   UNL     1       4.373  32.332  51.554  1.00  0.00     0.048 A 
HETATM    7  C   UNL     1       3.236  31.573  51.827  1.00  0.00     0.034 A 
HETATM    8  C   UNL     1       4.372  33.714  51.721  1.00  0.00     0.030 A 
HETATM    9  C   UNL     1       3.198  34.352  52.125  1.00  0.00     0.002 A 
HETATM   10  C   UNL     1       2.042  33.608  52.363  1.00  0.00     0.001 A 
HETATM   11  C   UNL     1       2.057  32.219  52.221  1.00  0.00     0.015 A 
HETATM   12  H   UNL     1       6.336  32.198  50.845  1.00  0.00     0.170 HD
ENDROOT
BRANCH   1  13
HETATM   13  C   UNL     1       4.143  29.528  53.091  1.00  0.00     0.279 C 
HETATM   14  N   UNL     1       4.199  28.154  53.242  1.00  0.00    -0.352 N 
HETATM   15  H   UNL     1       3.896  27.552  52.487  1.00  0.00     0.162 HD
HETATM   16  O   UNL     1       4.711  30.278  53.888  1.00  0.00    -0.268 OA
BRANCH  14  17
HETATM   17  C   UNL     1       4.858  27.536  54.368  1.00  0.00     0.161 C 
BRANCH  17  18
HETATM   18  C   UNL     1       5.777  26.427  53.922  1.00  0.00    -0.040 A 
HETATM   19  C   UNL     1       5.733  25.170  54.537  1.00  0.00     0.011 A 
HETATM   20  C   UNL     1       6.556  24.134  54.085  1.00  0.00     0.037 A 
HETATM   21  C   UNL     1       7.426  24.328  53.011  1.00  0.00     0.068 A 
HETATM   22  C   UNL     1       7.482  25.579  52.398  1.00  0.00     0.037 A 
HETATM   23  C   UNL     1       6.659  26.619  52.847  1.00  0.00     0.011 A 
BRANCH  21  24
HETATM   24  O   UNL     1       8.163  23.229  52.662  1.00  0.00    -0.356 OA
HETATM   25  C   UNL     1       7.820  22.003  53.294  1.00  0.00     0.210 C 
ENDBRANCH  21  24
ENDBRANCH  17  18
ENDBRANCH  14  17
ENDBRANCH   1  13
BRANCH   1  26
HETATM   26  O   UNL     1       2.149  29.432  51.755  1.00  0.00    -0.359 OA
HETATM   27  H   UNL     1       1.985  29.195  52.686  1.00  0.00     0.213 HD
ENDBRANCH   1  26
BRANCH   2  28
HETATM   28  C   UNL     1       3.992  28.575  49.807  1.00  0.00     0.043 A 
HETATM   29  C   UNL     1       3.054  28.619  48.767  1.00  0.00     0.031 A 
HETATM   30  C   UNL     1       2.758  27.475  48.016  1.00  0.00     0.026 A 
HETATM   31  C   UNL     1       3.391  26.272  48.308  1.00  0.00     0.034 A 
HETATM   32 CL   UNL     1       3.020  24.861  47.396  1.00  0.00    -0.084 Cl
HETATM   33  C   UNL     1       4.318  26.202  49.344  1.00  0.00     0.026 A 
HETATM   34  C   UNL     1       4.611  27.348  50.091  1.00  0.00     0.031 A 
ENDBRANCH   2  28
TORSDOF 6
ENDMDL
MODEL 8
REMARK VINA RESULT:      -7.6     15.522     19.029
REMARK  6 active torsions:
REMARK  status: ('A' for Active; 'I' for Inactive)
REMARK    1  A    between atoms: O_2  and  C_3 
REMARK    2  A    between atoms: C_6  and  C_7 
REMARK    3  A    between atoms: C_7  and  N_8 
REMARK       I    between atoms: N_8  and  C_9 
REMARK    4  A    between atoms: C_9  and  C_10 
REMARK    5  A    between atoms: C_10  and  O_11 
REMARK    6  A    between atoms: N_12  and  C_13 
ROOT
HETATM    1  C   UNL     1      11.437  10.027  54.190  1.00  0.00     0.256 C 
HETATM    2  N   UNL     1      12.162  11.070  53.454  1.00  0.00    -0.254 N 
HETATM    3  C   UNL     1      11.815  12.391  53.756  1.00  0.00     0.330 C 
HETATM    4  O   UNL     1      12.488  13.394  53.527  1.00  0.00    -0.246 OA
HETATM    5  N   UNL     1      10.541  12.583  54.248  1.00  0.00    -0.308 N 
HETATM    6  C   UNL     1       9.551  11.601  54.242  1.00  0.00     0.048 A 
HETATM    7  C   UNL     1       9.948  10.272  54.100  1.00  0.00     0.034 A 
HETATM    8  C   UNL     1       8.204  11.943  54.333  1.00  0.00     0.030 A 
HETATM    9  C   UNL     1       7.238  10.941  54.234  1.00  0.00     0.002 A 
HETATM   10  C   UNL     1       7.621   9.612  54.052  1.00  0.00     0.001 A 
HETATM   11  C   UNL     1       8.974   9.272  53.990  1.00  0.00     0.015 A 
HETATM   12  H   UNL     1      10.281  13.559  54.333  1.00  0.00     0.170 HD
ENDROOT
BRANCH   1  13
HETATM   13  C   UNL     1      11.942  10.045  55.705  1.00  0.00     0.279 C 
HETATM   14  N   UNL     1      12.747   8.994  56.103  1.00  0.00    -0.352 N 
HETATM   15  H   UNL     1      13.076   8.325  55.418  1.00  0.00     0.162 HD
HETATM   16  O   UNL     1      11.718  10.994  56.460  1.00  0.00    -0.268 OA
BRANCH  14  17
HETATM   17  C   UNL     1      13.304   8.919  57.433  1.00  0.00     0.161 C 
BRANCH  17  18
HETATM   18  C   UNL     1      14.765   9.292  57.436  1.00  0.00    -0.040 A 
HETATM   19  C   UNL     1      15.643   8.742  58.377  1.00  0.00     0.011 A 
HETATM   20  C   UNL     1      17.004   9.058  58.343  1.00  0.00     0.037 A 
HETATM   21  C   UNL     1      17.515   9.916  57.367  1.00  0.00     0.068 A 
HETATM   22  C   UNL     1      16.646  10.475  56.431  1.00  0.00     0.037 A 
HETATM   23  C   UNL     1      15.282  10.161  56.462  1.00  0.00     0.011 A 
BRANCH  21  24
HETATM   24  O   UNL     1      18.865  10.129  57.438  1.00  0.00    -0.356 OA
HETATM   25  C   UNL     1      19.487   9.872  58.690  1.00  0.00     0.210 C 
ENDBRANCH  21  24
ENDBRANCH  17  18
ENDBRANCH  14  17
ENDBRANCH   1  13
BRANCH   1  26
HETATM   26  O   UNL     1      11.731   8.708  53.721  1.00  0.00    -0.359 OA
HETATM   27  H   UNL     1      12.435   8.391  54.316  1.00  0.00     0.213 HD
ENDBRANCH   1  26
BRANCH   2  28
HETATM   28  C   UNL     1      13.308  10.782  52.654  1.00  0.00     0.043 A 
HETATM   29  C   UNL     1      14.586  10.670  53.217  1.00  0.00     0.031 A 
HETATM   30  C   UNL     1      15.710  10.443  52.412  1.00  0.00     0.026 A 
HETATM   31  C   UNL     1      15.565  10.337  51.033  1.00  0.00     0.034 A 
HETATM   32 CL   UNL     1      16.944  10.072  50.041  1.00  0.00    -0.084 Cl
HETATM   33  C   UNL     1      14.306  10.457  50.452  1.00  0.00     0.026 A 
HETATM   34  C   UNL     1      13.186  10.683  51.259  1.00  0.00     0.031 A 
ENDBRANCH   2  28
TORSDOF 6
ENDMDL
MODEL 9
REMARK VINA RESULT:      -7.4     15.521     18.406
REMARK  6 active torsions:
REMARK  status: ('A' for Active; 'I' for Inactive)
REMARK    1  A    between atoms: O_2  and  C_3 
REMARK    2  A    between atoms: C_6  and  C_7 
REMARK    3  A    between atoms: C_7  and  N_8 
REMARK       I    between atoms: N_8  and  C_9 
REMARK    4  A    between atoms: C_9  and  C_10 
REMARK    5  A    between atoms: C_10  and  O_11 
REMARK    6  A    between atoms: N_12  and  C_13 
ROOT
HETATM    1  C   UNL     1      11.532  10.159  54.171  1.00  0.00     0.256 C 
HETATM    2  N   UNL     1      12.176  11.143  53.292  1.00  0.00    -0.254 N 
HETATM    3  C   UNL     1      11.756  12.469  53.441  1.00  0.00     0.330 C 
HETATM    4  O   UNL     1      12.361  13.474  53.073  1.00  0.00    -0.246 OA
HETATM    5  N   UNL     1      10.483  12.646  53.943  1.00  0.00    -0.308 N 
HETATM    6  C   UNL     1       9.555  11.615  54.085  1.00  0.00     0.048 A 
HETATM    7  C   UNL     1      10.029  10.305  54.095  1.00  0.00     0.034 A 
HETATM    8  C   UNL     1       8.192  11.888  54.173  1.00  0.00     0.030 A 
HETATM    9  C   UNL     1       7.287  10.828  54.226  1.00  0.00     0.002 A 
HETATM   10  C   UNL     1       7.746   9.511  54.195  1.00  0.00     0.001 A 
HETATM   11  C   UNL     1       9.115   9.244  54.136  1.00  0.00     0.015 A 
HETATM   12  H   UNL     1      10.167  13.609  53.917  1.00  0.00     0.170 HD
ENDROOT
BRANCH   1  13
HETATM   13  C   UNL     1      12.068  10.392  55.656  1.00  0.00     0.279 C 
HETATM   14  N   UNL     1      11.735   9.432  56.594  1.00  0.00    -0.352 N 
HETATM   15  H   UNL     1      11.272   8.581  56.300  1.00  0.00     0.162 HD
HETATM   16  O   UNL     1      12.827  11.322  55.942  1.00  0.00    -0.268 OA
BRANCH  14  17
HETATM   17  C   UNL     1      12.196   9.506  57.960  1.00  0.00     0.161 C 
BRANCH  17  18
HETATM   18  C   UNL     1      11.039   9.593  58.924  1.00  0.00    -0.040 A 
HETATM   19  C   UNL     1      11.063  10.498  59.991  1.00  0.00     0.011 A 
HETATM   20  C   UNL     1       9.967  10.605  60.851  1.00  0.00     0.037 A 
HETATM   21  C   UNL     1       8.827   9.822  60.658  1.00  0.00     0.068 A 
HETATM   22  C   UNL     1       8.798   8.912  59.603  1.00  0.00     0.037 A 
HETATM   23  C   UNL     1       9.894   8.803  58.738  1.00  0.00     0.011 A 
BRANCH  21  24
HETATM   24  O   UNL     1       7.822  10.036  61.561  1.00  0.00    -0.356 OA
HETATM   25  C   UNL     1       7.539  11.390  61.894  1.00  0.00     0.210 C 
ENDBRANCH  21  24
ENDBRANCH  17  18
ENDBRANCH  14  17
ENDBRANCH   1  13
BRANCH   1  26
HETATM   26  O   UNL     1      11.894   8.811  53.857  1.00  0.00    -0.359 OA
HETATM   27  H   UNL     1      12.854   8.851  53.691  1.00  0.00     0.213 HD
ENDBRANCH   1  26
BRANCH   2  28
HETATM   28  C   UNL     1      13.319  10.825  52.500  1.00  0.00     0.043 A 
HETATM   29  C   UNL     1      14.608  10.797  53.050  1.00  0.00     0.031 A 
HETATM   30  C   UNL     1      15.727  10.539  52.248  1.00  0.00     0.026 A 
HETATM   31  C   UNL     1      15.567  10.318  50.885  1.00  0.00     0.034 A 
HETATM   32 CL   UNL     1      16.940  10.013  49.896  1.00  0.00    -0.084 Cl
HETATM   33  C   UNL     1      14.297  10.352  50.316  1.00  0.00     0.026 A 
HETATM   34  C   UNL     1      13.182  10.610  51.120  1.00  0.00     0.031 A 
ENDBRANCH   2  28
TORSDOF 6
ENDMDL
MODEL 10
REMARK VINA RESULT:      -7.1      3.672      6.325
REMARK  6 active torsions:
REMARK  status: ('A' for Active; 'I' for Inactive)
REMARK    1  A    between atoms: O_2  and  C_3 
REMARK    2  A    between atoms: C_6  and  C_7 
REMARK    3  A    between atoms: C_7  and  N_8 
REMARK       I    between atoms: N_8  and  C_9 
REMARK    4  A    between atoms: C_9  and  C_10 
REMARK    5  A    between atoms: C_10  and  O_11 
REMARK    6  A    between atoms: N_12  and  C_13 
ROOT
HETATM    1  C   UNL     1       4.706  28.080  49.988  1.00  0.00     0.256 C 
HETATM    2  N   UNL     1       4.639  27.817  51.431  1.00  0.00    -0.254 N 
HETATM    3  C   UNL     1       3.524  28.332  52.100  1.00  0.00     0.330 C 
HETATM    4  O   UNL     1       3.096  27.970  53.194  1.00  0.00    -0.246 OA
HETATM    5  N   UNL     1       2.927  29.433  51.520  1.00  0.00    -0.308 N 
HETATM    6  C   UNL     1       3.493  30.161  50.474  1.00  0.00     0.048 A 
HETATM    7  C   UNL     1       4.497  29.554  49.722  1.00  0.00     0.034 A 
HETATM    8  C   UNL     1       3.095  31.471  50.219  1.00  0.00     0.030 A 
HETATM    9  C   UNL     1       3.746  32.199  49.222  1.00  0.00     0.002 A 
HETATM   10  C   UNL     1       4.780  31.616  48.488  1.00  0.00     0.001 A 
HETATM   11  C   UNL     1       5.154  30.293  48.730  1.00  0.00     0.015 A 
HETATM   12  H   UNL     1       2.206  29.854  52.094  1.00  0.00     0.170 HD
ENDROOT
BRANCH   1  13
HETATM   13  C   UNL     1       3.591  27.192  49.269  1.00  0.00     0.279 C 
HETATM   14  N   UNL     1       2.517  27.869  48.720  1.00  0.00    -0.352 N 
HETATM   15  H   UNL     1       2.522  28.881  48.691  1.00  0.00     0.162 HD
HETATM   16  O   UNL     1       3.721  25.975  49.114  1.00  0.00    -0.268 OA
BRANCH  14  17
HETATM   17  C   UNL     1       1.467  27.184  48.005  1.00  0.00     0.161 C 
BRANCH  17  18
HETATM   18  C   UNL     1       0.798  28.097  47.009  1.00  0.00    -0.040 A 
HETATM   19  C   UNL     1      -0.160  27.603  46.116  1.00  0.00     0.011 A 
HETATM   20  C   UNL     1      -0.809  28.466  45.228  1.00  0.00     0.037 A 
HETATM   21  C   UNL     1      -0.524  29.833  45.222  1.00  0.00     0.068 A 
HETATM   22  C   UNL     1       0.435  30.332  46.103  1.00  0.00     0.037 A 
HETATM   23  C   UNL     1       1.086  29.470  46.994  1.00  0.00     0.011 A 
BRANCH  21  24
HETATM   24  O   UNL     1      -1.240  30.565  44.315  1.00  0.00    -0.356 OA
HETATM   25  C   UNL     1      -2.594  30.182  44.110  1.00  0.00     0.210 C 
ENDBRANCH  21  24
ENDBRANCH  17  18
ENDBRANCH  14  17
ENDBRANCH   1  13
BRANCH   1  26
HETATM   26  O   UNL     1       5.942  27.662  49.402  1.00  0.00    -0.359 OA
HETATM   27  H   UNL     1       5.677  27.081  48.666  1.00  0.00     0.213 HD
ENDBRANCH   1  26
BRANCH   2  28
HETATM   28  C   UNL     1       5.521  26.903  52.081  1.00  0.00     0.043 A 
HETATM   29  C   UNL     1       5.311  25.518  52.028  1.00  0.00     0.031 A 
HETATM   30  C   UNL     1       6.152  24.636  52.718  1.00  0.00     0.026 A 
HETATM   31  C   UNL     1       7.205  25.134  53.477  1.00  0.00     0.034 A 
HETATM   32 CL   UNL     1       8.232  24.054  54.335  1.00  0.00    -0.084 Cl
HETATM   33  C   UNL     1       7.425  26.506  53.552  1.00  0.00     0.026 A 
HETATM   34  C   UNL     1       6.583  27.384  52.862  1.00  0.00     0.031 A 
ENDBRANCH   2  28
TORSDOF 6
ENDMDL
