MODEL 1
REMARK VINA RESULT:     -11.5      0.000      0.000
REMARK  7 active torsions:
REMARK  status: ('A' for Active; 'I' for Inactive)
REMARK    1  A    between atoms: C_2  and  C_3 
REMARK    2  A    between atoms: N_16  and  C_17 
REMARK    3  A    between atoms: C_17  and  C_18 
REMARK       I    between atoms: C_18  and  N_19 
REMARK    4  A    between atoms: N_19  and  C_20 
REMARK    5  A    between atoms: C_21  and  C_22 
REMARK       I    between atoms: C_22  and  N_23 
REMARK    6  A    between atoms: N_23  and  C_24 
REMARK    7  A    between atoms: C_24  and  C_25 
ROOT
HETATM    1  C   UNL     1       6.821  29.275  55.778  1.00  0.00     0.240 C 
ENDROOT
BRANCH   1   2
HETATM    2  N   UNL     1       6.270  27.946  55.582  1.00  0.00    -0.259 N 
HETATM    3  C   UNL     1       5.071  27.708  54.989  1.00  0.00     0.326 A 
HETATM    4  N   UNL     1       4.797  26.369  55.066  1.00  0.00    -0.321 N 
HETATM    5  O   UNL     1       4.350  28.521  54.440  1.00  0.00    -0.247 OA
HETATM    6  C   UNL     1       5.785  25.633  55.830  1.00  0.00     0.140 A 
HETATM    7  H   UNL     1       3.924  25.989  54.724  1.00  0.00     0.165 HD
HETATM    8  C   UNL     1       5.136  25.090  57.105  1.00  0.00     0.054 C 
HETATM    9  C   UNL     1       6.738  26.807  56.178  1.00  0.00     0.261 A 
HETATM   10  O   UNL     1       7.726  26.736  56.898  1.00  0.00    -0.270 OA
BRANCH   6  11
HETATM   11  C   UNL     1       6.493  24.557  55.013  1.00  0.00    -0.020 A 
HETATM   12  C   UNL     1       6.912  23.366  55.640  1.00  0.00     0.022 A 
HETATM   13  C   UNL     1       7.566  22.341  54.932  1.00  0.00    -0.025 A 
HETATM   14  C   UNL     1       7.819  22.507  53.555  1.00  0.00    -0.026 A 
HETATM   15  C   UNL     1       7.973  21.157  55.568  1.00  0.00     0.012 A 
HETATM   16  C   UNL     1       7.413  23.691  52.926  1.00  0.00     0.013 A 
HETATM   17  C   UNL     1       8.474  21.484  52.849  1.00  0.00     0.012 A 
HETATM   18  C   UNL     1       6.760  24.700  53.643  1.00  0.00     0.011 A 
HETATM   19  C   UNL     1       8.871  20.312  53.495  1.00  0.00     0.001 A 
HETATM   20  C   UNL     1       8.619  20.148  54.853  1.00  0.00     0.001 A 
ENDBRANCH   6  11
ENDBRANCH   1   2
BRANCH   1  21
HETATM   21  C   UNL     1       6.159  30.061  56.911  1.00  0.00     0.240 C 
HETATM   22  N   UNL     1       6.369  31.436  56.892  1.00  0.00    -0.325 N 
HETATM   23  H   UNL     1       6.608  31.766  55.966  1.00  0.00     0.169 HD
HETATM   24  O   UNL     1       5.551  29.476  57.809  1.00  0.00    -0.271 OA
BRANCH  22  25
HETATM   25  C   UNL     1       5.474  32.289  57.591  1.00  0.00     0.050 A 
HETATM   26  C   UNL     1       5.529  32.598  58.964  1.00  0.00     0.058 A 
HETATM   27  C   UNL     1       4.552  33.461  59.502  1.00  0.00     0.019 A 
HETATM   28  C   UNL     1       3.551  34.016  58.704  1.00  0.00     0.001 A 
HETATM   29  C   UNL     1       3.525  33.740  57.344  1.00  0.00     0.002 A 
HETATM   30  C   UNL     1       4.485  32.892  56.791  1.00  0.00     0.030 A 
BRANCH  26  31
HETATM   31  C   UNL     1       6.636  32.259  59.904  1.00  0.00     0.254 C 
HETATM   32  N   UNL     1       6.311  31.871  61.174  1.00  0.00    -0.351 N 
HETATM   33  H   UNL     1       5.344  31.950  61.480  1.00  0.00     0.163 HD
HETATM   34  O   UNL     1       7.797  32.394  59.526  1.00  0.00    -0.268 OA
BRANCH  32  35
HETATM   35  C   UNL     1       7.305  31.639  62.194  1.00  0.00     0.187 C 
BRANCH  35  36
HETATM   36  C   UNL     1       6.979  32.454  63.391  1.00  0.00     0.070 A 
HETATM   37  O   UNL     1       5.659  32.579  63.720  1.00  0.00    -0.325 OA
HETATM   38  C   UNL     1       5.597  33.385  64.811  1.00  0.00     0.142 A 
HETATM   39  C   UNL     1       6.859  33.778  65.192  1.00  0.00     0.027 A 
HETATM   40  C   UNL     1       7.753  33.174  64.278  1.00  0.00     0.036 A 
ENDBRANCH  35  36
ENDBRANCH  32  35
ENDBRANCH  26  31
ENDBRANCH  22  25
ENDBRANCH   1  21
TORSDOF 7
ENDMDL
MODEL 2
REMARK VINA RESULT:     -11.4      2.272      4.572
REMARK  7 active torsions:
REMARK  status: ('A' for Active; 'I' for Inactive)
REMARK    1  A    between atoms: C_2  and  C_3 
REMARK    2  A    between atoms: N_16  and  C_17 
REMARK    3  A    between atoms: C_17  and  C_18 
REMARK       I    between atoms: C_18  and  N_19 
REMARK    4  A    between atoms: N_19  and  C_20 
REMARK    5  A    between atoms: C_21  and  C_22 
REMARK       I    between atoms: C_22  and  N_23 
REMARK    6  A    between atoms: N_23  and  C_24 
REMARK    7  A    between atoms: C_24  and  C_25 
ROOT
HETATM    1  C   UNL     1      10.173  29.852  58.151  1.00  0.00     0.240 C 
ENDROOT
BRANCH   1   2
HETATM    2  N   UNL     1       9.364  29.192  57.143  1.00  0.00    -0.259 N 
HETATM    3  C   UNL     1       9.463  29.445  55.813  1.00  0.00     0.326 A 
HETATM    4  N   UNL     1       8.487  28.747  55.154  1.00  0.00    -0.321 N 
HETATM    5  O   UNL     1      10.292  30.145  55.259  1.00  0.00    -0.247 OA
HETATM    6  C   UNL     1       7.591  28.045  56.052  1.00  0.00     0.140 A 
HETATM    7  H   UNL     1       8.358  28.835  54.155  1.00  0.00     0.165 HD
HETATM    8  C   UNL     1       6.192  28.658  55.951  1.00  0.00     0.054 C 
HETATM    9  C   UNL     1       8.247  28.442  57.400  1.00  0.00     0.261 A 
HETATM   10  O   UNL     1       7.820  28.164  58.513  1.00  0.00    -0.270 OA
BRANCH   6  11
HETATM   11  C   UNL     1       7.599  26.534  55.846  1.00  0.00    -0.020 A 
HETATM   12  C   UNL     1       7.712  26.007  54.544  1.00  0.00     0.022 A 
HETATM   13  C   UNL     1       7.727  24.622  54.298  1.00  0.00    -0.025 A 
HETATM   14  C   UNL     1       7.618  23.728  55.383  1.00  0.00    -0.026 A 
HETATM   15  C   UNL     1       7.848  24.110  52.996  1.00  0.00     0.012 A 
HETATM   16  C   UNL     1       7.496  24.244  56.680  1.00  0.00     0.013 A 
HETATM   17  C   UNL     1       7.630  22.345  55.138  1.00  0.00     0.012 A 
HETATM   18  C   UNL     1       7.487  25.624  56.909  1.00  0.00     0.011 A 
HETATM   19  C   UNL     1       7.752  21.852  53.838  1.00  0.00     0.001 A 
HETATM   20  C   UNL     1       7.862  22.734  52.768  1.00  0.00     0.001 A 
ENDBRANCH   6  11
ENDBRANCH   1   2
BRANCH   1  21
HETATM   21  C   UNL     1       9.457  30.997  58.871  1.00  0.00     0.240 C 
HETATM   22  N   UNL     1       8.411  30.623  59.707  1.00  0.00    -0.325 N 
HETATM   23  H   UNL     1       8.497  29.660  60.008  1.00  0.00     0.169 HD
HETATM   24  O   UNL     1       9.763  32.169  58.642  1.00  0.00    -0.271 OA
BRANCH  22  25
HETATM   25  C   UNL     1       7.987  31.507  60.733  1.00  0.00     0.050 A 
HETATM   26  C   UNL     1       6.954  32.459  60.630  1.00  0.00     0.058 A 
HETATM   27  C   UNL     1       6.664  33.267  61.749  1.00  0.00     0.019 A 
HETATM   28  C   UNL     1       7.369  33.133  62.946  1.00  0.00     0.001 A 
HETATM   29  C   UNL     1       8.359  32.167  63.056  1.00  0.00     0.002 A 
HETATM   30  C   UNL     1       8.657  31.354  61.962  1.00  0.00     0.030 A 
BRANCH  26  31
HETATM   31  C   UNL     1       5.979  32.590  59.508  1.00  0.00     0.254 C 
HETATM   32  N   UNL     1       4.666  32.816  59.814  1.00  0.00    -0.351 N 
HETATM   33  H   UNL     1       4.371  32.756  60.785  1.00  0.00     0.163 HD
HETATM   34  O   UNL     1       6.377  32.435  58.356  1.00  0.00    -0.268 OA
BRANCH  32  35
HETATM   35  C   UNL     1       3.628  32.837  58.812  1.00  0.00     0.187 C 
BRANCH  35  36
HETATM   36  C   UNL     1       3.246  34.243  58.530  1.00  0.00     0.070 A 
HETATM   37  O   UNL     1       1.920  34.558  58.615  1.00  0.00    -0.325 OA
HETATM   38  C   UNL     1       1.802  35.870  58.286  1.00  0.00     0.142 A 
HETATM   39  C   UNL     1       3.034  36.406  57.993  1.00  0.00     0.027 A 
HETATM   40  C   UNL     1       3.969  35.357  58.155  1.00  0.00     0.036 A 
ENDBRANCH  35  36
ENDBRANCH  32  35
ENDBRANCH  26  31
ENDBRANCH  22  25
ENDBRANCH   1  21
TORSDOF 7
ENDMDL
MODEL 3
REMARK VINA RESULT:     -11.2      2.108      2.976
REMARK  7 active torsions:
REMARK  status: ('A' for Active; 'I' for Inactive)
REMARK    1  A    between atoms: C_2  and  C_3 
REMARK    2  A    between atoms: N_16  and  C_17 
REMARK    3  A    between atoms: C_17  and  C_18 
REMARK       I    between atoms: C_18  and  N_19 
REMARK    4  A    between atoms: N_19  and  C_20 
REMARK    5  A    between atoms: C_21  and  C_22 
REMARK       I    between atoms: C_22  and  N_23 
REMARK    6  A    between atoms: N_23  and  C_24 
REMARK    7  A    between atoms: C_24  and  C_25 
ROOT
HETATM    1  C   UNL     1       7.260  28.202  56.698  1.00  0.00     0.240 C 
ENDROOT
BRANCH   1   2
HETATM    2  N   UNL     1       7.166  27.328  55.543  1.00  0.00    -0.259 N 
HETATM    3  C   UNL     1       7.672  27.636  54.321  1.00  0.00     0.326 A 
HETATM    4  N   UNL     1       7.314  26.658  53.433  1.00  0.00    -0.321 N 
HETATM    5  O   UNL     1       8.363  28.597  54.034  1.00  0.00    -0.247 OA
HETATM    6  C   UNL     1       6.435  25.662  54.014  1.00  0.00     0.140 A 
HETATM    7  H   UNL     1       7.553  26.723  52.452  1.00  0.00     0.165 HD
HETATM    8  C   UNL     1       5.062  25.748  53.343  1.00  0.00     0.054 C 
HETATM    9  C   UNL     1       6.356  26.228  55.456  1.00  0.00     0.261 A 
HETATM   10  O   UNL     1       5.658  25.787  56.360  1.00  0.00    -0.270 OA
BRANCH   6  11
HETATM   11  C   UNL     1       7.025  24.256  53.992  1.00  0.00    -0.020 A 
HETATM   12  C   UNL     1       7.355  23.617  55.203  1.00  0.00     0.022 A 
HETATM   13  C   UNL     1       7.899  22.320  55.239  1.00  0.00    -0.025 A 
HETATM   14  C   UNL     1       8.131  21.637  54.028  1.00  0.00    -0.026 A 
HETATM   15  C   UNL     1       8.217  21.692  56.454  1.00  0.00     0.012 A 
HETATM   16  C   UNL     1       7.814  22.268  52.818  1.00  0.00     0.013 A 
HETATM   17  C   UNL     1       8.677  20.342  54.063  1.00  0.00     0.012 A 
HETATM   18  C   UNL     1       7.269  23.557  52.800  1.00  0.00     0.011 A 
HETATM   19  C   UNL     1       8.986  19.731  55.279  1.00  0.00     0.001 A 
HETATM   20  C   UNL     1       8.756  20.405  56.473  1.00  0.00     0.001 A 
ENDBRANCH   6  11
ENDBRANCH   1   2
BRANCH   1  21
HETATM   21  C   UNL     1       6.101  29.193  56.823  1.00  0.00     0.240 C 
HETATM   22  N   UNL     1       6.140  30.279  55.955  1.00  0.00    -0.325 N 
HETATM   23  H   UNL     1       6.703  30.084  55.137  1.00  0.00     0.169 HD
HETATM   24  O   UNL     1       5.246  29.050  57.699  1.00  0.00    -0.271 OA
BRANCH  22  25
HETATM   25  C   UNL     1       4.945  30.990  55.671  1.00  0.00     0.050 A 
HETATM   26  C   UNL     1       4.411  32.047  56.432  1.00  0.00     0.058 A 
HETATM   27  C   UNL     1       3.203  32.642  56.012  1.00  0.00     0.019 A 
HETATM   28  C   UNL     1       2.541  32.211  54.860  1.00  0.00     0.001 A 
HETATM   29  C   UNL     1       3.092  31.195  54.091  1.00  0.00     0.002 A 
HETATM   30  C   UNL     1       4.289  30.598  54.488  1.00  0.00     0.030 A 
BRANCH  26  31
HETATM   31  C   UNL     1       5.085  32.756  57.558  1.00  0.00     0.254 C 
HETATM   32  N   UNL     1       5.383  32.044  58.687  1.00  0.00    -0.351 N 
HETATM   33  H   UNL     1       5.021  31.097  58.780  1.00  0.00     0.163 HD
HETATM   34  O   UNL     1       5.299  33.961  57.457  1.00  0.00    -0.268 OA
BRANCH  32  35
HETATM   35  C   UNL     1       5.922  32.660  59.874  1.00  0.00     0.187 C 
BRANCH  35  36
HETATM   36  C   UNL     1       7.372  32.353  59.971  1.00  0.00     0.070 A 
HETATM   37  O   UNL     1       8.002  31.954  58.827  1.00  0.00    -0.325 OA
HETATM   38  C   UNL     1       9.294  31.697  59.156  1.00  0.00     0.142 A 
HETATM   39  C   UNL     1       9.506  31.928  60.496  1.00  0.00     0.027 A 
HETATM   40  C   UNL     1       8.265  32.357  61.022  1.00  0.00     0.036 A 
ENDBRANCH  35  36
ENDBRANCH  32  35
ENDBRANCH  26  31
ENDBRANCH  22  25
ENDBRANCH   1  21
TORSDOF 7
ENDMDL
MODEL 4
REMARK VINA RESULT:     -11.2      1.869      2.924
REMARK  7 active torsions:
REMARK  status: ('A' for Active; 'I' for Inactive)
REMARK    1  A    between atoms: C_2  and  C_3 
REMARK    2  A    between atoms: N_16  and  C_17 
REMARK    3  A    between atoms: C_17  and  C_18 
REMARK       I    between atoms: C_18  and  N_19 
REMARK    4  A    between atoms: N_19  and  C_20 
REMARK    5  A    between atoms: C_21  and  C_22 
REMARK       I    between atoms: C_22  and  N_23 
REMARK    6  A    between atoms: N_23  and  C_24 
REMARK    7  A    between atoms: C_24  and  C_25 
ROOT
HETATM    1  C   UNL     1       5.289  28.857  56.286  1.00  0.00     0.240 C 
ENDROOT
BRANCH   1   2
HETATM    2  N   UNL     1       6.151  28.000  55.492  1.00  0.00    -0.259 N 
HETATM    3  C   UNL     1       7.396  28.355  55.083  1.00  0.00     0.326 A 
HETATM    4  N   UNL     1       7.889  27.377  54.263  1.00  0.00    -0.321 N 
HETATM    5  O   UNL     1       8.016  29.354  55.401  1.00  0.00    -0.247 OA
HETATM    6  C   UNL     1       6.925  26.328  53.992  1.00  0.00     0.140 A 
HETATM    7  H   UNL     1       8.790  27.471  53.812  1.00  0.00     0.165 HD
HETATM    8  C   UNL     1       6.552  26.358  52.508  1.00  0.00     0.054 C 
HETATM    9  C   UNL     1       5.747  26.863  54.847  1.00  0.00     0.261 A 
HETATM   10  O   UNL     1       4.627  26.372  54.907  1.00  0.00    -0.270 OA
BRANCH   6  11
HETATM   11  C   UNL     1       7.387  24.954  54.466  1.00  0.00    -0.020 A 
HETATM   12  C   UNL     1       7.514  23.901  53.538  1.00  0.00     0.022 A 
HETATM   13  C   UNL     1       7.938  22.616  53.921  1.00  0.00    -0.025 A 
HETATM   14  C   UNL     1       8.240  22.365  55.276  1.00  0.00    -0.026 A 
HETATM   15  C   UNL     1       8.067  21.577  52.985  1.00  0.00     0.012 A 
HETATM   16  C   UNL     1       8.108  23.404  56.206  1.00  0.00     0.013 A 
HETATM   17  C   UNL     1       8.661  21.081  55.660  1.00  0.00     0.012 A 
HETATM   18  C   UNL     1       7.689  24.678  55.808  1.00  0.00     0.011 A 
HETATM   19  C   UNL     1       8.785  20.059  54.716  1.00  0.00     0.001 A 
HETATM   20  C   UNL     1       8.490  20.308  53.380  1.00  0.00     0.001 A 
ENDBRANCH   6  11
ENDBRANCH   1   2
BRANCH   1  21
HETATM   21  C   UNL     1       6.024  30.005  56.981  1.00  0.00     0.240 C 
HETATM   22  N   UNL     1       6.678  29.675  58.163  1.00  0.00    -0.325 N 
HETATM   23  H   UNL     1       6.888  28.685  58.210  1.00  0.00     0.169 HD
HETATM   24  O   UNL     1       5.957  31.153  56.537  1.00  0.00    -0.271 OA
BRANCH  22  25
HETATM   25  C   UNL     1       7.726  30.505  58.637  1.00  0.00     0.050 A 
HETATM   26  C   UNL     1       7.593  31.554  59.568  1.00  0.00     0.058 A 
HETATM   27  C   UNL     1       8.742  32.290  59.927  1.00  0.00     0.019 A 
HETATM   28  C   UNL     1       9.995  31.992  59.389  1.00  0.00     0.001 A 
HETATM   29  C   UNL     1      10.128  30.933  58.503  1.00  0.00     0.002 A 
HETATM   30  C   UNL     1       9.005  30.189  58.139  1.00  0.00     0.030 A 
BRANCH  26  31
HETATM   31  C   UNL     1       6.383  31.867  60.382  1.00  0.00     0.254 C 
HETATM   32  N   UNL     1       6.467  31.747  61.741  1.00  0.00    -0.351 N 
HETATM   33  H   UNL     1       7.300  31.324  62.146  1.00  0.00     0.163 HD
HETATM   34  O   UNL     1       5.341  32.167  59.804  1.00  0.00    -0.268 OA
BRANCH  32  35
HETATM   35  C   UNL     1       5.325  31.908  62.607  1.00  0.00     0.187 C 
BRANCH  35  36
HETATM   36  C   UNL     1       5.733  32.654  63.824  1.00  0.00     0.070 A 
HETATM   37  O   UNL     1       4.747  32.994  64.706  1.00  0.00    -0.325 OA
HETATM   38  C   UNL     1       5.338  33.692  65.710  1.00  0.00     0.142 A 
HETATM   39  C   UNL     1       6.692  33.803  65.489  1.00  0.00     0.027 A 
HETATM   40  C   UNL     1       6.949  33.129  64.273  1.00  0.00     0.036 A 
ENDBRANCH  35  36
ENDBRANCH  32  35
ENDBRANCH  26  31
ENDBRANCH  22  25
ENDBRANCH   1  21
TORSDOF 7
ENDMDL
MODEL 5
REMARK VINA RESULT:     -11.1      1.789      3.521
REMARK  7 active torsions:
REMARK  status: ('A' for Active; 'I' for Inactive)
REMARK    1  A    between atoms: C_2  and  C_3 
REMARK    2  A    between atoms: N_16  and  C_17 
REMARK    3  A    between atoms: C_17  and  C_18 
REMARK       I    between atoms: C_18  and  N_19 
REMARK    4  A    between atoms: N_19  and  C_20 
REMARK    5  A    between atoms: C_21  and  C_22 
REMARK       I    between atoms: C_22  and  N_23 
REMARK    6  A    between atoms: N_23  and  C_24 
REMARK    7  A    between atoms: C_24  and  C_25 
ROOT
HETATM    1  C   UNL     1       8.213  29.296  56.511  1.00  0.00     0.240 C 
ENDROOT
BRANCH   1   2
HETATM    2  N   UNL     1       7.372  28.161  56.178  1.00  0.00    -0.259 N 
HETATM    3  C   UNL     1       6.154  28.273  55.588  1.00  0.00     0.326 A 
HETATM    4  N   UNL     1       5.579  27.033  55.519  1.00  0.00    -0.321 N 
HETATM    5  O   UNL     1       5.642  29.287  55.149  1.00  0.00    -0.247 OA
HETATM    6  C   UNL     1       6.367  26.008  56.173  1.00  0.00     0.140 A 
HETATM    7  H   UNL     1       4.644  26.905  55.154  1.00  0.00     0.165 HD
HETATM    8  C   UNL     1       5.604  25.484  57.392  1.00  0.00     0.054 C 
HETATM    9  C   UNL     1       7.562  26.884  56.631  1.00  0.00     0.261 A 
HETATM   10  O   UNL     1       8.503  26.507  57.317  1.00  0.00    -0.270 OA
BRANCH   6  11
HETATM   11  C   UNL     1       6.812  24.899  55.225  1.00  0.00    -0.020 A 
HETATM   12  C   UNL     1       7.195  23.647  55.744  1.00  0.00     0.022 A 
HETATM   13  C   UNL     1       7.611  22.590  54.914  1.00  0.00    -0.025 A 
HETATM   14  C   UNL     1       7.656  22.786  53.519  1.00  0.00    -0.026 A 
HETATM   15  C   UNL     1       7.984  21.345  55.445  1.00  0.00     0.012 A 
HETATM   16  C   UNL     1       7.285  24.031  52.994  1.00  0.00     0.013 A 
HETATM   17  C   UNL     1       8.073  21.732  52.689  1.00  0.00     0.012 A 
HETATM   18  C   UNL     1       6.869  25.071  53.833  1.00  0.00     0.011 A 
HETATM   19  C   UNL     1       8.439  20.499  53.232  1.00  0.00     0.001 A 
HETATM   20  C   UNL     1       8.394  20.305  54.608  1.00  0.00     0.001 A 
ENDBRANCH   6  11
ENDBRANCH   1   2
BRANCH   1  21
HETATM   21  C   UNL     1       8.312  29.577  58.012  1.00  0.00     0.240 C 
HETATM   22  N   UNL     1       8.861  30.806  58.361  1.00  0.00    -0.325 N 
HETATM   23  H   UNL     1       8.783  31.478  57.608  1.00  0.00     0.169 HD
HETATM   24  O   UNL     1       7.987  28.717  58.834  1.00  0.00    -0.271 OA
BRANCH  22  25
HETATM   25  C   UNL     1       8.598  31.350  59.645  1.00  0.00     0.050 A 
HETATM   26  C   UNL     1       7.432  32.042  60.027  1.00  0.00     0.058 A 
HETATM   27  C   UNL     1       7.335  32.526  61.347  1.00  0.00     0.019 A 
HETATM   28  C   UNL     1       8.359  32.325  62.274  1.00  0.00     0.001 A 
HETATM   29  C   UNL     1       9.489  31.609  61.905  1.00  0.00     0.002 A 
HETATM   30  C   UNL     1       9.602  31.116  60.604  1.00  0.00     0.030 A 
BRANCH  26  31
HETATM   31  C   UNL     1       6.175  32.164  59.233  1.00  0.00     0.254 C 
HETATM   32  N   UNL     1       4.984  31.951  59.869  1.00  0.00    -0.351 N 
HETATM   33  H   UNL     1       4.993  31.589  60.820  1.00  0.00     0.163 HD
HETATM   34  O   UNL     1       6.254  32.395  58.029  1.00  0.00    -0.268 OA
BRANCH  32  35
HETATM   35  C   UNL     1       3.723  31.925  59.169  1.00  0.00     0.187 C 
BRANCH  35  36
HETATM   36  C   UNL     1       3.111  33.277  59.211  1.00  0.00     0.070 A 
HETATM   37  O   UNL     1       2.345  33.581  60.300  1.00  0.00    -0.325 OA
HETATM   38  C   UNL     1       1.864  34.837  60.108  1.00  0.00     0.142 A 
HETATM   39  C   UNL     1       2.313  35.347  58.912  1.00  0.00     0.027 A 
HETATM   40  C   UNL     1       3.122  34.342  58.333  1.00  0.00     0.036 A 
ENDBRANCH  35  36
ENDBRANCH  32  35
ENDBRANCH  26  31
ENDBRANCH  22  25
ENDBRANCH   1  21
TORSDOF 7
ENDMDL
MODEL 6
REMARK VINA RESULT:     -10.7      5.833      8.858
REMARK  7 active torsions:
REMARK  status: ('A' for Active; 'I' for Inactive)
REMARK    1  A    between atoms: C_2  and  C_3 
REMARK    2  A    between atoms: N_16  and  C_17 
REMARK    3  A    between atoms: C_17  and  C_18 
REMARK       I    between atoms: C_18  and  N_19 
REMARK    4  A    between atoms: N_19  and  C_20 
REMARK    5  A    between atoms: C_21  and  C_22 
REMARK       I    between atoms: C_22  and  N_23 
REMARK    6  A    between atoms: N_23  and  C_24 
REMARK    7  A    between atoms: C_24  and  C_25 
ROOT
HETATM    1  C   UNL     1       5.712  28.739  51.924  1.00  0.00     0.240 C 
ENDROOT
BRANCH   1   2
HETATM    2  N   UNL     1       5.725  27.700  52.938  1.00  0.00    -0.259 N 
HETATM    3  C   UNL     1       4.613  27.265  53.585  1.00  0.00     0.326 A 
HETATM    4  N   UNL     1       4.984  26.371  54.552  1.00  0.00    -0.321 N 
HETATM    5  O   UNL     1       3.459  27.573  53.348  1.00  0.00    -0.247 OA
HETATM    6  C   UNL     1       6.422  26.232  54.671  1.00  0.00     0.140 A 
HETATM    7  H   UNL     1       4.306  25.963  55.182  1.00  0.00     0.165 HD
HETATM    8  C   UNL     1       6.870  26.768  56.033  1.00  0.00     0.054 C 
HETATM    9  C   UNL     1       6.849  27.214  53.549  1.00  0.00     0.261 A 
HETATM   10  O   UNL     1       8.000  27.533  53.277  1.00  0.00    -0.270 OA
BRANCH   6  11
HETATM   11  C   UNL     1       6.912  24.815  54.396  1.00  0.00    -0.020 A 
HETATM   12  C   UNL     1       7.267  23.976  55.471  1.00  0.00     0.022 A 
HETATM   13  C   UNL     1       7.722  22.659  55.272  1.00  0.00    -0.025 A 
HETATM   14  C   UNL     1       7.835  22.160  53.958  1.00  0.00    -0.026 A 
HETATM   15  C   UNL     1       8.067  21.833  56.354  1.00  0.00     0.012 A 
HETATM   16  C   UNL     1       7.492  22.990  52.883  1.00  0.00     0.013 A 
HETATM   17  C   UNL     1       8.291  20.846  53.759  1.00  0.00     0.012 A 
HETATM   18  C   UNL     1       7.037  24.296  53.097  1.00  0.00     0.011 A 
HETATM   19  C   UNL     1       8.629  20.036  54.845  1.00  0.00     0.001 A 
HETATM   20  C   UNL     1       8.515  20.529  56.141  1.00  0.00     0.001 A 
ENDBRANCH   6  11
ENDBRANCH   1   2
BRANCH   1  21
HETATM   21  C   UNL     1       5.308  28.244  50.533  1.00  0.00     0.240 C 
HETATM   22  N   UNL     1       4.338  27.249  50.506  1.00  0.00    -0.325 N 
HETATM   23  H   UNL     1       3.781  27.245  51.351  1.00  0.00     0.169 HD
HETATM   24  O   UNL     1       5.880  28.668  49.526  1.00  0.00    -0.271 OA
BRANCH  22  25
HETATM   25  C   UNL     1       3.583  27.040  49.322  1.00  0.00     0.050 A 
HETATM   26  C   UNL     1       2.635  27.929  48.779  1.00  0.00     0.058 A 
HETATM   27  C   UNL     1       1.965  27.562  47.593  1.00  0.00     0.019 A 
HETATM   28  C   UNL     1       2.232  26.352  46.951  1.00  0.00     0.001 A 
HETATM   29  C   UNL     1       3.196  25.497  47.468  1.00  0.00     0.002 A 
HETATM   30  C   UNL     1       3.873  25.845  48.638  1.00  0.00     0.030 A 
BRANCH  26  31
HETATM   31  C   UNL     1       2.383  29.332  49.219  1.00  0.00     0.254 C 
HETATM   32  N   UNL     1       2.728  30.348  48.372  1.00  0.00    -0.351 N 
HETATM   33  H   UNL     1       3.263  30.129  47.535  1.00  0.00     0.163 HD
HETATM   34  O   UNL     1       1.927  29.528  50.343  1.00  0.00    -0.268 OA
BRANCH  32  35
HETATM   35  C   UNL     1       2.639  31.738  48.749  1.00  0.00     0.187 C 
BRANCH  35  36
HETATM   36  C   UNL     1       3.989  32.237  49.110  1.00  0.00     0.070 A 
HETATM   37  O   UNL     1       4.509  31.822  50.303  1.00  0.00    -0.325 OA
HETATM   38  C   UNL     1       5.719  32.423  50.439  1.00  0.00     0.142 A 
HETATM   39  C   UNL     1       5.987  33.218  49.349  1.00  0.00     0.027 A 
HETATM   40  C   UNL     1       4.872  33.094  48.487  1.00  0.00     0.036 A 
ENDBRANCH  35  36
ENDBRANCH  32  35
ENDBRANCH  26  31
ENDBRANCH  22  25
ENDBRANCH   1  21
TORSDOF 7
ENDMDL
MODEL 7
REMARK VINA RESULT:     -10.7      2.330      3.563
REMARK  7 active torsions:
REMARK  status: ('A' for Active; 'I' for Inactive)
REMARK    1  A    between atoms: C_2  and  C_3 
REMARK    2  A    between atoms: N_16  and  C_17 
REMARK    3  A    between atoms: C_17  and  C_18 
REMARK       I    between atoms: C_18  and  N_19 
REMARK    4  A    between atoms: N_19  and  C_20 
REMARK    5  A    between atoms: C_21  and  C_22 
REMARK       I    between atoms: C_22  and  N_23 
REMARK    6  A    between atoms: N_23  and  C_24 
REMARK    7  A    between atoms: C_24  and  C_25 
ROOT
HETATM    1  C   UNL     1       6.014  28.442  55.772  1.00  0.00     0.240 C 
ENDROOT
BRANCH   1   2
HETATM    2  N   UNL     1       6.612  27.521  54.823  1.00  0.00    -0.259 N 
HETATM    3  C   UNL     1       7.777  27.765  54.168  1.00  0.00     0.326 A 
HETATM    4  N   UNL     1       7.999  26.758  53.268  1.00  0.00    -0.321 N 
HETATM    5  O   UNL     1       8.540  28.696  54.350  1.00  0.00    -0.247 OA
HETATM    6  C   UNL     1       6.906  25.808  53.203  1.00  0.00     0.140 A 
HETATM    7  H   UNL     1       8.794  26.775  52.643  1.00  0.00     0.165 HD
HETATM    8  C   UNL     1       6.243  25.895  51.826  1.00  0.00     0.054 C 
HETATM    9  C   UNL     1       5.981  26.436  54.277  1.00  0.00     0.261 A 
HETATM   10  O   UNL     1       4.855  26.051  54.566  1.00  0.00    -0.270 OA
BRANCH   6  11
HETATM   11  C   UNL     1       7.322  24.389  53.578  1.00  0.00    -0.020 A 
HETATM   12  C   UNL     1       7.547  24.060  54.929  1.00  0.00     0.022 A 
HETATM   13  C   UNL     1       7.929  22.767  55.329  1.00  0.00    -0.025 A 
HETATM   14  C   UNL     1       8.101  21.766  54.351  1.00  0.00    -0.026 A 
HETATM   15  C   UNL     1       8.143  22.452  56.681  1.00  0.00     0.012 A 
HETATM   16  C   UNL     1       7.888  22.086  53.004  1.00  0.00     0.013 A 
HETATM   17  C   UNL     1       8.485  20.475  54.750  1.00  0.00     0.012 A 
HETATM   18  C   UNL     1       7.504  23.377  52.623  1.00  0.00     0.011 A 
HETATM   19  C   UNL     1       8.694  20.177  56.098  1.00  0.00     0.001 A 
HETATM   20  C   UNL     1       8.522  21.164  57.062  1.00  0.00     0.001 A 
ENDBRANCH   6  11
ENDBRANCH   1   2
BRANCH   1  21
HETATM   21  C   UNL     1       6.927  28.807  56.944  1.00  0.00     0.240 C 
HETATM   22  N   UNL     1       7.588  30.026  56.837  1.00  0.00    -0.325 N 
HETATM   23  H   UNL     1       7.112  30.655  56.203  1.00  0.00     0.169 HD
HETATM   24  O   UNL     1       7.104  28.015  57.872  1.00  0.00    -0.271 OA
BRANCH  22  25
HETATM   25  C   UNL     1       8.082  30.658  58.007  1.00  0.00     0.050 A 
HETATM   26  C   UNL     1       7.404  31.627  58.773  1.00  0.00     0.058 A 
HETATM   27  C   UNL     1       8.046  32.162  59.909  1.00  0.00     0.019 A 
HETATM   28  C   UNL     1       9.323  31.744  60.289  1.00  0.00     0.001 A 
HETATM   29  C   UNL     1       9.970  30.760  59.554  1.00  0.00     0.002 A 
HETATM   30  C   UNL     1       9.350  30.215  58.430  1.00  0.00     0.030 A 
BRANCH  26  31
HETATM   31  C   UNL     1       5.976  32.030  58.627  1.00  0.00     0.254 C 
HETATM   32  N   UNL     1       5.037  31.369  59.370  1.00  0.00    -0.351 N 
HETATM   33  H   UNL     1       5.318  30.543  59.895  1.00  0.00     0.163 HD
HETATM   34  O   UNL     1       5.685  32.898  57.808  1.00  0.00    -0.268 OA
BRANCH  32  35
HETATM   35  C   UNL     1       3.621  31.597  59.215  1.00  0.00     0.187 C 
BRANCH  35  36
HETATM   36  C   UNL     1       3.168  32.579  60.232  1.00  0.00     0.070 A 
HETATM   37  O   UNL     1       2.277  33.531  59.826  1.00  0.00    -0.325 OA
HETATM   38  C   UNL     1       2.035  34.330  60.897  1.00  0.00     0.142 A 
HETATM   39  C   UNL     1       2.755  33.904  61.989  1.00  0.00     0.027 A 
HETATM   40  C   UNL     1       3.484  32.769  61.561  1.00  0.00     0.036 A 
ENDBRANCH  35  36
ENDBRANCH  32  35
ENDBRANCH  26  31
ENDBRANCH  22  25
ENDBRANCH   1  21
TORSDOF 7
ENDMDL
MODEL 8
REMARK VINA RESULT:     -10.7      2.149      4.867
REMARK  7 active torsions:
REMARK  status: ('A' for Active; 'I' for Inactive)
REMARK    1  A    between atoms: C_2  and  C_3 
REMARK    2  A    between atoms: N_16  and  C_17 
REMARK    3  A    between atoms: C_17  and  C_18 
REMARK       I    between atoms: C_18  and  N_19 
REMARK    4  A    between atoms: N_19  and  C_20 
REMARK    5  A    between atoms: C_21  and  C_22 
REMARK       I    between atoms: C_22  and  N_23 
REMARK    6  A    between atoms: N_23  and  C_24 
REMARK    7  A    between atoms: C_24  and  C_25 
ROOT
HETATM    1  C   UNL     1       8.913  28.914  57.258  1.00  0.00     0.240 C 
ENDROOT
BRANCH   1   2
HETATM    2  N   UNL     1       7.948  28.044  56.612  1.00  0.00    -0.259 N 
HETATM    3  C   UNL     1       7.022  28.477  55.719  1.00  0.00     0.326 A 
HETATM    4  N   UNL     1       6.200  27.432  55.390  1.00  0.00    -0.321 N 
HETATM    5  O   UNL     1       6.928  29.593  55.241  1.00  0.00    -0.247 OA
HETATM    6  C   UNL     1       6.484  26.230  56.150  1.00  0.00     0.140 A 
HETATM    7  H   UNL     1       5.410  27.557  54.772  1.00  0.00     0.165 HD
HETATM    8  C   UNL     1       5.295  25.917  57.062  1.00  0.00     0.054 C 
HETATM    9  C   UNL     1       7.674  26.758  56.992  1.00  0.00     0.261 A 
HETATM   10  O   UNL     1       8.252  26.141  57.878  1.00  0.00    -0.270 OA
BRANCH   6  11
HETATM   11  C   UNL     1       6.892  25.051  55.274  1.00  0.00    -0.020 A 
HETATM   12  C   UNL     1       7.135  23.794  55.861  1.00  0.00     0.022 A 
HETATM   13  C   UNL     1       7.512  22.673  55.099  1.00  0.00    -0.025 A 
HETATM   14  C   UNL     1       7.659  22.808  53.703  1.00  0.00    -0.026 A 
HETATM   15  C   UNL     1       7.744  21.425  55.697  1.00  0.00     0.012 A 
HETATM   16  C   UNL     1       7.428  24.056  53.111  1.00  0.00     0.013 A 
HETATM   17  C   UNL     1       8.037  21.689  52.941  1.00  0.00     0.012 A 
HETATM   18  C   UNL     1       7.050  25.160  53.883  1.00  0.00     0.011 A 
HETATM   19  C   UNL     1       8.264  20.454  53.551  1.00  0.00     0.001 A 
HETATM   20  C   UNL     1       8.116  20.322  54.927  1.00  0.00     0.001 A 
ENDBRANCH   6  11
ENDBRANCH   1   2
BRANCH   1  21
HETATM   21  C   UNL     1       8.329  29.751  58.398  1.00  0.00     0.240 C 
HETATM   22  N   UNL     1       7.766  30.967  58.027  1.00  0.00    -0.325 N 
HETATM   23  H   UNL     1       7.493  30.971  57.052  1.00  0.00     0.169 HD
HETATM   24  O   UNL     1       8.435  29.377  59.568  1.00  0.00    -0.271 OA
BRANCH  22  25
HETATM   25  C   UNL     1       6.829  31.595  58.887  1.00  0.00     0.050 A 
HETATM   26  C   UNL     1       5.429  31.592  58.728  1.00  0.00     0.058 A 
HETATM   27  C   UNL     1       4.638  32.275  59.675  1.00  0.00     0.019 A 
HETATM   28  C   UNL     1       5.213  32.937  60.762  1.00  0.00     0.001 A 
HETATM   29  C   UNL     1       6.590  32.903  60.937  1.00  0.00     0.002 A 
HETATM   30  C   UNL     1       7.389  32.229  60.013  1.00  0.00     0.030 A 
BRANCH  26  31
HETATM   31  C   UNL     1       4.651  30.774  57.753  1.00  0.00     0.254 C 
HETATM   32  N   UNL     1       3.685  31.396  57.012  1.00  0.00    -0.351 N 
HETATM   33  H   UNL     1       3.435  32.356  57.236  1.00  0.00     0.163 HD
HETATM   34  O   UNL     1       4.864  29.566  57.689  1.00  0.00    -0.268 OA
BRANCH  32  35
HETATM   35  C   UNL     1       2.797  30.676  56.132  1.00  0.00     0.187 C 
BRANCH  35  36
HETATM   36  C   UNL     1       3.195  30.921  54.723  1.00  0.00     0.070 A 
HETATM   37  O   UNL     1       2.889  32.142  54.193  1.00  0.00    -0.325 OA
HETATM   38  C   UNL     1       3.309  32.129  52.901  1.00  0.00     0.142 A 
HETATM   39  C   UNL     1       3.884  30.918  52.593  1.00  0.00     0.027 A 
HETATM   40  C   UNL     1       3.815  30.138  53.771  1.00  0.00     0.036 A 
ENDBRANCH  35  36
ENDBRANCH  32  35
ENDBRANCH  26  31
ENDBRANCH  22  25
ENDBRANCH   1  21
TORSDOF 7
ENDMDL
MODEL 9
REMARK VINA RESULT:     -10.7      5.121      9.141
REMARK  7 active torsions:
REMARK  status: ('A' for Active; 'I' for Inactive)
REMARK    1  A    between atoms: C_2  and  C_3 
REMARK    2  A    between atoms: N_16  and  C_17 
REMARK    3  A    between atoms: C_17  and  C_18 
REMARK       I    between atoms: C_18  and  N_19 
REMARK    4  A    between atoms: N_19  and  C_20 
REMARK    5  A    between atoms: C_21  and  C_22 
REMARK       I    between atoms: C_22  and  N_23 
REMARK    6  A    between atoms: N_23  and  C_24 
REMARK    7  A    between atoms: C_24  and  C_25 
ROOT
HETATM    1  C   UNL     1       5.374  29.443  54.561  1.00  0.00     0.240 C 
ENDROOT
BRANCH   1   2
HETATM    2  N   UNL     1       5.817  28.195  55.156  1.00  0.00    -0.259 N 
HETATM    3  C   UNL     1       5.129  27.535  56.123  1.00  0.00     0.326 A 
HETATM    4  N   UNL     1       5.871  26.465  56.544  1.00  0.00    -0.321 N 
HETATM    5  O   UNL     1       4.019  27.802  56.546  1.00  0.00    -0.247 OA
HETATM    6  C   UNL     1       7.183  26.411  55.929  1.00  0.00     0.140 A 
HETATM    7  H   UNL     1       5.556  25.868  57.298  1.00  0.00     0.165 HD
HETATM    8  C   UNL     1       8.253  26.636  57.000  1.00  0.00     0.054 C 
HETATM    9  C   UNL     1       7.071  27.663  55.020  1.00  0.00     0.261 A 
HETATM   10  O   UNL     1       7.966  28.124  54.323  1.00  0.00    -0.270 OA
BRANCH   6  11
HETATM   11  C   UNL     1       7.410  25.142  55.114  1.00  0.00    -0.020 A 
HETATM   12  C   UNL     1       7.611  23.914  55.775  1.00  0.00     0.022 A 
HETATM   13  C   UNL     1       7.823  22.714  55.071  1.00  0.00    -0.025 A 
HETATM   14  C   UNL     1       7.842  22.736  53.662  1.00  0.00    -0.026 A 
HETATM   15  C   UNL     1       8.015  21.496  55.743  1.00  0.00     0.012 A 
HETATM   16  C   UNL     1       7.652  23.954  52.997  1.00  0.00     0.013 A 
HETATM   17  C   UNL     1       8.056  21.538  52.959  1.00  0.00     0.012 A 
HETATM   18  C   UNL     1       7.439  25.139  53.711  1.00  0.00     0.011 A 
HETATM   19  C   UNL     1       8.244  20.335  53.641  1.00  0.00     0.001 A 
HETATM   20  C   UNL     1       8.222  20.313  55.031  1.00  0.00     0.001 A 
ENDBRANCH   6  11
ENDBRANCH   1   2
BRANCH   1  21
HETATM   21  C   UNL     1       4.844  29.296  53.133  1.00  0.00     0.240 C 
HETATM   22  N   UNL     1       5.795  28.990  52.166  1.00  0.00    -0.325 N 
HETATM   23  H   UNL     1       6.614  28.555  52.571  1.00  0.00     0.169 HD
HETATM   24  O   UNL     1       3.658  29.517  52.878  1.00  0.00    -0.271 OA
BRANCH  22  25
HETATM   25  C   UNL     1       5.382  28.405  50.941  1.00  0.00     0.050 A 
HETATM   26  C   UNL     1       5.170  29.088  49.728  1.00  0.00     0.058 A 
HETATM   27  C   UNL     1       4.751  28.352  48.600  1.00  0.00     0.019 A 
HETATM   28  C   UNL     1       4.556  26.971  48.663  1.00  0.00     0.001 A 
HETATM   29  C   UNL     1       4.805  26.296  49.850  1.00  0.00     0.002 A 
HETATM   30  C   UNL     1       5.225  27.006  50.976  1.00  0.00     0.030 A 
BRANCH  26  31
HETATM   31  C   UNL     1       5.524  30.508  49.438  1.00  0.00     0.254 C 
HETATM   32  N   UNL     1       4.641  31.261  48.715  1.00  0.00    -0.351 N 
HETATM   33  H   UNL     1       3.840  30.803  48.287  1.00  0.00     0.163 HD
HETATM   34  O   UNL     1       6.615  30.934  49.807  1.00  0.00    -0.268 OA
BRANCH  32  35
HETATM   35  C   UNL     1       4.940  32.603  48.279  1.00  0.00     0.187 C 
BRANCH  35  36
HETATM   36  C   UNL     1       4.962  32.643  46.795  1.00  0.00     0.070 A 
HETATM   37  O   UNL     1       5.431  33.785  46.210  1.00  0.00    -0.325 OA
HETATM   38  C   UNL     1       5.327  33.613  44.866  1.00  0.00     0.142 A 
HETATM   39  C   UNL     1       4.799  32.375  44.578  1.00  0.00     0.027 A 
HETATM   40  C   UNL     1       4.567  31.746  45.824  1.00  0.00     0.036 A 
ENDBRANCH  35  36
ENDBRANCH  32  35
ENDBRANCH  26  31
ENDBRANCH  22  25
ENDBRANCH   1  21
TORSDOF 7
ENDMDL
MODEL 10
REMARK VINA RESULT:     -10.4      1.819      4.442
REMARK  7 active torsions:
REMARK  status: ('A' for Active; 'I' for Inactive)
REMARK    1  A    between atoms: C_2  and  C_3 
REMARK    2  A    between atoms: N_16  and  C_17 
REMARK    3  A    between atoms: C_17  and  C_18 
REMARK       I    between atoms: C_18  and  N_19 
REMARK    4  A    between atoms: N_19  and  C_20 
REMARK    5  A    between atoms: C_21  and  C_22 
REMARK       I    between atoms: C_22  and  N_23 
REMARK    6  A    between atoms: N_23  and  C_24 
REMARK    7  A    between atoms: C_24  and  C_25 
ROOT
HETATM    1  C   UNL     1       6.370  29.572  56.634  1.00  0.00     0.240 C 
ENDROOT
BRANCH   1   2
HETATM    2  N   UNL     1       6.897  28.572  55.724  1.00  0.00    -0.259 N 
HETATM    3  C   UNL     1       8.112  28.665  55.124  1.00  0.00     0.326 A 
HETATM    4  N   UNL     1       8.253  27.625  54.245  1.00  0.00    -0.321 N 
HETATM    5  O   UNL     1       8.971  29.502  55.333  1.00  0.00    -0.247 OA
HETATM    6  C   UNL     1       7.058  26.812  54.136  1.00  0.00     0.140 A 
HETATM    7  H   UNL     1       9.073  27.538  53.658  1.00  0.00     0.165 HD
HETATM    8  C   UNL     1       6.476  26.956  52.728  1.00  0.00     0.054 C 
HETATM    9  C   UNL     1       6.166  27.562  55.159  1.00  0.00     0.261 A 
HETATM   10  O   UNL     1       4.990  27.318  55.397  1.00  0.00    -0.270 OA
BRANCH   6  11
HETATM   11  C   UNL     1       7.283  25.360  54.544  1.00  0.00    -0.020 A 
HETATM   12  C   UNL     1       7.445  24.372  53.552  1.00  0.00     0.022 A 
HETATM   13  C   UNL     1       7.659  23.019  53.874  1.00  0.00    -0.025 A 
HETATM   14  C   UNL     1       7.705  22.632  55.229  1.00  0.00    -0.026 A 
HETATM   15  C   UNL     1       7.825  22.046  52.875  1.00  0.00     0.012 A 
HETATM   16  C   UNL     1       7.536  23.606  56.222  1.00  0.00     0.013 A 
HETATM   17  C   UNL     1       7.916  21.280  55.551  1.00  0.00     0.012 A 
HETATM   18  C   UNL     1       7.330  24.949  55.885  1.00  0.00     0.011 A 
HETATM   19  C   UNL     1       8.081  20.325  54.546  1.00  0.00     0.001 A 
HETATM   20  C   UNL     1       8.036  20.708  53.210  1.00  0.00     0.001 A 
ENDBRANCH   6  11
ENDBRANCH   1   2
BRANCH   1  21
HETATM   21  C   UNL     1       7.163  29.707  57.936  1.00  0.00     0.240 C 
HETATM   22  N   UNL     1       7.445  31.008  58.338  1.00  0.00    -0.325 N 
HETATM   23  H   UNL     1       6.796  31.673  57.935  1.00  0.00     0.169 HD
HETATM   24  O   UNL     1       7.577  28.706  58.525  1.00  0.00    -0.271 OA
BRANCH  22  25
HETATM   25  C   UNL     1       7.760  31.267  59.697  1.00  0.00     0.050 A 
HETATM   26  C   UNL     1       6.976  32.010  60.601  1.00  0.00     0.058 A 
HETATM   27  C   UNL     1       7.442  32.179  61.921  1.00  0.00     0.019 A 
HETATM   28  C   UNL     1       8.649  31.619  62.345  1.00  0.00     0.001 A 
HETATM   29  C   UNL     1       9.398  30.854  61.462  1.00  0.00     0.002 A 
HETATM   30  C   UNL     1       8.952  30.671  60.152  1.00  0.00     0.030 A 
BRANCH  26  31
HETATM   31  C   UNL     1       5.584  32.496  60.373  1.00  0.00     0.254 C 
HETATM   32  N   UNL     1       5.347  33.300  59.293  1.00  0.00    -0.351 N 
HETATM   33  H   UNL     1       6.139  33.648  58.757  1.00  0.00     0.163 HD
HETATM   34  O   UNL     1       4.714  32.206  61.190  1.00  0.00    -0.268 OA
BRANCH  32  35
HETATM   35  C   UNL     1       4.067  33.920  59.052  1.00  0.00     0.187 C 
BRANCH  35  36
HETATM   36  C   UNL     1       3.536  33.457  57.745  1.00  0.00     0.070 A 
HETATM   37  O   UNL     1       3.795  32.164  57.389  1.00  0.00    -0.325 OA
HETATM   38  C   UNL     1       3.252  31.976  56.159  1.00  0.00     0.142 A 
HETATM   39  C   UNL     1       2.643  33.128  55.718  1.00  0.00     0.027 A 
HETATM   40  C   UNL     1       2.822  34.085  56.745  1.00  0.00     0.036 A 
ENDBRANCH  35  36
ENDBRANCH  32  35
ENDBRANCH  26  31
ENDBRANCH  22  25
ENDBRANCH   1  21
TORSDOF 7
ENDMDL
