MODEL 1
REMARK VINA RESULT:      -8.6      0.000      0.000
REMARK  6 active torsions:
REMARK  status: ('A' for Active; 'I' for Inactive)
REMARK    1  A    between atoms: C_2  and  C_3 
REMARK    2  A    between atoms: C_3  and  O_4 
REMARK    3  A    between atoms: C_3  and  C_12 
REMARK    4  A    between atoms: O_4  and  C_5 
REMARK    5  A    between atoms: C_12  and  N_13 
REMARK       I    between atoms: N_13  and  C_14 
REMARK       I    between atoms: C_14  and  N_15 
REMARK    6  A    between atoms: N_15  and  C_16 
ROOT
HETATM    1  N   UNL     1       7.681  26.889  55.989  1.00  0.00    -0.340 N 
HETATM    2  C   UNL     1       7.831  27.653  57.120  1.00  0.00     0.320 C 
HETATM    3  N   UNL     1       7.875  28.996  56.817  1.00  0.00    -0.307 N 
HETATM    4  O   UNL     1       7.911  27.192  58.250  1.00  0.00    -0.247 OA
HETATM    5  H   UNL     1       7.720  27.365  55.100  1.00  0.00     0.164 HD
HETATM    6  H   UNL     1       7.317  29.277  56.028  1.00  0.00     0.170 HD
ENDROOT
BRANCH   1   7
HETATM    7  C   UNL     1       7.339  25.472  55.959  1.00  0.00     0.156 C 
BRANCH   7   8
HETATM    8  C   UNL     1       7.631  24.654  54.683  1.00  0.00     0.146 C 
BRANCH   8   9
HETATM    9  C   UNL     1       7.115  25.306  53.388  1.00  0.00     0.029 C 
HETATM   10  C   UNL     1       8.018  25.108  52.177  1.00  0.00     0.007 C 
ENDBRANCH   8   9
BRANCH   8  11
HETATM   11  O   UNL     1       6.984  23.381  54.862  1.00  0.00    -0.343 OA
BRANCH  11  12
HETATM   12  C   UNL     1       7.633  22.223  54.524  1.00  0.00     0.091 A 
HETATM   13  C   UNL     1       8.290  21.548  55.567  1.00  0.00     0.067 A 
HETATM   14 CL   UNL     1       8.257  22.151  57.190  1.00  0.00    -0.081 Cl
HETATM   15  C   UNL     1       8.995  20.365  55.325  1.00  0.00     0.026 A 
HETATM   16  C   UNL     1       9.054  19.839  54.038  1.00  0.00     0.002 A 
HETATM   17  C   UNL     1       8.397  20.493  52.997  1.00  0.00     0.003 A 
HETATM   18  C   UNL     1       7.685  21.672  53.239  1.00  0.00     0.038 A 
ENDBRANCH  11  12
ENDBRANCH   8  11
ENDBRANCH   7   8
ENDBRANCH   1   7
BRANCH   3  19
HETATM   19  C   UNL     1       8.295  30.008  57.711  1.00  0.00     0.059 A 
HETATM   20  C   UNL     1       9.648  30.383  57.773  1.00  0.00    -0.032 A 
HETATM   21  C   UNL     1      10.684  29.828  56.840  1.00  0.00     0.050 C 
HETATM   22  C   UNL     1      10.030  31.348  58.715  1.00  0.00     0.028 A 
HETATM   23  C   UNL     1       9.072  31.894  59.557  1.00  0.00     0.117 A 
HETATM   24  N   UNL     1       7.771  31.554  59.524  1.00  0.00    -0.271 NA
HETATM   25  C   UNL     1       7.412  30.627  58.601  1.00  0.00     0.146 A 
ENDBRANCH   3  19
TORSDOF 6
ENDMDL
MODEL 2
REMARK VINA RESULT:      -8.3      2.647      8.609
REMARK  6 active torsions:
REMARK  status: ('A' for Active; 'I' for Inactive)
REMARK    1  A    between atoms: C_2  and  C_3 
REMARK    2  A    between atoms: C_3  and  O_4 
REMARK    3  A    between atoms: C_3  and  C_12 
REMARK    4  A    between atoms: O_4  and  C_5 
REMARK    5  A    between atoms: C_12  and  N_13 
REMARK       I    between atoms: N_13  and  C_14 
REMARK       I    between atoms: C_14  and  N_15 
REMARK    6  A    between atoms: N_15  and  C_16 
ROOT
HETATM    1  N   UNL     1       7.032  25.162  57.269  1.00  0.00    -0.340 N 
HETATM    2  C   UNL     1       7.875  24.328  56.576  1.00  0.00     0.320 C 
HETATM    3  N   UNL     1       7.171  23.449  55.784  1.00  0.00    -0.307 N 
HETATM    4  O   UNL     1       9.095  24.371  56.655  1.00  0.00    -0.247 OA
HETATM    5  H   UNL     1       6.042  24.980  57.203  1.00  0.00     0.164 HD
HETATM    6  H   UNL     1       6.309  23.805  55.406  1.00  0.00     0.170 HD
ENDROOT
BRANCH   1   7
HETATM    7  C   UNL     1       7.430  26.368  57.987  1.00  0.00     0.156 C 
BRANCH   7   8
HETATM    8  C   UNL     1       7.174  27.747  57.342  1.00  0.00     0.146 C 
BRANCH   8   9
HETATM    9  C   UNL     1       6.580  27.675  55.924  1.00  0.00     0.029 C 
HETATM   10  C   UNL     1       7.583  27.926  54.805  1.00  0.00     0.007 C 
ENDBRANCH   8   9
BRANCH   8  11
HETATM   11  O   UNL     1       8.449  28.411  57.289  1.00  0.00    -0.343 OA
BRANCH  11  12
HETATM   12  C   UNL     1       8.650  29.576  57.979  1.00  0.00     0.091 A 
HETATM   13  C   UNL     1       9.906  30.187  57.821  1.00  0.00     0.067 A 
HETATM   14 CL   UNL     1      11.116  29.502  56.789  1.00  0.00    -0.081 Cl
HETATM   15  C   UNL     1      10.219  31.372  58.494  1.00  0.00     0.026 A 
HETATM   16  C   UNL     1       9.282  31.963  59.337  1.00  0.00     0.002 A 
HETATM   17  C   UNL     1       8.029  31.373  59.495  1.00  0.00     0.003 A 
HETATM   18  C   UNL     1       7.713  30.192  58.815  1.00  0.00     0.038 A 
ENDBRANCH  11  12
ENDBRANCH   8  11
ENDBRANCH   7   8
ENDBRANCH   1   7
BRANCH   3  19
HETATM   19  C   UNL     1       7.724  22.299  55.174  1.00  0.00     0.059 A 
HETATM   20  C   UNL     1       7.886  22.244  53.779  1.00  0.00    -0.032 A 
HETATM   21  C   UNL     1       7.595  23.415  52.885  1.00  0.00     0.050 C 
HETATM   22  C   UNL     1       8.382  21.062  53.211  1.00  0.00     0.028 A 
HETATM   23  C   UNL     1       8.689  19.989  54.034  1.00  0.00     0.117 A 
HETATM   24  N   UNL     1       8.542  20.009  55.371  1.00  0.00    -0.271 NA
HETATM   25  C   UNL     1       8.071  21.161  55.910  1.00  0.00     0.146 A 
ENDBRANCH   3  19
TORSDOF 6
ENDMDL
MODEL 3
REMARK VINA RESULT:      -8.3      4.606      7.690
REMARK  6 active torsions:
REMARK  status: ('A' for Active; 'I' for Inactive)
REMARK    1  A    between atoms: C_2  and  C_3 
REMARK    2  A    between atoms: C_3  and  O_4 
REMARK    3  A    between atoms: C_3  and  C_12 
REMARK    4  A    between atoms: O_4  and  C_5 
REMARK    5  A    between atoms: C_12  and  N_13 
REMARK       I    between atoms: N_13  and  C_14 
REMARK       I    between atoms: C_14  and  N_15 
REMARK    6  A    between atoms: N_15  and  C_16 
ROOT
HETATM    1  N   UNL     1       6.566  25.967  51.352  1.00  0.00    -0.340 N 
HETATM    2  C   UNL     1       5.375  26.502  50.924  1.00  0.00     0.320 C 
HETATM    3  N   UNL     1       5.127  26.185  49.608  1.00  0.00    -0.307 N 
HETATM    4  O   UNL     1       4.635  27.172  51.631  1.00  0.00    -0.247 OA
HETATM    5  H   UNL     1       7.143  25.511  50.662  1.00  0.00     0.164 HD
HETATM    6  H   UNL     1       5.471  25.287  49.309  1.00  0.00     0.170 HD
ENDROOT
BRANCH   1   7
HETATM    7  C   UNL     1       7.010  25.882  52.738  1.00  0.00     0.156 C 
BRANCH   7   8
HETATM    8  C   UNL     1       6.483  24.735  53.628  1.00  0.00     0.146 C 
BRANCH   8   9
HETATM    9  C   UNL     1       5.439  25.178  54.668  1.00  0.00     0.029 C 
HETATM   10  C   UNL     1       6.028  25.708  55.969  1.00  0.00     0.007 C 
ENDBRANCH   8   9
BRANCH   8  11
HETATM   11  O   UNL     1       7.629  24.193  54.308  1.00  0.00    -0.343 OA
BRANCH  11  12
HETATM   12  C   UNL     1       7.899  22.852  54.245  1.00  0.00     0.091 A 
HETATM   13  C   UNL     1       8.241  22.226  55.456  1.00  0.00     0.067 A 
HETATM   14 CL   UNL     1       8.293  23.112  56.944  1.00  0.00    -0.081 Cl
HETATM   15  C   UNL     1       8.550  20.863  55.498  1.00  0.00     0.026 A 
HETATM   16  C   UNL     1       8.525  20.106  54.331  1.00  0.00     0.002 A 
HETATM   17  C   UNL     1       8.178  20.712  53.125  1.00  0.00     0.003 A 
HETATM   18  C   UNL     1       7.860  22.074  53.083  1.00  0.00     0.038 A 
ENDBRANCH  11  12
ENDBRANCH   8  11
ENDBRANCH   7   8
ENDBRANCH   1   7
BRANCH   3  19
HETATM   19  C   UNL     1       4.142  26.805  48.804  1.00  0.00     0.059 A 
HETATM   20  C   UNL     1       3.201  26.028  48.109  1.00  0.00    -0.032 A 
HETATM   21  C   UNL     1       3.112  24.537  48.261  1.00  0.00     0.050 C 
HETATM   22  C   UNL     1       2.280  26.681  47.277  1.00  0.00     0.028 A 
HETATM   23  C   UNL     1       2.331  28.063  47.159  1.00  0.00     0.117 A 
HETATM   24  N   UNL     1       3.221  28.833  47.809  1.00  0.00    -0.271 NA
HETATM   25  C   UNL     1       4.099  28.191  48.619  1.00  0.00     0.146 A 
ENDBRANCH   3  19
TORSDOF 6
ENDMDL
MODEL 4
REMARK VINA RESULT:      -7.9      1.708      2.266
REMARK  6 active torsions:
REMARK  status: ('A' for Active; 'I' for Inactive)
REMARK    1  A    between atoms: C_2  and  C_3 
REMARK    2  A    between atoms: C_3  and  O_4 
REMARK    3  A    between atoms: C_3  and  C_12 
REMARK    4  A    between atoms: O_4  and  C_5 
REMARK    5  A    between atoms: C_12  and  N_13 
REMARK       I    between atoms: N_13  and  C_14 
REMARK       I    between atoms: C_14  and  N_15 
REMARK    6  A    between atoms: N_15  and  C_16 
ROOT
HETATM    1  N   UNL     1       6.871  27.541  54.923  1.00  0.00    -0.340 N 
HETATM    2  C   UNL     1       7.490  28.460  55.734  1.00  0.00     0.320 C 
HETATM    3  N   UNL     1       6.808  28.624  56.919  1.00  0.00    -0.307 N 
HETATM    4  O   UNL     1       8.518  29.051  55.435  1.00  0.00    -0.247 OA
HETATM    5  H   UNL     1       5.978  27.182  55.226  1.00  0.00     0.164 HD
HETATM    6  H   UNL     1       6.345  27.800  57.266  1.00  0.00     0.170 HD
ENDROOT
BRANCH   1   7
HETATM    7  C   UNL     1       7.448  26.936  53.728  1.00  0.00     0.156 C 
BRANCH   7   8
HETATM    8  C   UNL     1       7.143  25.456  53.410  1.00  0.00     0.146 C 
BRANCH   8   9
HETATM    9  C   UNL     1       5.692  25.038  53.708  1.00  0.00     0.029 C 
HETATM   10  C   UNL     1       4.843  24.776  52.471  1.00  0.00     0.007 C 
ENDBRANCH   8   9
BRANCH   8  11
HETATM   11  O   UNL     1       8.037  24.675  54.223  1.00  0.00    -0.343 OA
BRANCH  11  12
HETATM   12  C   UNL     1       8.000  23.308  54.172  1.00  0.00     0.091 A 
HETATM   13  C   UNL     1       7.946  22.638  55.407  1.00  0.00     0.067 A 
HETATM   14 CL   UNL     1       7.908  23.511  56.902  1.00  0.00    -0.081 Cl
HETATM   15  C   UNL     1       7.921  21.242  55.467  1.00  0.00     0.026 A 
HETATM   16  C   UNL     1       7.951  20.493  54.294  1.00  0.00     0.002 A 
HETATM   17  C   UNL     1       7.995  21.144  53.063  1.00  0.00     0.003 A 
HETATM   18  C   UNL     1       8.012  22.542  53.002  1.00  0.00     0.038 A 
ENDBRANCH  11  12
ENDBRANCH   8  11
ENDBRANCH   7   8
ENDBRANCH   1   7
BRANCH   3  19
HETATM   19  C   UNL     1       7.025  29.683  57.831  1.00  0.00     0.059 A 
HETATM   20  C   UNL     1       6.201  30.820  57.806  1.00  0.00    -0.032 A 
HETATM   21  C   UNL     1       5.001  30.931  56.910  1.00  0.00     0.050 C 
HETATM   22  C   UNL     1       6.488  31.872  58.688  1.00  0.00     0.028 A 
HETATM   23  C   UNL     1       7.573  31.762  59.546  1.00  0.00     0.117 A 
HETATM   24  N   UNL     1       8.381  30.688  59.591  1.00  0.00    -0.271 NA
HETATM   25  C   UNL     1       8.086  29.674  58.741  1.00  0.00     0.146 A 
ENDBRANCH   3  19
TORSDOF 6
ENDMDL
MODEL 5
REMARK VINA RESULT:      -7.9      1.519      2.055
REMARK  6 active torsions:
REMARK  status: ('A' for Active; 'I' for Inactive)
REMARK    1  A    between atoms: C_2  and  C_3 
REMARK    2  A    between atoms: C_3  and  O_4 
REMARK    3  A    between atoms: C_3  and  C_12 
REMARK    4  A    between atoms: O_4  and  C_5 
REMARK    5  A    between atoms: C_12  and  N_13 
REMARK       I    between atoms: N_13  and  C_14 
REMARK       I    between atoms: C_14  and  N_15 
REMARK    6  A    between atoms: N_15  and  C_16 
ROOT
HETATM    1  N   UNL     1       6.911  27.161  55.755  1.00  0.00    -0.340 N 
HETATM    2  C   UNL     1       7.209  27.931  56.853  1.00  0.00     0.320 C 
HETATM    3  N   UNL     1       7.644  29.184  56.484  1.00  0.00    -0.307 N 
HETATM    4  O   UNL     1       7.095  27.546  58.008  1.00  0.00    -0.247 OA
HETATM    5  H   UNL     1       7.129  27.544  54.848  1.00  0.00     0.164 HD
HETATM    6  H   UNL     1       7.232  29.553  55.643  1.00  0.00     0.170 HD
ENDROOT
BRANCH   1   7
HETATM    7  C   UNL     1       6.185  25.896  55.776  1.00  0.00     0.156 C 
BRANCH   7   8
HETATM    8  C   UNL     1       6.955  24.592  56.078  1.00  0.00     0.146 C 
BRANCH   8   9
HETATM    9  C   UNL     1       8.480  24.774  56.179  1.00  0.00     0.029 C 
HETATM   10  C   UNL     1       9.054  24.535  57.569  1.00  0.00     0.007 C 
ENDBRANCH   8   9
BRANCH   8  11
HETATM   11  O   UNL     1       6.656  23.688  55.000  1.00  0.00    -0.343 OA
BRANCH  11  12
HETATM   12  C   UNL     1       7.363  22.524  54.857  1.00  0.00     0.091 A 
HETATM   13  C   UNL     1       8.001  22.329  53.621  1.00  0.00     0.067 A 
HETATM   14 CL   UNL     1       7.906  23.514  52.361  1.00  0.00    -0.081 Cl
HETATM   15  C   UNL     1       8.736  21.167  53.367  1.00  0.00     0.026 A 
HETATM   16  C   UNL     1       8.843  20.182  54.345  1.00  0.00     0.002 A 
HETATM   17  C   UNL     1       8.224  20.368  55.579  1.00  0.00     0.003 A 
HETATM   18  C   UNL     1       7.495  21.534  55.837  1.00  0.00     0.038 A 
ENDBRANCH  11  12
ENDBRANCH   8  11
ENDBRANCH   7   8
ENDBRANCH   1   7
BRANCH   3  19
HETATM   19  C   UNL     1       8.284  30.100  57.351  1.00  0.00     0.059 A 
HETATM   20  C   UNL     1       9.687  30.163  57.407  1.00  0.00    -0.032 A 
HETATM   21  C   UNL     1      10.569  29.364  56.492  1.00  0.00     0.050 C 
HETATM   22  C   UNL     1      10.279  31.044  58.323  1.00  0.00     0.028 A 
HETATM   23  C   UNL     1       9.471  31.813  59.147  1.00  0.00     0.117 A 
HETATM   24  N   UNL     1       8.127  31.774  59.119  1.00  0.00    -0.271 NA
HETATM   25  C   UNL     1       7.565  30.926  58.221  1.00  0.00     0.146 A 
ENDBRANCH   3  19
TORSDOF 6
ENDMDL
MODEL 6
REMARK VINA RESULT:      -7.9      4.103      6.846
REMARK  6 active torsions:
REMARK  status: ('A' for Active; 'I' for Inactive)
REMARK    1  A    between atoms: C_2  and  C_3 
REMARK    2  A    between atoms: C_3  and  O_4 
REMARK    3  A    between atoms: C_3  and  C_12 
REMARK    4  A    between atoms: O_4  and  C_5 
REMARK    5  A    between atoms: C_12  and  N_13 
REMARK       I    between atoms: N_13  and  C_14 
REMARK       I    between atoms: C_14  and  N_15 
REMARK    6  A    between atoms: N_15  and  C_16 
ROOT
HETATM    1  N   UNL     1       4.874  26.396  53.766  1.00  0.00    -0.340 N 
HETATM    2  C   UNL     1       5.277  27.039  52.622  1.00  0.00     0.320 C 
HETATM    3  N   UNL     1       4.274  27.060  51.678  1.00  0.00    -0.307 N 
HETATM    4  O   UNL     1       6.387  27.530  52.469  1.00  0.00    -0.247 OA
HETATM    5  H   UNL     1       3.971  25.947  53.752  1.00  0.00     0.164 HD
HETATM    6  H   UNL     1       3.339  27.117  52.046  1.00  0.00     0.170 HD
ENDROOT
BRANCH   1   7
HETATM    7  C   UNL     1       5.575  26.418  55.045  1.00  0.00     0.156 C 
BRANCH   7   8
HETATM    8  C   UNL     1       6.032  25.084  55.675  1.00  0.00     0.146 C 
BRANCH   8   9
HETATM    9  C   UNL     1       6.275  25.159  57.192  1.00  0.00     0.029 C 
HETATM   10  C   UNL     1       7.469  26.013  57.600  1.00  0.00     0.007 C 
ENDBRANCH   8   9
BRANCH   8  11
HETATM   11  O   UNL     1       7.259  24.726  55.015  1.00  0.00    -0.343 OA
BRANCH  11  12
HETATM   12  C   UNL     1       7.509  23.421  54.682  1.00  0.00     0.091 A 
HETATM   13  C   UNL     1       7.763  23.161  53.325  1.00  0.00     0.067 A 
HETATM   14 CL   UNL     1       7.776  24.434  52.151  1.00  0.00    -0.081 Cl
HETATM   15  C   UNL     1       8.014  21.860  52.878  1.00  0.00     0.026 A 
HETATM   16  C   UNL     1       8.015  20.800  53.780  1.00  0.00     0.002 A 
HETATM   17  C   UNL     1       7.775  21.046  55.131  1.00  0.00     0.003 A 
HETATM   18  C   UNL     1       7.531  22.349  55.580  1.00  0.00     0.038 A 
ENDBRANCH  11  12
ENDBRANCH   8  11
ENDBRANCH   7   8
ENDBRANCH   1   7
BRANCH   3  19
HETATM   19  C   UNL     1       4.460  27.392  50.316  1.00  0.00     0.059 A 
HETATM   20  C   UNL     1       4.368  28.729  49.892  1.00  0.00    -0.032 A 
HETATM   21  C   UNL     1       4.184  29.870  50.850  1.00  0.00     0.050 C 
HETATM   22  C   UNL     1       4.500  29.005  48.524  1.00  0.00     0.028 A 
HETATM   23  C   UNL     1       4.708  27.960  47.636  1.00  0.00     0.117 A 
HETATM   24  N   UNL     1       4.798  26.672  48.010  1.00  0.00    -0.271 NA
HETATM   25  C   UNL     1       4.679  26.418  49.337  1.00  0.00     0.146 A 
ENDBRANCH   3  19
TORSDOF 6
ENDMDL
MODEL 7
REMARK VINA RESULT:      -7.7      4.614      7.632
REMARK  6 active torsions:
REMARK  status: ('A' for Active; 'I' for Inactive)
REMARK    1  A    between atoms: C_2  and  C_3 
REMARK    2  A    between atoms: C_3  and  O_4 
REMARK    3  A    between atoms: C_3  and  C_12 
REMARK    4  A    between atoms: O_4  and  C_5 
REMARK    5  A    between atoms: C_12  and  N_13 
REMARK       I    between atoms: N_13  and  C_14 
REMARK       I    between atoms: C_14  and  N_15 
REMARK    6  A    between atoms: N_15  and  C_16 
ROOT
HETATM    1  N   UNL     1       6.005  27.857  52.250  1.00  0.00    -0.340 N 
HETATM    2  C   UNL     1       5.536  27.168  51.159  1.00  0.00     0.320 C 
HETATM    3  N   UNL     1       4.965  28.017  50.237  1.00  0.00    -0.307 N 
HETATM    4  O   UNL     1       5.621  25.955  51.029  1.00  0.00    -0.247 OA
HETATM    5  H   UNL     1       5.801  28.843  52.299  1.00  0.00     0.164 HD
HETATM    6  H   UNL     1       5.381  28.931  50.179  1.00  0.00     0.170 HD
ENDROOT
BRANCH   1   7
HETATM    7  C   UNL     1       6.887  27.319  53.280  1.00  0.00     0.156 C 
BRANCH   7   8
HETATM    8  C   UNL     1       6.391  26.152  54.162  1.00  0.00     0.146 C 
BRANCH   8   9
HETATM    9  C   UNL     1       5.468  26.587  55.313  1.00  0.00     0.029 C 
HETATM   10  C   UNL     1       5.394  25.599  56.471  1.00  0.00     0.007 C 
ENDBRANCH   8   9
BRANCH   8  11
HETATM   11  O   UNL     1       7.568  25.528  54.706  1.00  0.00    -0.343 OA
BRANCH  11  12
HETATM   12  C   UNL     1       7.875  24.234  54.385  1.00  0.00     0.091 A 
HETATM   13  C   UNL     1       8.592  23.504  55.349  1.00  0.00     0.067 A 
HETATM   14 CL   UNL     1       9.038  24.212  56.865  1.00  0.00    -0.081 Cl
HETATM   15  C   UNL     1       8.969  22.179  55.112  1.00  0.00     0.026 A 
HETATM   16  C   UNL     1       8.636  21.563  53.909  1.00  0.00     0.002 A 
HETATM   17  C   UNL     1       7.917  22.272  52.949  1.00  0.00     0.003 A 
HETATM   18  C   UNL     1       7.532  23.595  53.188  1.00  0.00     0.038 A 
ENDBRANCH  11  12
ENDBRANCH   8  11
ENDBRANCH   7   8
ENDBRANCH   1   7
BRANCH   3  19
HETATM   19  C   UNL     1       4.154  27.600  49.156  1.00  0.00     0.059 A 
HETATM   20  C   UNL     1       2.786  27.922  49.131  1.00  0.00    -0.032 A 
HETATM   21  C   UNL     1       2.142  28.800  50.164  1.00  0.00     0.050 C 
HETATM   22  C   UNL     1       2.007  27.439  48.070  1.00  0.00     0.028 A 
HETATM   23  C   UNL     1       2.602  26.658  47.090  1.00  0.00     0.117 A 
HETATM   24  N   UNL     1       3.906  26.331  47.088  1.00  0.00    -0.271 NA
HETATM   25  C   UNL     1       4.652  26.813  48.114  1.00  0.00     0.146 A 
ENDBRANCH   3  19
TORSDOF 6
ENDMDL
MODEL 8
REMARK VINA RESULT:      -7.6      2.448      3.096
REMARK  6 active torsions:
REMARK  status: ('A' for Active; 'I' for Inactive)
REMARK    1  A    between atoms: C_2  and  C_3 
REMARK    2  A    between atoms: C_3  and  O_4 
REMARK    3  A    between atoms: C_3  and  C_12 
REMARK    4  A    between atoms: O_4  and  C_5 
REMARK    5  A    between atoms: C_12  and  N_13 
REMARK       I    between atoms: N_13  and  C_14 
REMARK       I    between atoms: C_14  and  N_15 
REMARK    6  A    between atoms: N_15  and  C_16 
ROOT
HETATM    1  N   UNL     1       4.433  27.778  54.623  1.00  0.00    -0.340 N 
HETATM    2  C   UNL     1       5.551  28.398  55.126  1.00  0.00     0.320 C 
HETATM    3  N   UNL     1       5.449  28.590  56.486  1.00  0.00    -0.307 N 
HETATM    4  O   UNL     1       6.511  28.731  54.446  1.00  0.00    -0.247 OA
HETATM    5  H   UNL     1       3.660  27.632  55.255  1.00  0.00     0.164 HD
HETATM    6  H   UNL     1       4.937  27.880  56.984  1.00  0.00     0.170 HD
ENDROOT
BRANCH   1   7
HETATM    7  C   UNL     1       4.311  27.193  53.293  1.00  0.00     0.156 C 
BRANCH   7   8
HETATM    8  C   UNL     1       5.320  26.110  52.852  1.00  0.00     0.146 C 
BRANCH   8   9
HETATM    9  C   UNL     1       5.067  25.557  51.439  1.00  0.00     0.029 C 
HETATM   10  C   UNL     1       5.027  26.615  50.343  1.00  0.00     0.007 C 
ENDBRANCH   8   9
BRANCH   8  11
HETATM   11  O   UNL     1       5.207  25.040  53.807  1.00  0.00    -0.343 OA
BRANCH  11  12
HETATM   12  C   UNL     1       6.325  24.381  54.242  1.00  0.00     0.091 A 
HETATM   13  C   UNL     1       6.537  24.359  55.631  1.00  0.00     0.067 A 
HETATM   14 CL   UNL     1       5.424  25.111  56.723  1.00  0.00    -0.081 Cl
HETATM   15  C   UNL     1       7.658  23.725  56.177  1.00  0.00     0.026 A 
HETATM   16  C   UNL     1       8.584  23.106  55.343  1.00  0.00     0.002 A 
HETATM   17  C   UNL     1       8.381  23.112  53.964  1.00  0.00     0.003 A 
HETATM   18  C   UNL     1       7.255  23.739  53.418  1.00  0.00     0.038 A 
ENDBRANCH  11  12
ENDBRANCH   8  11
ENDBRANCH   7   8
ENDBRANCH   1   7
BRANCH   3  19
HETATM   19  C   UNL     1       6.293  29.436  57.243  1.00  0.00     0.059 A 
HETATM   20  C   UNL     1       7.453  28.924  57.848  1.00  0.00    -0.032 A 
HETATM   21  C   UNL     1       7.917  27.511  57.640  1.00  0.00     0.050 C 
HETATM   22  C   UNL     1       8.228  29.784  58.638  1.00  0.00     0.028 A 
HETATM   23  C   UNL     1       7.827  31.102  58.804  1.00  0.00     0.117 A 
HETATM   24  N   UNL     1       6.721  31.620  58.241  1.00  0.00    -0.271 NA
HETATM   25  C   UNL     1       5.985  30.781  57.470  1.00  0.00     0.146 A 
ENDBRANCH   3  19
TORSDOF 6
ENDMDL
MODEL 9
REMARK VINA RESULT:      -7.5      4.527      6.865
REMARK  6 active torsions:
REMARK  status: ('A' for Active; 'I' for Inactive)
REMARK    1  A    between atoms: C_2  and  C_3 
REMARK    2  A    between atoms: C_3  and  O_4 
REMARK    3  A    between atoms: C_3  and  C_12 
REMARK    4  A    between atoms: O_4  and  C_5 
REMARK    5  A    between atoms: C_12  and  N_13 
REMARK       I    between atoms: N_13  and  C_14 
REMARK       I    between atoms: C_14  and  N_15 
REMARK    6  A    between atoms: N_15  and  C_16 
ROOT
HETATM    1  N   UNL     1       5.868  25.720  51.438  1.00  0.00    -0.340 N 
HETATM    2  C   UNL     1       5.176  26.829  51.014  1.00  0.00     0.320 C 
HETATM    3  N   UNL     1       5.617  27.254  49.781  1.00  0.00    -0.307 N 
HETATM    4  O   UNL     1       4.281  27.361  51.655  1.00  0.00    -0.247 OA
HETATM    5  H   UNL     1       6.648  25.418  50.875  1.00  0.00     0.164 HD
HETATM    6  H   UNL     1       5.931  26.526  49.161  1.00  0.00     0.170 HD
ENDROOT
BRANCH   1   7
HETATM    7  C   UNL     1       5.494  24.861  52.555  1.00  0.00     0.156 C 
BRANCH   7   8
HETATM    8  C   UNL     1       6.274  24.973  53.883  1.00  0.00     0.146 C 
BRANCH   8   9
HETATM    9  C   UNL     1       6.339  26.401  54.454  1.00  0.00     0.029 C 
HETATM   10  C   UNL     1       7.586  27.182  54.060  1.00  0.00     0.007 C 
ENDBRANCH   8   9
BRANCH   8  11
HETATM   11  O   UNL     1       7.608  24.511  53.609  1.00  0.00    -0.343 OA
BRANCH  11  12
HETATM   12  C   UNL     1       7.947  23.204  53.837  1.00  0.00     0.091 A 
HETATM   13  C   UNL     1       8.496  22.912  55.097  1.00  0.00     0.067 A 
HETATM   14 CL   UNL     1       8.707  24.144  56.295  1.00  0.00    -0.081 Cl
HETATM   15  C   UNL     1       8.890  21.611  55.425  1.00  0.00     0.026 A 
HETATM   16  C   UNL     1       8.743  20.583  54.497  1.00  0.00     0.002 A 
HETATM   17  C   UNL     1       8.191  20.857  53.248  1.00  0.00     0.003 A 
HETATM   18  C   UNL     1       7.789  22.157  52.922  1.00  0.00     0.038 A 
ENDBRANCH  11  12
ENDBRANCH   8  11
ENDBRANCH   7   8
ENDBRANCH   1   7
BRANCH   3  19
HETATM   19  C   UNL     1       5.309  28.510  49.207  1.00  0.00     0.059 A 
HETATM   20  C   UNL     1       4.494  28.587  48.066  1.00  0.00    -0.032 A 
HETATM   21  C   UNL     1       3.825  27.384  47.466  1.00  0.00     0.050 C 
HETATM   22  C   UNL     1       4.262  29.847  47.495  1.00  0.00     0.028 A 
HETATM   23  C   UNL     1       4.846  30.969  48.065  1.00  0.00     0.117 A 
HETATM   24  N   UNL     1       5.632  30.928  49.155  1.00  0.00    -0.271 NA
HETATM   25  C   UNL     1       5.840  29.704  49.704  1.00  0.00     0.146 A 
ENDBRANCH   3  19
TORSDOF 6
ENDMDL
MODEL 10
REMARK VINA RESULT:      -7.5      6.181     11.481
REMARK  6 active torsions:
REMARK  status: ('A' for Active; 'I' for Inactive)
REMARK    1  A    between atoms: C_2  and  C_3 
REMARK    2  A    between atoms: C_3  and  O_4 
REMARK    3  A    between atoms: C_3  and  C_12 
REMARK    4  A    between atoms: O_4  and  C_5 
REMARK    5  A    between atoms: C_12  and  N_13 
REMARK       I    between atoms: N_13  and  C_14 
REMARK       I    between atoms: C_14  and  N_15 
REMARK    6  A    between atoms: N_15  and  C_16 
ROOT
HETATM    1  N   UNL     1       6.814  31.507  61.112  1.00  0.00    -0.340 N 
HETATM    2  C   UNL     1       8.025  31.156  60.567  1.00  0.00     0.320 C 
HETATM    3  N   UNL     1       7.992  31.213  59.192  1.00  0.00    -0.307 N 
HETATM    4  O   UNL     1       9.004  30.838  61.228  1.00  0.00    -0.247 OA
HETATM    5  H   UNL     1       6.047  31.661  60.475  1.00  0.00     0.164 HD
HETATM    6  H   UNL     1       7.396  31.925  58.805  1.00  0.00     0.170 HD
ENDROOT
BRANCH   1   7
HETATM    7  C   UNL     1       6.568  31.807  62.518  1.00  0.00     0.156 C 
BRANCH   7   8
HETATM    8  C   UNL     1       6.894  33.218  63.054  1.00  0.00     0.146 C 
BRANCH   8   9
HETATM    9  C   UNL     1       7.666  33.220  64.384  1.00  0.00     0.029 C 
HETATM   10  C   UNL     1       6.861  33.706  65.583  1.00  0.00     0.007 C 
ENDBRANCH   8   9
BRANCH   8  11
HETATM   11  O   UNL     1       5.630  33.881  63.239  1.00  0.00    -0.343 OA
BRANCH  11  12
HETATM   12  C   UNL     1       5.382  35.078  62.623  1.00  0.00     0.091 A 
HETATM   13  C   UNL     1       4.547  35.039  61.494  1.00  0.00     0.067 A 
HETATM   14 CL   UNL     1       3.859  33.551  60.935  1.00  0.00    -0.081 Cl
HETATM   15  C   UNL     1       4.243  36.204  60.783  1.00  0.00     0.026 A 
HETATM   16  C   UNL     1       4.771  37.426  61.190  1.00  0.00     0.002 A 
HETATM   17  C   UNL     1       5.592  37.481  62.314  1.00  0.00     0.003 A 
HETATM   18  C   UNL     1       5.890  36.317  63.030  1.00  0.00     0.038 A 
ENDBRANCH  11  12
ENDBRANCH   8  11
ENDBRANCH   7   8
ENDBRANCH   1   7
BRANCH   3  19
HETATM   19  C   UNL     1       8.973  30.651  58.342  1.00  0.00     0.059 A 
HETATM   20  C   UNL     1       8.758  29.401  57.739  1.00  0.00    -0.032 A 
HETATM   21  C   UNL     1       7.461  28.654  57.866  1.00  0.00     0.050 C 
HETATM   22  C   UNL     1       9.781  28.855  56.951  1.00  0.00     0.028 A 
HETATM   23  C   UNL     1      10.968  29.555  56.797  1.00  0.00     0.117 A 
HETATM   24  N   UNL     1      11.206  30.752  57.363  1.00  0.00    -0.271 NA
HETATM   25  C   UNL     1      10.204  31.275  58.114  1.00  0.00     0.146 A 
ENDBRANCH   3  19
TORSDOF 6
ENDMDL
