MODEL 1
REMARK VINA RESULT:      -8.2      0.000      0.000
REMARK  5 active torsions:
REMARK  status: ('A' for Active; 'I' for Inactive)
REMARK    1  A    between atoms: C_2  and  O_3 
REMARK    2  A    between atoms: O_3  and  C_4 
REMARK    3  A    between atoms: C_8  and  N_9 
REMARK       I    between atoms: N_9  and  C_10 
REMARK       I    between atoms: C_10  and  N_11 
REMARK    4  A    between atoms: N_11  and  C_12 
REMARK    5  A    between atoms: C_12  and  C_13 
ROOT
HETATM    1  N   UNL     1       8.293  27.952  56.651  1.00  0.00    -0.309 N 
HETATM    2  C   UNL     1       7.533  27.769  55.534  1.00  0.00     0.321 C 
HETATM    3  N   UNL     1       7.322  26.460  55.191  1.00  0.00    -0.337 N 
HETATM    4  O   UNL     1       7.044  28.629  54.813  1.00  0.00    -0.247 OA
HETATM    5  H   UNL     1       8.976  27.208  56.775  1.00  0.00     0.170 HD
HETATM    6  H   UNL     1       6.758  26.362  54.357  1.00  0.00     0.164 HD
ENDROOT
BRANCH   1   7
HETATM    7  C   UNL     1       8.542  29.112  57.417  1.00  0.00     0.042 A 
HETATM    8  C   UNL     1       9.747  29.826  57.515  1.00  0.00    -0.033 A 
HETATM    9  C   UNL     1       9.784  30.982  58.329  1.00  0.00     0.045 A 
HETATM   10  C   UNL     1      11.019  29.477  56.797  1.00  0.00     0.050 C 
HETATM   11  C   UNL     1       8.652  31.468  58.986  1.00  0.00     0.069 A 
HETATM   12  C   UNL     1       7.458  30.771  58.866  1.00  0.00     0.039 A 
HETATM   13  C   UNL     1       7.409  29.612  58.088  1.00  0.00     0.033 A 
BRANCH  11  14
HETATM   14  O   UNL     1       8.841  32.619  59.699  1.00  0.00    -0.351 OA
BRANCH  14  15
HETATM   15  C   UNL     1       8.170  32.706  60.956  1.00  0.00     0.171 C 
HETATM   16  C   UNL     1       9.000  31.960  61.986  1.00  0.00     0.034 C 
ENDBRANCH  14  15
ENDBRANCH  11  14
ENDBRANCH   1   7
BRANCH   3  17
HETATM   17  C   UNL     1       7.658  25.271  55.954  1.00  0.00     0.183 C 
BRANCH  17  18
HETATM   18  C   UNL     1       7.833  24.058  55.067  1.00  0.00     0.053 A 
HETATM   19  N   UNL     1       7.836  24.274  53.721  1.00  0.00    -0.264 NA
HETATM   20  C   UNL     1       7.932  23.193  52.913  1.00  0.00     0.118 A 
HETATM   21  C   UNL     1       8.038  21.898  53.376  1.00  0.00     0.043 A 
HETATM   22  C   UNL     1       8.040  21.706  54.750  1.00  0.00     0.037 A 
HETATM   23 CL   UNL     1       8.173  20.113  55.387  1.00  0.00    -0.084 Cl
HETATM   24  C   UNL     1       7.930  22.786  55.616  1.00  0.00     0.052 A 
ENDBRANCH  17  18
ENDBRANCH   3  17
TORSDOF 5
ENDMDL
MODEL 2
REMARK VINA RESULT:      -8.1      0.780      1.666
REMARK  5 active torsions:
REMARK  status: ('A' for Active; 'I' for Inactive)
REMARK    1  A    between atoms: C_2  and  O_3 
REMARK    2  A    between atoms: O_3  and  C_4 
REMARK    3  A    between atoms: C_8  and  N_9 
REMARK       I    between atoms: N_9  and  C_10 
REMARK       I    between atoms: C_10  and  N_11 
REMARK    4  A    between atoms: N_11  and  C_12 
REMARK    5  A    between atoms: C_12  and  C_13 
ROOT
HETATM    1  N   UNL     1       7.920  27.683  56.188  1.00  0.00    -0.309 N 
HETATM    2  C   UNL     1       7.520  27.511  54.895  1.00  0.00     0.321 C 
HETATM    3  N   UNL     1       7.102  26.244  54.587  1.00  0.00    -0.337 N 
HETATM    4  O   UNL     1       7.510  28.345  53.999  1.00  0.00    -0.247 OA
HETATM    5  H   UNL     1       8.321  26.835  56.580  1.00  0.00     0.170 HD
HETATM    6  H   UNL     1       6.816  26.152  53.621  1.00  0.00     0.164 HD
ENDROOT
BRANCH   1   7
HETATM    7  C   UNL     1       8.205  28.859  56.916  1.00  0.00     0.042 A 
HETATM    8  C   UNL     1       7.286  29.718  57.540  1.00  0.00    -0.033 A 
HETATM    9  C   UNL     1       7.780  30.843  58.241  1.00  0.00     0.045 A 
HETATM   10  C   UNL     1       5.796  29.531  57.548  1.00  0.00     0.050 C 
HETATM   11  C   UNL     1       9.148  31.091  58.384  1.00  0.00     0.069 A 
HETATM   12  C   UNL     1      10.051  30.225  57.786  1.00  0.00     0.039 A 
HETATM   13  C   UNL     1       9.581  29.123  57.066  1.00  0.00     0.033 A 
BRANCH  11  14
HETATM   14  O   UNL     1       9.465  32.194  59.126  1.00  0.00    -0.351 OA
BRANCH  14  15
HETATM   15  C   UNL     1       8.725  32.386  60.331  1.00  0.00     0.171 C 
HETATM   16  C   UNL     1       9.552  31.841  61.482  1.00  0.00     0.034 C 
ENDBRANCH  14  15
ENDBRANCH  11  14
ENDBRANCH   1   7
BRANCH   3  17
HETATM   17  C   UNL     1       6.876  25.133  55.494  1.00  0.00     0.183 C 
BRANCH  17  18
HETATM   18  C   UNL     1       7.318  23.815  54.897  1.00  0.00     0.053 A 
HETATM   19  N   UNL     1       7.483  23.774  53.545  1.00  0.00    -0.264 NA
HETATM   20  C   UNL     1       7.821  22.589  52.990  1.00  0.00     0.118 A 
HETATM   21  C   UNL     1       8.017  21.431  53.714  1.00  0.00     0.043 A 
HETATM   22  C   UNL     1       7.851  21.500  55.090  1.00  0.00     0.037 A 
HETATM   23 CL   UNL     1       8.085  20.091  56.049  1.00  0.00    -0.084 Cl
HETATM   24  C   UNL     1       7.491  22.695  55.701  1.00  0.00     0.052 A 
ENDBRANCH  17  18
ENDBRANCH   3  17
TORSDOF 5
ENDMDL
MODEL 3
REMARK VINA RESULT:      -8.1      3.674      8.216
REMARK  5 active torsions:
REMARK  status: ('A' for Active; 'I' for Inactive)
REMARK    1  A    between atoms: C_2  and  O_3 
REMARK    2  A    between atoms: O_3  and  C_4 
REMARK    3  A    between atoms: C_8  and  N_9 
REMARK       I    between atoms: N_9  and  C_10 
REMARK       I    between atoms: C_10  and  N_11 
REMARK    4  A    between atoms: N_11  and  C_12 
REMARK    5  A    between atoms: C_12  and  C_13 
ROOT
HETATM    1  N   UNL     1       6.385  26.078  55.860  1.00  0.00    -0.309 N 
HETATM    2  C   UNL     1       5.326  26.162  56.714  1.00  0.00     0.321 C 
HETATM    3  N   UNL     1       4.882  27.434  56.957  1.00  0.00    -0.337 N 
HETATM    4  O   UNL     1       4.753  25.243  57.287  1.00  0.00    -0.247 OA
HETATM    5  H   UNL     1       6.988  26.896  55.917  1.00  0.00     0.170 HD
HETATM    6  H   UNL     1       4.098  27.458  57.597  1.00  0.00     0.164 HD
ENDROOT
BRANCH   1   7
HETATM    7  C   UNL     1       6.967  24.963  55.219  1.00  0.00     0.042 A 
HETATM    8  C   UNL     1       6.565  24.368  54.012  1.00  0.00    -0.033 A 
HETATM    9  C   UNL     1       7.299  23.260  53.527  1.00  0.00     0.045 A 
HETATM   10  C   UNL     1       5.415  24.828  53.163  1.00  0.00     0.050 C 
HETATM   11  C   UNL     1       8.440  22.781  54.173  1.00  0.00     0.069 A 
HETATM   12  C   UNL     1       8.847  23.388  55.352  1.00  0.00     0.039 A 
HETATM   13  C   UNL     1       8.119  24.467  55.861  1.00  0.00     0.033 A 
BRANCH  11  14
HETATM   14  O   UNL     1       9.062  21.731  53.556  1.00  0.00    -0.351 OA
BRANCH  14  15
HETATM   15  C   UNL     1       8.387  20.474  53.604  1.00  0.00     0.171 C 
HETATM   16  C   UNL     1       8.441  19.966  55.034  1.00  0.00     0.034 C 
ENDBRANCH  14  15
ENDBRANCH  11  14
ENDBRANCH   1   7
BRANCH   3  17
HETATM   17  C   UNL     1       5.284  28.662  56.295  1.00  0.00     0.183 C 
BRANCH  17  18
HETATM   18  C   UNL     1       6.691  29.073  56.668  1.00  0.00     0.053 A 
HETATM   19  N   UNL     1       7.645  28.954  55.702  1.00  0.00    -0.264 NA
HETATM   20  C   UNL     1       8.918  29.262  56.037  1.00  0.00     0.118 A 
HETATM   21  C   UNL     1       9.298  29.696  57.290  1.00  0.00     0.043 A 
HETATM   22  C   UNL     1       8.307  29.817  58.254  1.00  0.00     0.037 A 
HETATM   23 CL   UNL     1       8.717  30.358  59.835  1.00  0.00    -0.084 Cl
HETATM   24  C   UNL     1       6.987  29.499  57.956  1.00  0.00     0.052 A 
ENDBRANCH  17  18
ENDBRANCH   3  17
TORSDOF 5
ENDMDL
MODEL 4
REMARK VINA RESULT:      -8.0      3.162      8.363
REMARK  5 active torsions:
REMARK  status: ('A' for Active; 'I' for Inactive)
REMARK    1  A    between atoms: C_2  and  O_3 
REMARK    2  A    between atoms: O_3  and  C_4 
REMARK    3  A    between atoms: C_8  and  N_9 
REMARK       I    between atoms: N_9  and  C_10 
REMARK       I    between atoms: C_10  and  N_11 
REMARK    4  A    between atoms: N_11  and  C_12 
REMARK    5  A    between atoms: C_12  and  C_13 
ROOT
HETATM    1  N   UNL     1       6.736  26.776  55.407  1.00  0.00    -0.309 N 
HETATM    2  C   UNL     1       6.944  27.871  54.621  1.00  0.00     0.321 C 
HETATM    3  N   UNL     1       6.641  29.069  55.212  1.00  0.00    -0.337 N 
HETATM    4  O   UNL     1       7.348  27.896  53.465  1.00  0.00    -0.247 OA
HETATM    5  H   UNL     1       5.970  26.916  56.062  1.00  0.00     0.170 HD
HETATM    6  H   UNL     1       6.805  29.857  54.600  1.00  0.00     0.164 HD
ENDROOT
BRANCH   1   7
HETATM    7  C   UNL     1       7.120  25.429  55.232  1.00  0.00     0.042 A 
HETATM    8  C   UNL     1       6.627  24.518  54.283  1.00  0.00    -0.033 A 
HETATM    9  C   UNL     1       7.161  23.208  54.261  1.00  0.00     0.045 A 
HETATM   10  C   UNL     1       5.577  24.826  53.255  1.00  0.00     0.050 C 
HETATM   11  C   UNL     1       8.201  22.813  55.106  1.00  0.00     0.069 A 
HETATM   12  C   UNL     1       8.700  23.725  56.025  1.00  0.00     0.039 A 
HETATM   13  C   UNL     1       8.166  25.015  56.080  1.00  0.00     0.033 A 
BRANCH  11  14
HETATM   14  O   UNL     1       8.635  21.529  54.934  1.00  0.00    -0.351 OA
BRANCH  14  15
HETATM   15  C   UNL     1       7.812  20.681  54.133  1.00  0.00     0.171 C 
HETATM   16  C   UNL     1       8.578  20.342  52.866  1.00  0.00     0.034 C 
ENDBRANCH  14  15
ENDBRANCH  11  14
ENDBRANCH   1   7
BRANCH   3  17
HETATM   17  C   UNL     1       6.298  29.318  56.600  1.00  0.00     0.183 C 
BRANCH  17  18
HETATM   18  C   UNL     1       7.479  29.833  57.393  1.00  0.00     0.053 A 
HETATM   19  N   UNL     1       7.201  30.594  58.489  1.00  0.00    -0.264 NA
HETATM   20  C   UNL     1       8.246  31.111  59.174  1.00  0.00     0.118 A 
HETATM   21  C   UNL     1       9.566  30.902  58.832  1.00  0.00     0.043 A 
HETATM   22  C   UNL     1       9.822  30.117  57.717  1.00  0.00     0.037 A 
HETATM   23 CL   UNL     1      11.449  29.817  57.242  1.00  0.00    -0.084 Cl
HETATM   24  C   UNL     1       8.779  29.577  56.976  1.00  0.00     0.052 A 
ENDBRANCH  17  18
ENDBRANCH   3  17
TORSDOF 5
ENDMDL
MODEL 5
REMARK VINA RESULT:      -7.9      5.457      8.332
REMARK  5 active torsions:
REMARK  status: ('A' for Active; 'I' for Inactive)
REMARK    1  A    between atoms: C_2  and  O_3 
REMARK    2  A    between atoms: O_3  and  C_4 
REMARK    3  A    between atoms: C_8  and  N_9 
REMARK       I    between atoms: N_9  and  C_10 
REMARK       I    between atoms: C_10  and  N_11 
REMARK    4  A    between atoms: N_11  and  C_12 
REMARK    5  A    between atoms: C_12  and  C_13 
ROOT
HETATM    1  N   UNL     1       6.407  25.615  53.227  1.00  0.00    -0.309 N 
HETATM    2  C   UNL     1       5.060  25.633  53.010  1.00  0.00     0.321 C 
HETATM    3  N   UNL     1       4.617  26.669  52.232  1.00  0.00    -0.337 N 
HETATM    4  O   UNL     1       4.224  24.848  53.439  1.00  0.00    -0.247 OA
HETATM    5  H   UNL     1       6.804  26.551  53.236  1.00  0.00     0.170 HD
HETATM    6  H   UNL     1       3.615  26.651  52.094  1.00  0.00     0.164 HD
ENDROOT
BRANCH   1   7
HETATM    7  C   UNL     1       7.238  24.618  53.781  1.00  0.00     0.042 A 
HETATM    8  C   UNL     1       7.745  24.562  55.090  1.00  0.00    -0.033 A 
HETATM    9  C   UNL     1       8.553  23.460  55.456  1.00  0.00     0.045 A 
HETATM   10  C   UNL     1       7.480  25.579  56.163  1.00  0.00     0.050 C 
HETATM   11  C   UNL     1       8.809  22.401  54.582  1.00  0.00     0.069 A 
HETATM   12  C   UNL     1       8.286  22.450  53.299  1.00  0.00     0.039 A 
HETATM   13  C   UNL     1       7.509  23.545  52.910  1.00  0.00     0.033 A 
BRANCH  11  14
HETATM   14  O   UNL     1       9.572  21.391  55.099  1.00  0.00    -0.351 OA
BRANCH  14  15
HETATM   15  C   UNL     1       9.098  20.789  56.304  1.00  0.00     0.171 C 
HETATM   16  C   UNL     1       7.798  20.069  55.991  1.00  0.00     0.034 C 
ENDBRANCH  14  15
ENDBRANCH  11  14
ENDBRANCH   1   7
BRANCH   3  17
HETATM   17  C   UNL     1       5.411  27.629  51.486  1.00  0.00     0.183 C 
BRANCH  17  18
HETATM   18  C   UNL     1       5.122  27.572  50.002  1.00  0.00     0.053 A 
HETATM   19  N   UNL     1       5.552  28.624  49.249  1.00  0.00    -0.264 NA
HETATM   20  C   UNL     1       5.251  28.617  47.931  1.00  0.00     0.118 A 
HETATM   21  C   UNL     1       4.546  27.605  47.312  1.00  0.00     0.043 A 
HETATM   22  C   UNL     1       4.126  26.542  48.098  1.00  0.00     0.037 A 
HETATM   23 CL   UNL     1       3.247  25.248  47.382  1.00  0.00    -0.084 Cl
HETATM   24  C   UNL     1       4.403  26.515  49.459  1.00  0.00     0.052 A 
ENDBRANCH  17  18
ENDBRANCH   3  17
TORSDOF 5
ENDMDL
MODEL 6
REMARK VINA RESULT:      -7.9      3.865      8.962
REMARK  5 active torsions:
REMARK  status: ('A' for Active; 'I' for Inactive)
REMARK    1  A    between atoms: C_2  and  O_3 
REMARK    2  A    between atoms: O_3  and  C_4 
REMARK    3  A    between atoms: C_8  and  N_9 
REMARK       I    between atoms: N_9  and  C_10 
REMARK       I    between atoms: C_10  and  N_11 
REMARK    4  A    between atoms: N_11  and  C_12 
REMARK    5  A    between atoms: C_12  and  C_13 
ROOT
HETATM    1  N   UNL     1       7.355  27.447  56.975  1.00  0.00    -0.309 N 
HETATM    2  C   UNL     1       6.374  28.317  57.352  1.00  0.00     0.321 C 
HETATM    3  N   UNL     1       6.800  29.365  58.125  1.00  0.00    -0.337 N 
HETATM    4  O   UNL     1       5.179  28.253  57.093  1.00  0.00    -0.247 OA
HETATM    5  H   UNL     1       8.098  27.386  57.667  1.00  0.00     0.170 HD
HETATM    6  H   UNL     1       6.047  29.986  58.388  1.00  0.00     0.164 HD
ENDROOT
BRANCH   1   7
HETATM    7  C   UNL     1       7.344  26.399  56.029  1.00  0.00     0.042 A 
HETATM    8  C   UNL     1       7.442  26.510  54.633  1.00  0.00    -0.033 A 
HETATM    9  C   UNL     1       7.429  25.326  53.858  1.00  0.00     0.045 A 
HETATM   10  C   UNL     1       7.584  27.799  53.877  1.00  0.00     0.050 C 
HETATM   11  C   UNL     1       7.387  24.056  54.438  1.00  0.00     0.069 A 
HETATM   12  C   UNL     1       7.315  23.953  55.819  1.00  0.00     0.039 A 
HETATM   13  C   UNL     1       7.298  25.111  56.600  1.00  0.00     0.033 A 
BRANCH  11  14
HETATM   14  O   UNL     1       7.424  23.012  53.556  1.00  0.00    -0.351 OA
BRANCH  14  15
HETATM   15  C   UNL     1       8.374  21.983  53.828  1.00  0.00     0.171 C 
HETATM   16  C   UNL     1       7.885  20.704  53.171  1.00  0.00     0.034 C 
ENDBRANCH  14  15
ENDBRANCH  11  14
ENDBRANCH   1   7
BRANCH   3  17
HETATM   17  C   UNL     1       8.166  29.745  58.438  1.00  0.00     0.183 C 
BRANCH  17  18
HETATM   18  C   UNL     1       8.252  30.547  59.718  1.00  0.00     0.053 A 
HETATM   19  N   UNL     1       9.228  30.196  60.602  1.00  0.00    -0.264 NA
HETATM   20  C   UNL     1       9.281  30.864  61.776  1.00  0.00     0.118 A 
HETATM   21  C   UNL     1       8.414  31.881  62.118  1.00  0.00     0.043 A 
HETATM   22  C   UNL     1       7.435  32.226  61.198  1.00  0.00     0.037 A 
HETATM   23 CL   UNL     1       6.327  33.490  61.566  1.00  0.00    -0.084 Cl
HETATM   24  C   UNL     1       7.336  31.557  59.985  1.00  0.00     0.052 A 
ENDBRANCH  17  18
ENDBRANCH   3  17
TORSDOF 5
ENDMDL
MODEL 7
REMARK VINA RESULT:      -7.7      4.741      9.045
REMARK  5 active torsions:
REMARK  status: ('A' for Active; 'I' for Inactive)
REMARK    1  A    between atoms: C_2  and  O_3 
REMARK    2  A    between atoms: O_3  and  C_4 
REMARK    3  A    between atoms: C_8  and  N_9 
REMARK       I    between atoms: N_9  and  C_10 
REMARK       I    between atoms: C_10  and  N_11 
REMARK    4  A    between atoms: N_11  and  C_12 
REMARK    5  A    between atoms: C_12  and  C_13 
ROOT
HETATM    1  N   UNL     1       8.542  30.734  58.978  1.00  0.00    -0.309 N 
HETATM    2  C   UNL     1       9.483  31.682  59.252  1.00  0.00     0.321 C 
HETATM    3  N   UNL     1       9.722  31.887  60.585  1.00  0.00    -0.337 N 
HETATM    4  O   UNL     1      10.112  32.364  58.453  1.00  0.00    -0.247 OA
HETATM    5  H   UNL     1       7.831  30.680  59.704  1.00  0.00     0.170 HD
HETATM    6  H   UNL     1      10.422  32.598  60.750  1.00  0.00     0.164 HD
ENDROOT
BRANCH   1   7
HETATM    7  C   UNL     1       8.188  30.110  57.762  1.00  0.00     0.042 A 
HETATM    8  C   UNL     1       9.048  29.488  56.842  1.00  0.00    -0.033 A 
HETATM    9  C   UNL     1       8.488  28.901  55.682  1.00  0.00     0.045 A 
HETATM   10  C   UNL     1      10.537  29.367  56.997  1.00  0.00     0.050 C 
HETATM   11  C   UNL     1       7.111  28.868  55.455  1.00  0.00     0.069 A 
HETATM   12  C   UNL     1       6.265  29.463  56.379  1.00  0.00     0.039 A 
HETATM   13  C   UNL     1       6.802  30.071  57.517  1.00  0.00     0.033 A 
BRANCH  11  14
HETATM   14  O   UNL     1       6.725  28.228  54.311  1.00  0.00    -0.351 OA
BRANCH  14  15
HETATM   15  C   UNL     1       7.603  27.214  53.821  1.00  0.00     0.171 C 
HETATM   16  C   UNL     1       7.007  25.863  54.178  1.00  0.00     0.034 C 
ENDBRANCH  14  15
ENDBRANCH  11  14
ENDBRANCH   1   7
BRANCH   3  17
HETATM   17  C   UNL     1       9.229  31.112  61.710  1.00  0.00     0.183 C 
BRANCH  17  18
HETATM   18  C   UNL     1       8.015  31.750  62.350  1.00  0.00     0.053 A 
HETATM   19  N   UNL     1       6.842  31.674  61.660  1.00  0.00    -0.264 NA
HETATM   20  C   UNL     1       5.762  32.290  62.191  1.00  0.00     0.118 A 
HETATM   21  C   UNL     1       5.781  32.975  63.388  1.00  0.00     0.043 A 
HETATM   22  C   UNL     1       6.986  33.032  64.075  1.00  0.00     0.037 A 
HETATM   23 CL   UNL     1       7.072  33.869  65.575  1.00  0.00    -0.084 Cl
HETATM   24  C   UNL     1       8.124  32.424  63.560  1.00  0.00     0.052 A 
ENDBRANCH  17  18
ENDBRANCH   3  17
TORSDOF 5
ENDMDL
MODEL 8
REMARK VINA RESULT:      -7.7      3.407      8.520
REMARK  5 active torsions:
REMARK  status: ('A' for Active; 'I' for Inactive)
REMARK    1  A    between atoms: C_2  and  O_3 
REMARK    2  A    between atoms: O_3  and  C_4 
REMARK    3  A    between atoms: C_8  and  N_9 
REMARK       I    between atoms: N_9  and  C_10 
REMARK       I    between atoms: C_10  and  N_11 
REMARK    4  A    between atoms: N_11  and  C_12 
REMARK    5  A    between atoms: C_12  and  C_13 
ROOT
HETATM    1  N   UNL     1       6.579  27.200  55.272  1.00  0.00    -0.309 N 
HETATM    2  C   UNL     1       7.261  28.307  54.860  1.00  0.00     0.321 C 
HETATM    3  N   UNL     1       6.719  29.499  55.263  1.00  0.00    -0.337 N 
HETATM    4  O   UNL     1       8.273  28.349  54.173  1.00  0.00    -0.247 OA
HETATM    5  H   UNL     1       5.581  27.376  55.361  1.00  0.00     0.170 HD
HETATM    6  H   UNL     1       7.248  30.297  54.937  1.00  0.00     0.164 HD
ENDROOT
BRANCH   1   7
HETATM    7  C   UNL     1       6.934  25.833  55.240  1.00  0.00     0.042 A 
HETATM    8  C   UNL     1       7.524  25.082  56.269  1.00  0.00    -0.033 A 
HETATM    9  C   UNL     1       7.786  23.710  56.040  1.00  0.00     0.045 A 
HETATM   10  C   UNL     1       7.888  25.612  57.626  1.00  0.00     0.050 C 
HETATM   11  C   UNL     1       7.421  23.070  54.854  1.00  0.00     0.069 A 
HETATM   12  C   UNL     1       6.816  23.812  53.851  1.00  0.00     0.039 A 
HETATM   13  C   UNL     1       6.575  25.175  54.048  1.00  0.00     0.033 A 
BRANCH  11  14
HETATM   14  O   UNL     1       7.703  21.733  54.804  1.00  0.00    -0.351 OA
BRANCH  14  15
HETATM   15  C   UNL     1       8.811  21.347  53.991  1.00  0.00     0.171 C 
HETATM   16  C   UNL     1       8.284  20.494  52.850  1.00  0.00     0.034 C 
ENDBRANCH  14  15
ENDBRANCH  11  14
ENDBRANCH   1   7
BRANCH   3  17
HETATM   17  C   UNL     1       5.629  29.713  56.197  1.00  0.00     0.183 C 
BRANCH  17  18
HETATM   18  C   UNL     1       6.080  30.465  57.431  1.00  0.00     0.053 A 
HETATM   19  N   UNL     1       5.293  31.497  57.846  1.00  0.00    -0.264 NA
HETATM   20  C   UNL     1       5.713  32.216  58.912  1.00  0.00     0.118 A 
HETATM   21  C   UNL     1       6.879  31.954  59.602  1.00  0.00     0.043 A 
HETATM   22  C   UNL     1       7.657  30.892  59.165  1.00  0.00     0.037 A 
HETATM   23 CL   UNL     1       9.121  30.514  59.987  1.00  0.00    -0.084 Cl
HETATM   24  C   UNL     1       7.271  30.136  58.066  1.00  0.00     0.052 A 
ENDBRANCH  17  18
ENDBRANCH   3  17
TORSDOF 5
ENDMDL
MODEL 9
REMARK VINA RESULT:      -7.7      3.290      8.300
REMARK  5 active torsions:
REMARK  status: ('A' for Active; 'I' for Inactive)
REMARK    1  A    between atoms: C_2  and  O_3 
REMARK    2  A    between atoms: O_3  and  C_4 
REMARK    3  A    between atoms: C_8  and  N_9 
REMARK       I    between atoms: N_9  and  C_10 
REMARK       I    between atoms: C_10  and  N_11 
REMARK    4  A    between atoms: N_11  and  C_12 
REMARK    5  A    between atoms: C_12  and  C_13 
ROOT
HETATM    1  N   UNL     1       6.454  26.720  55.953  1.00  0.00    -0.309 N 
HETATM    2  C   UNL     1       5.408  26.888  56.812  1.00  0.00     0.321 C 
HETATM    3  N   UNL     1       5.150  28.189  57.156  1.00  0.00    -0.337 N 
HETATM    4  O   UNL     1       4.701  26.020  57.308  1.00  0.00    -0.247 OA
HETATM    5  H   UNL     1       7.168  27.434  56.077  1.00  0.00     0.170 HD
HETATM    6  H   UNL     1       4.371  28.275  57.795  1.00  0.00     0.164 HD
ENDROOT
BRANCH   1   7
HETATM    7  C   UNL     1       6.876  25.587  55.225  1.00  0.00     0.042 A 
HETATM    8  C   UNL     1       7.813  24.619  55.622  1.00  0.00    -0.033 A 
HETATM    9  C   UNL     1       8.086  23.542  54.746  1.00  0.00     0.045 A 
HETATM   10  C   UNL     1       8.549  24.616  56.931  1.00  0.00     0.050 C 
HETATM   11  C   UNL     1       7.411  23.377  53.535  1.00  0.00     0.069 A 
HETATM   12  C   UNL     1       6.469  24.324  53.159  1.00  0.00     0.039 A 
HETATM   13  C   UNL     1       6.207  25.410  53.998  1.00  0.00     0.033 A 
BRANCH  11  14
HETATM   14  O   UNL     1       7.757  22.263  52.822  1.00  0.00    -0.351 OA
BRANCH  14  15
HETATM   15  C   UNL     1       8.865  21.511  53.316  1.00  0.00     0.171 C 
HETATM   16  C   UNL     1       8.582  20.039  53.070  1.00  0.00     0.034 C 
ENDBRANCH  14  15
ENDBRANCH  11  14
ENDBRANCH   1   7
BRANCH   3  17
HETATM   17  C   UNL     1       5.734  29.394  56.595  1.00  0.00     0.183 C 
BRANCH  17  18
HETATM   18  C   UNL     1       6.998  29.802  57.319  1.00  0.00     0.053 A 
HETATM   19  N   UNL     1       6.848  30.546  58.451  1.00  0.00    -0.264 NA
HETATM   20  C   UNL     1       7.969  30.968  59.078  1.00  0.00     0.118 A 
HETATM   21  C   UNL     1       9.246  30.678  58.642  1.00  0.00     0.043 A 
HETATM   22  C   UNL     1       9.372  29.912  57.492  1.00  0.00     0.037 A 
HETATM   23 CL   UNL     1      10.938  29.515  56.901  1.00  0.00    -0.084 Cl
HETATM   24  C   UNL     1       8.247  29.468  56.809  1.00  0.00     0.052 A 
ENDBRANCH  17  18
ENDBRANCH   3  17
TORSDOF 5
ENDMDL
MODEL 10
REMARK VINA RESULT:      -7.4      3.031      5.225
REMARK  5 active torsions:
REMARK  status: ('A' for Active; 'I' for Inactive)
REMARK    1  A    between atoms: C_2  and  O_3 
REMARK    2  A    between atoms: O_3  and  C_4 
REMARK    3  A    between atoms: C_8  and  N_9 
REMARK       I    between atoms: N_9  and  C_10 
REMARK       I    between atoms: C_10  and  N_11 
REMARK    4  A    between atoms: N_11  and  C_12 
REMARK    5  A    between atoms: C_12  and  C_13 
ROOT
HETATM    1  N   UNL     1       7.839  30.973  60.141  1.00  0.00    -0.309 N 
HETATM    2  C   UNL     1       8.616  31.126  59.031  1.00  0.00     0.321 C 
HETATM    3  N   UNL     1       8.551  30.089  58.137  1.00  0.00    -0.337 N 
HETATM    4  O   UNL     1       9.359  32.061  58.761  1.00  0.00    -0.247 OA
HETATM    5  H   UNL     1       7.733  29.996  60.402  1.00  0.00     0.170 HD
HETATM    6  H   UNL     1       9.141  30.235  57.329  1.00  0.00     0.164 HD
ENDROOT
BRANCH   1   7
HETATM    7  C   UNL     1       7.485  31.893  61.153  1.00  0.00     0.042 A 
HETATM    8  C   UNL     1       6.419  32.807  61.138  1.00  0.00    -0.033 A 
HETATM    9  C   UNL     1       6.223  33.636  62.267  1.00  0.00     0.045 A 
HETATM   10  C   UNL     1       5.436  32.968  60.015  1.00  0.00     0.050 C 
HETATM   11  C   UNL     1       7.012  33.531  63.415  1.00  0.00     0.069 A 
HETATM   12  C   UNL     1       8.049  32.610  63.432  1.00  0.00     0.039 A 
HETATM   13  C   UNL     1       8.275  31.802  62.315  1.00  0.00     0.033 A 
BRANCH  11  14
HETATM   14  O   UNL     1       6.669  34.372  64.436  1.00  0.00    -0.351 OA
BRANCH  14  15
HETATM   15  C   UNL     1       6.615  33.799  65.742  1.00  0.00     0.171 C 
HETATM   16  C   UNL     1       5.233  34.061  66.314  1.00  0.00     0.034 C 
ENDBRANCH  14  15
ENDBRANCH  11  14
ENDBRANCH   1   7
BRANCH   3  17
HETATM   17  C   UNL     1       7.645  28.955  58.150  1.00  0.00     0.183 C 
BRANCH  17  18
HETATM   18  C   UNL     1       7.628  28.229  56.823  1.00  0.00     0.053 A 
HETATM   19  N   UNL     1       7.952  28.956  55.717  1.00  0.00    -0.264 NA
HETATM   20  C   UNL     1       7.884  28.337  54.517  1.00  0.00     0.118 A 
HETATM   21  C   UNL     1       7.520  27.016  54.355  1.00  0.00     0.043 A 
HETATM   22  C   UNL     1       7.203  26.294  55.497  1.00  0.00     0.037 A 
HETATM   23 CL   UNL     1       6.744  24.642  55.361  1.00  0.00    -0.084 Cl
HETATM   24  C   UNL     1       7.246  26.895  56.749  1.00  0.00     0.052 A 
ENDBRANCH  17  18
ENDBRANCH   3  17
TORSDOF 5
ENDMDL
