MODEL 1
REMARK VINA RESULT:      -9.1      0.000      0.000
REMARK  8 active torsions:
REMARK  status: ('A' for Active; 'I' for Inactive)
REMARK    1  A    between atoms: C_4  and  C_5 
REMARK    2  A    between atoms: C_11  and  C_12 
REMARK    3  A    between atoms: C_12  and  C_13 
REMARK       I    between atoms: C_13  and  N_14 
REMARK    4  A    between atoms: N_14  and  C_15 
REMARK    5  A    between atoms: C_20  and  C_21 
REMARK       I    between atoms: C_21  and  N_22 
REMARK    6  A    between atoms: N_22  and  C_23 
REMARK    7  A    between atoms: C_23  and  C_24 
REMARK    8  A    between atoms: C_24  and  O_25 
ROOT
HETATM    1  C   UNL     1       7.321  27.133  57.356  1.00  0.00     0.228 C 
HETATM    2  N   UNL     1       7.377  28.505  57.189  1.00  0.00    -0.325 N 
HETATM    3  O   UNL     1       7.986  26.473  58.153  1.00  0.00    -0.273 OA
HETATM    4  H   UNL     1       6.754  28.898  56.480  1.00  0.00     0.169 HD
ENDROOT
BRANCH   2   5
HETATM    5  C   UNL     1       8.218  29.439  57.836  1.00  0.00     0.057 A 
HETATM    6  C   UNL     1       9.363  29.894  57.156  1.00  0.00     0.060 A 
HETATM    7 CL   UNL     1       9.745  29.325  55.565  1.00  0.00    -0.082 Cl
HETATM    8  C   UNL     1      10.222  30.823  57.743  1.00  0.00     0.027 A 
HETATM    9  C   UNL     1       9.948  31.309  59.021  1.00  0.00     0.019 A 
HETATM   10  C   UNL     1       8.817  30.867  59.723  1.00  0.00     0.034 A 
HETATM   11  C   UNL     1       7.965  29.925  59.126  1.00  0.00     0.048 A 
BRANCH  10  12
HETATM   12  C   UNL     1       8.594  31.412  61.099  1.00  0.00     0.251 C 
HETATM   13  N   UNL     1       7.401  31.115  61.721  1.00  0.00    -0.355 N 
HETATM   14  H   UNL     1       6.621  30.755  61.187  1.00  0.00     0.162 HD
HETATM   15  O   UNL     1       9.457  32.110  61.625  1.00  0.00    -0.268 OA
BRANCH  13  16
HETATM   16  C   UNL     1       7.046  31.698  63.004  1.00  0.00     0.149 C 
BRANCH  16  17
HETATM   17  C   UNL     1       5.777  32.544  62.899  1.00  0.00     0.186 C 
BRANCH  17  18
HETATM   18  O   UNL     1       4.986  32.325  64.074  1.00  0.00    -0.394 OA
HETATM   19  C   UNL     1       4.986  33.464  64.924  1.00  0.00     0.201 C 
ENDBRANCH  17  18
ENDBRANCH  16  17
ENDBRANCH  13  16
ENDBRANCH  10  12
ENDBRANCH   2   5
BRANCH   1  20
HETATM   20  C   UNL     1       6.267  26.463  56.489  1.00  0.00     0.165 C 
BRANCH  20  21
HETATM   21  C   UNL     1       6.889  25.639  55.425  1.00  0.00     0.075 A 
HETATM   22  C   UNL     1       7.416  26.011  54.209  1.00  0.00     0.077 A 
HETATM   23  C   UNL     1       7.597  27.286  53.495  1.00  0.00     0.079 C 
HETATM   24  O   UNL     1       7.838  24.879  53.574  1.00  0.00    -0.292 OA
HETATM   25  C   UNL     1       7.541  23.852  54.439  1.00  0.00     0.204 A 
HETATM   26  N   UNL     1       6.976  24.267  55.565  1.00  0.00    -0.224 NA
BRANCH  25  27
HETATM   27  C   UNL     1       7.797  22.474  54.138  1.00  0.00     0.128 A 
HETATM   28  O   UNL     1       7.906  21.503  55.104  1.00  0.00    -0.318 OA
HETATM   29  C   UNL     1       8.162  20.326  54.481  1.00  0.00     0.142 A 
HETATM   30  C   UNL     1       8.221  20.503  53.121  1.00  0.00     0.027 A 
HETATM   31  C   UNL     1       7.986  21.881  52.899  1.00  0.00     0.043 A 
ENDBRANCH  25  27
ENDBRANCH  20  21
ENDBRANCH   1  20
TORSDOF 8
ENDMDL
MODEL 2
REMARK VINA RESULT:      -8.7      2.269     10.135
REMARK  8 active torsions:
REMARK  status: ('A' for Active; 'I' for Inactive)
REMARK    1  A    between atoms: C_4  and  C_5 
REMARK    2  A    between atoms: C_11  and  C_12 
REMARK    3  A    between atoms: C_12  and  C_13 
REMARK       I    between atoms: C_13  and  N_14 
REMARK    4  A    between atoms: N_14  and  C_15 
REMARK    5  A    between atoms: C_20  and  C_21 
REMARK       I    between atoms: C_21  and  N_22 
REMARK    6  A    between atoms: N_22  and  C_23 
REMARK    7  A    between atoms: C_23  and  C_24 
REMARK    8  A    between atoms: C_24  and  O_25 
ROOT
HETATM    1  C   UNL     1       5.819  28.923  56.420  1.00  0.00     0.228 C 
HETATM    2  N   UNL     1       6.312  28.484  55.204  1.00  0.00    -0.325 N 
HETATM    3  O   UNL     1       5.217  28.240  57.246  1.00  0.00    -0.273 OA
HETATM    4  H   UNL     1       6.792  29.183  54.633  1.00  0.00     0.169 HD
ENDROOT
BRANCH   2   5
HETATM    5  C   UNL     1       6.201  27.201  54.618  1.00  0.00     0.057 A 
HETATM    6  C   UNL     1       5.073  26.923  53.824  1.00  0.00     0.060 A 
HETATM    7 CL   UNL     1       3.842  28.114  53.569  1.00  0.00    -0.082 Cl
HETATM    8  C   UNL     1       4.917  25.679  53.214  1.00  0.00     0.027 A 
HETATM    9  C   UNL     1       5.888  24.694  53.391  1.00  0.00     0.019 A 
HETATM   10  C   UNL     1       7.019  24.943  54.183  1.00  0.00     0.034 A 
HETATM   11  C   UNL     1       7.160  26.197  54.799  1.00  0.00     0.048 A 
BRANCH  10  12
HETATM   12  C   UNL     1       8.011  23.836  54.349  1.00  0.00     0.251 C 
HETATM   13  N   UNL     1       8.171  22.955  53.301  1.00  0.00    -0.355 N 
HETATM   14  H   UNL     1       7.485  22.913  52.559  1.00  0.00     0.162 HD
HETATM   15  O   UNL     1       8.637  23.730  55.400  1.00  0.00    -0.268 OA
BRANCH  13  16
HETATM   16  C   UNL     1       9.020  21.782  53.416  1.00  0.00     0.149 C 
BRANCH  16  17
HETATM   17  C   UNL     1       8.196  20.495  53.404  1.00  0.00     0.186 C 
BRANCH  17  18
HETATM   18  O   UNL     1       8.742  19.594  54.376  1.00  0.00    -0.394 OA
HETATM   19  C   UNL     1       8.731  20.163  55.678  1.00  0.00     0.201 C 
ENDBRANCH  17  18
ENDBRANCH  16  17
ENDBRANCH  13  16
ENDBRANCH  10  12
ENDBRANCH   2   5
BRANCH   1  20
HETATM   20  C   UNL     1       6.159  30.376  56.717  1.00  0.00     0.165 C 
BRANCH  20  21
HETATM   21  C   UNL     1       7.034  30.490  57.909  1.00  0.00     0.075 A 
HETATM   22  C   UNL     1       8.266  29.930  58.161  1.00  0.00     0.077 A 
HETATM   23  C   UNL     1       9.190  29.060  57.415  1.00  0.00     0.079 C 
HETATM   24  O   UNL     1       8.646  30.309  59.415  1.00  0.00    -0.292 OA
HETATM   25  C   UNL     1       7.613  31.087  59.883  1.00  0.00     0.204 A 
HETATM   26  N   UNL     1       6.629  31.226  59.005  1.00  0.00    -0.224 NA
BRANCH  25  27
HETATM   27  C   UNL     1       7.599  31.668  61.193  1.00  0.00     0.128 A 
HETATM   28  O   UNL     1       6.483  32.250  61.744  1.00  0.00    -0.318 OA
HETATM   29  C   UNL     1       6.818  32.706  62.976  1.00  0.00     0.142 A 
HETATM   30  C   UNL     1       8.136  32.432  63.249  1.00  0.00     0.027 A 
HETATM   31  C   UNL     1       8.638  31.764  62.107  1.00  0.00     0.043 A 
ENDBRANCH  25  27
ENDBRANCH  20  21
ENDBRANCH   1  20
TORSDOF 8
ENDMDL
MODEL 3
REMARK VINA RESULT:      -8.7      3.907     11.786
REMARK  8 active torsions:
REMARK  status: ('A' for Active; 'I' for Inactive)
REMARK    1  A    between atoms: C_4  and  C_5 
REMARK    2  A    between atoms: C_11  and  C_12 
REMARK    3  A    between atoms: C_12  and  C_13 
REMARK       I    between atoms: C_13  and  N_14 
REMARK    4  A    between atoms: N_14  and  C_15 
REMARK    5  A    between atoms: C_20  and  C_21 
REMARK       I    between atoms: C_21  and  N_22 
REMARK    6  A    between atoms: N_22  and  C_23 
REMARK    7  A    between atoms: C_23  and  C_24 
REMARK    8  A    between atoms: C_24  and  O_25 
ROOT
HETATM    1  C   UNL     1       4.210  32.678  62.473  1.00  0.00     0.228 C 
HETATM    2  N   UNL     1       5.493  33.173  62.326  1.00  0.00    -0.325 N 
HETATM    3  O   UNL     1       3.849  31.524  62.250  1.00  0.00    -0.273 OA
HETATM    4  H   UNL     1       5.625  34.160  62.556  1.00  0.00     0.169 HD
ENDROOT
BRANCH   2   5
HETATM    5  C   UNL     1       6.648  32.507  61.853  1.00  0.00     0.057 A 
HETATM    6  C   UNL     1       7.774  32.440  62.695  1.00  0.00     0.060 A 
HETATM    7 CL   UNL     1       7.758  33.157  64.271  1.00  0.00    -0.082 Cl
HETATM    8  C   UNL     1       8.936  31.786  62.284  1.00  0.00     0.027 A 
HETATM    9  C   UNL     1       8.987  31.192  61.024  1.00  0.00     0.019 A 
HETATM   10  C   UNL     1       7.881  31.250  60.163  1.00  0.00     0.034 A 
HETATM   11  C   UNL     1       6.721  31.919  60.584  1.00  0.00     0.048 A 
BRANCH  10  12
HETATM   12  C   UNL     1       8.011  30.611  58.817  1.00  0.00     0.251 C 
HETATM   13  N   UNL     1       6.934  29.896  58.339  1.00  0.00    -0.355 N 
HETATM   14  H   UNL     1       6.190  29.613  58.963  1.00  0.00     0.162 HD
HETATM   15  O   UNL     1       9.059  30.725  58.186  1.00  0.00    -0.268 OA
BRANCH  13  16
HETATM   16  C   UNL     1       7.012  29.142  57.099  1.00  0.00     0.149 C 
BRANCH  16  17
HETATM   17  C   UNL     1       6.824  27.645  57.345  1.00  0.00     0.186 C 
BRANCH  17  18
HETATM   18  O   UNL     1       8.076  27.094  57.774  1.00  0.00    -0.394 OA
HETATM   19  C   UNL     1       8.152  25.700  57.506  1.00  0.00     0.201 C 
ENDBRANCH  17  18
ENDBRANCH  16  17
ENDBRANCH  13  16
ENDBRANCH  10  12
ENDBRANCH   2   5
BRANCH   1  20
HETATM   20  C   UNL     1       3.231  33.699  63.033  1.00  0.00     0.165 C 
BRANCH  20  21
HETATM   21  C   UNL     1       3.808  34.413  64.198  1.00  0.00     0.075 A 
HETATM   22  C   UNL     1       4.036  35.757  64.390  1.00  0.00     0.077 A 
HETATM   23  C   UNL     1       3.807  36.978  63.599  1.00  0.00     0.079 C 
HETATM   24  O   UNL     1       4.616  35.911  65.615  1.00  0.00    -0.292 OA
HETATM   25  C   UNL     1       4.726  34.637  66.120  1.00  0.00     0.204 A 
HETATM   26  N   UNL     1       4.246  33.709  65.303  1.00  0.00    -0.224 NA
BRANCH  25  27
HETATM   27  C   UNL     1       5.320  34.345  67.392  1.00  0.00     0.128 A 
HETATM   28  O   UNL     1       4.624  33.781  68.434  1.00  0.00    -0.318 OA
HETATM   29  C   UNL     1       5.475  33.657  69.482  1.00  0.00     0.142 A 
HETATM   30  C   UNL     1       6.722  34.127  69.149  1.00  0.00     0.027 A 
HETATM   31  C   UNL     1       6.625  34.568  67.807  1.00  0.00     0.043 A 
ENDBRANCH  25  27
ENDBRANCH  20  21
ENDBRANCH   1  20
TORSDOF 8
ENDMDL
MODEL 4
REMARK VINA RESULT:      -8.6      1.838      2.051
REMARK  8 active torsions:
REMARK  status: ('A' for Active; 'I' for Inactive)
REMARK    1  A    between atoms: C_4  and  C_5 
REMARK    2  A    between atoms: C_11  and  C_12 
REMARK    3  A    between atoms: C_12  and  C_13 
REMARK       I    between atoms: C_13  and  N_14 
REMARK    4  A    between atoms: N_14  and  C_15 
REMARK    5  A    between atoms: C_20  and  C_21 
REMARK       I    between atoms: C_21  and  N_22 
REMARK    6  A    between atoms: N_22  and  C_23 
REMARK    7  A    between atoms: C_23  and  C_24 
REMARK    8  A    between atoms: C_24  and  O_25 
ROOT
HETATM    1  C   UNL     1       5.697  28.901  55.821  1.00  0.00     0.228 C 
HETATM    2  N   UNL     1       6.867  28.419  56.381  1.00  0.00    -0.325 N 
HETATM    3  O   UNL     1       5.434  30.082  55.602  1.00  0.00    -0.273 OA
HETATM    4  H   UNL     1       6.928  27.405  56.494  1.00  0.00     0.169 HD
ENDROOT
BRANCH   2   5
HETATM    5  C   UNL     1       7.979  29.146  56.866  1.00  0.00     0.057 A 
HETATM    6  C   UNL     1       9.091  29.312  56.019  1.00  0.00     0.060 A 
HETATM    7 CL   UNL     1       9.108  28.643  54.422  1.00  0.00    -0.082 Cl
HETATM    8  C   UNL     1      10.211  30.029  56.441  1.00  0.00     0.027 A 
HETATM    9  C   UNL     1      10.234  30.587  57.719  1.00  0.00     0.019 A 
HETATM   10  C   UNL     1       9.142  30.430  58.585  1.00  0.00     0.034 A 
HETATM   11  C   UNL     1       8.024  29.699  58.152  1.00  0.00     0.048 A 
BRANCH  10  12
HETATM   12  C   UNL     1       9.242  31.036  59.950  1.00  0.00     0.251 C 
HETATM   13  N   UNL     1       8.670  30.350  61.000  1.00  0.00    -0.355 N 
HETATM   14  H   UNL     1       8.009  29.604  60.824  1.00  0.00     0.162 HD
HETATM   15  O   UNL     1       9.809  32.115  60.098  1.00  0.00    -0.268 OA
BRANCH  13  16
HETATM   16  C   UNL     1       8.612  30.916  62.336  1.00  0.00     0.149 C 
BRANCH  16  17
HETATM   17  C   UNL     1       7.291  31.647  62.574  1.00  0.00     0.186 C 
BRANCH  17  18
HETATM   18  O   UNL     1       7.580  33.002  62.941  1.00  0.00    -0.394 OA
HETATM   19  C   UNL     1       7.569  33.175  64.352  1.00  0.00     0.201 C 
ENDBRANCH  17  18
ENDBRANCH  16  17
ENDBRANCH  13  16
ENDBRANCH  10  12
ENDBRANCH   2   5
BRANCH   1  20
HETATM   20  C   UNL     1       4.734  27.803  55.399  1.00  0.00     0.165 C 
BRANCH  20  21
HETATM   21  C   UNL     1       5.387  26.838  54.482  1.00  0.00     0.075 A 
HETATM   22  C   UNL     1       5.535  26.876  53.114  1.00  0.00     0.077 A 
HETATM   23  C   UNL     1       5.160  27.822  52.049  1.00  0.00     0.079 C 
HETATM   24  O   UNL     1       6.180  25.736  52.733  1.00  0.00    -0.292 OA
HETATM   25  C   UNL     1       6.393  25.039  53.899  1.00  0.00     0.204 A 
HETATM   26  N   UNL     1       5.938  25.671  54.973  1.00  0.00    -0.224 NA
BRANCH  25  27
HETATM   27  C   UNL     1       7.025  23.753  53.940  1.00  0.00     0.128 A 
HETATM   28  O   UNL     1       7.136  23.008  55.089  1.00  0.00    -0.318 OA
HETATM   29  C   UNL     1       7.793  21.863  54.779  1.00  0.00     0.142 A 
HETATM   30  C   UNL     1       8.114  21.838  53.444  1.00  0.00     0.027 A 
HETATM   31  C   UNL     1       7.620  23.049  52.904  1.00  0.00     0.043 A 
ENDBRANCH  25  27
ENDBRANCH  20  21
ENDBRANCH   1  20
TORSDOF 8
ENDMDL
MODEL 5
REMARK VINA RESULT:      -8.3      2.372      9.941
REMARK  8 active torsions:
REMARK  status: ('A' for Active; 'I' for Inactive)
REMARK    1  A    between atoms: C_4  and  C_5 
REMARK    2  A    between atoms: C_11  and  C_12 
REMARK    3  A    between atoms: C_12  and  C_13 
REMARK       I    between atoms: C_13  and  N_14 
REMARK    4  A    between atoms: N_14  and  C_15 
REMARK    5  A    between atoms: C_20  and  C_21 
REMARK       I    between atoms: C_21  and  N_22 
REMARK    6  A    between atoms: N_22  and  C_23 
REMARK    7  A    between atoms: C_23  and  C_24 
REMARK    8  A    between atoms: C_24  and  O_25 
ROOT
HETATM    1  C   UNL     1       9.095  29.554  57.368  1.00  0.00     0.228 C 
HETATM    2  N   UNL     1       8.242  28.655  57.984  1.00  0.00    -0.325 N 
HETATM    3  O   UNL     1       9.363  29.591  56.168  1.00  0.00    -0.273 OA
HETATM    4  H   UNL     1       8.127  28.762  58.994  1.00  0.00     0.169 HD
ENDROOT
BRANCH   2   5
HETATM    5  C   UNL     1       7.539  27.570  57.410  1.00  0.00     0.057 A 
HETATM    6  C   UNL     1       6.167  27.731  57.137  1.00  0.00     0.060 A 
HETATM    7 CL   UNL     1       5.351  29.216  57.496  1.00  0.00    -0.082 Cl
HETATM    8  C   UNL     1       5.427  26.698  56.562  1.00  0.00     0.027 A 
HETATM    9  C   UNL     1       6.048  25.489  56.254  1.00  0.00     0.019 A 
HETATM   10  C   UNL     1       7.412  25.301  56.522  1.00  0.00     0.034 A 
HETATM   11  C   UNL     1       8.145  26.344  57.109  1.00  0.00     0.048 A 
BRANCH  10  12
HETATM   12  C   UNL     1       8.011  23.971  56.187  1.00  0.00     0.251 C 
HETATM   13  N   UNL     1       8.446  23.770  54.895  1.00  0.00    -0.355 N 
HETATM   14  H   UNL     1       8.155  24.395  54.154  1.00  0.00     0.162 HD
HETATM   15  O   UNL     1       8.088  23.101  57.051  1.00  0.00    -0.268 OA
BRANCH  13  16
HETATM   16  C   UNL     1       8.928  22.475  54.447  1.00  0.00     0.149 C 
BRANCH  16  17
HETATM   17  C   UNL     1       7.889  21.763  53.581  1.00  0.00     0.186 C 
BRANCH  17  18
HETATM   18  O   UNL     1       7.678  20.448  54.113  1.00  0.00    -0.394 OA
HETATM   19  C   UNL     1       8.743  20.052  54.966  1.00  0.00     0.201 C 
ENDBRANCH  17  18
ENDBRANCH  16  17
ENDBRANCH  13  16
ENDBRANCH  10  12
ENDBRANCH   2   5
BRANCH   1  20
HETATM   20  C   UNL     1       9.653  30.602  58.318  1.00  0.00     0.165 C 
BRANCH  20  21
HETATM   21  C   UNL     1       8.599  31.122  59.223  1.00  0.00     0.075 A 
HETATM   22  C   UNL     1       8.486  31.037  60.593  1.00  0.00     0.077 A 
HETATM   23  C   UNL     1       9.301  30.459  61.674  1.00  0.00     0.079 C 
HETATM   24  O   UNL     1       7.318  31.644  60.952  1.00  0.00    -0.292 OA
HETATM   25  C   UNL     1       6.759  32.072  59.771  1.00  0.00     0.204 A 
HETATM   26  N   UNL     1       7.501  31.783  58.710  1.00  0.00    -0.224 NA
BRANCH  25  27
HETATM   27  C   UNL     1       5.493  32.740  59.699  1.00  0.00     0.128 A 
HETATM   28  O   UNL     1       4.839  33.230  60.804  1.00  0.00    -0.318 OA
HETATM   29  C   UNL     1       3.675  33.784  60.384  1.00  0.00     0.142 A 
HETATM   30  C   UNL     1       3.551  33.671  59.021  1.00  0.00     0.027 A 
HETATM   31  C   UNL     1       4.718  33.003  58.579  1.00  0.00     0.043 A 
ENDBRANCH  25  27
ENDBRANCH  20  21
ENDBRANCH   1  20
TORSDOF 8
ENDMDL
MODEL 6
REMARK VINA RESULT:      -8.3      2.157      2.567
REMARK  8 active torsions:
REMARK  status: ('A' for Active; 'I' for Inactive)
REMARK    1  A    between atoms: C_4  and  C_5 
REMARK    2  A    between atoms: C_11  and  C_12 
REMARK    3  A    between atoms: C_12  and  C_13 
REMARK       I    between atoms: C_13  and  N_14 
REMARK    4  A    between atoms: N_14  and  C_15 
REMARK    5  A    between atoms: C_20  and  C_21 
REMARK       I    between atoms: C_21  and  N_22 
REMARK    6  A    between atoms: N_22  and  C_23 
REMARK    7  A    between atoms: C_23  and  C_24 
REMARK    8  A    between atoms: C_24  and  O_25 
ROOT
HETATM    1  C   UNL     1       7.114  27.848  55.150  1.00  0.00     0.228 C 
HETATM    2  N   UNL     1       7.144  29.225  55.285  1.00  0.00    -0.325 N 
HETATM    3  O   UNL     1       6.633  27.053  55.955  1.00  0.00    -0.273 OA
HETATM    4  H   UNL     1       7.581  29.743  54.519  1.00  0.00     0.169 HD
ENDROOT
BRANCH   2   5
HETATM    5  C   UNL     1       6.692  30.016  56.366  1.00  0.00     0.057 A 
HETATM    6  C   UNL     1       5.353  30.450  56.364  1.00  0.00     0.060 A 
HETATM    7 CL   UNL     1       4.278  30.033  55.072  1.00  0.00    -0.082 Cl
HETATM    8  C   UNL     1       4.851  31.224  57.411  1.00  0.00     0.027 A 
HETATM    9  C   UNL     1       5.683  31.577  58.472  1.00  0.00     0.019 A 
HETATM   10  C   UNL     1       7.023  31.163  58.494  1.00  0.00     0.034 A 
HETATM   11  C   UNL     1       7.520  30.392  57.432  1.00  0.00     0.048 A 
BRANCH  10  12
HETATM   12  C   UNL     1       7.867  31.596  59.652  1.00  0.00     0.251 C 
HETATM   13  N   UNL     1       7.614  31.022  60.880  1.00  0.00    -0.355 N 
HETATM   14  H   UNL     1       6.750  30.521  61.042  1.00  0.00     0.162 HD
HETATM   15  O   UNL     1       8.739  32.445  59.489  1.00  0.00    -0.268 OA
BRANCH  13  16
HETATM   16  C   UNL     1       8.298  31.466  62.082  1.00  0.00     0.149 C 
BRANCH  16  17
HETATM   17  C   UNL     1       7.328  32.122  63.065  1.00  0.00     0.186 C 
BRANCH  17  18
HETATM   18  O   UNL     1       8.089  32.858  64.033  1.00  0.00    -0.394 OA
HETATM   19  C   UNL     1       7.267  33.748  64.775  1.00  0.00     0.201 C 
ENDBRANCH  17  18
ENDBRANCH  16  17
ENDBRANCH  13  16
ENDBRANCH  10  12
ENDBRANCH   2   5
BRANCH   1  20
HETATM   20  C   UNL     1       7.679  27.360  53.825  1.00  0.00     0.165 C 
BRANCH  20  21
HETATM   21  C   UNL     1       7.225  25.982  53.522  1.00  0.00     0.075 A 
HETATM   22  C   UNL     1       6.111  25.545  52.841  1.00  0.00     0.077 A 
HETATM   23  C   UNL     1       4.984  26.198  52.154  1.00  0.00     0.079 C 
HETATM   24  O   UNL     1       6.121  24.181  52.858  1.00  0.00    -0.292 OA
HETATM   25  C   UNL     1       7.251  23.840  53.564  1.00  0.00     0.204 A 
HETATM   26  N   UNL     1       7.945  24.893  53.974  1.00  0.00    -0.224 NA
BRANCH  25  27
HETATM   27  C   UNL     1       7.623  22.484  53.843  1.00  0.00     0.128 A 
HETATM   28  O   UNL     1       7.584  21.940  55.104  1.00  0.00    -0.318 OA
HETATM   29  C   UNL     1       8.010  20.656  55.015  1.00  0.00     0.142 A 
HETATM   30  C   UNL     1       8.327  20.343  53.716  1.00  0.00     0.027 A 
HETATM   31  C   UNL     1       8.078  21.515  52.962  1.00  0.00     0.043 A 
ENDBRANCH  25  27
ENDBRANCH  20  21
ENDBRANCH   1  20
TORSDOF 8
ENDMDL
MODEL 7
REMARK VINA RESULT:      -8.2      2.116      2.452
REMARK  8 active torsions:
REMARK  status: ('A' for Active; 'I' for Inactive)
REMARK    1  A    between atoms: C_4  and  C_5 
REMARK    2  A    between atoms: C_11  and  C_12 
REMARK    3  A    between atoms: C_12  and  C_13 
REMARK       I    between atoms: C_13  and  N_14 
REMARK    4  A    between atoms: N_14  and  C_15 
REMARK    5  A    between atoms: C_20  and  C_21 
REMARK       I    between atoms: C_21  and  N_22 
REMARK    6  A    between atoms: N_22  and  C_23 
REMARK    7  A    between atoms: C_23  and  C_24 
REMARK    8  A    between atoms: C_24  and  O_25 
ROOT
HETATM    1  C   UNL     1       8.028  27.926  56.527  1.00  0.00     0.228 C 
HETATM    2  N   UNL     1       7.911  29.304  56.564  1.00  0.00    -0.325 N 
HETATM    3  O   UNL     1       8.360  27.202  57.464  1.00  0.00    -0.273 OA
HETATM    4  H   UNL     1       7.621  29.756  55.694  1.00  0.00     0.169 HD
ENDROOT
BRANCH   2   5
HETATM    5  C   UNL     1       8.185  30.184  57.637  1.00  0.00     0.057 A 
HETATM    6  C   UNL     1       9.527  30.509  57.910  1.00  0.00     0.060 A 
HETATM    7 CL   UNL     1      10.819  29.849  56.965  1.00  0.00    -0.082 Cl
HETATM    8  C   UNL     1       9.855  31.380  58.950  1.00  0.00     0.027 A 
HETATM    9  C   UNL     1       8.843  31.936  59.732  1.00  0.00     0.019 A 
HETATM   10  C   UNL     1       7.498  31.623  59.484  1.00  0.00     0.034 A 
HETATM   11  C   UNL     1       7.182  30.739  58.441  1.00  0.00     0.048 A 
BRANCH  10  12
HETATM   12  C   UNL     1       6.465  32.238  60.375  1.00  0.00     0.251 C 
HETATM   13  N   UNL     1       5.140  31.978  60.096  1.00  0.00    -0.355 N 
HETATM   14  H   UNL     1       4.872  31.596  59.198  1.00  0.00     0.162 HD
HETATM   15  O   UNL     1       6.813  32.957  61.308  1.00  0.00    -0.268 OA
BRANCH  13  16
HETATM   16  C   UNL     1       4.067  32.626  60.830  1.00  0.00     0.149 C 
BRANCH  16  17
HETATM   17  C   UNL     1       3.385  33.702  59.984  1.00  0.00     0.186 C 
BRANCH  17  18
HETATM   18  O   UNL     1       1.993  33.736  60.327  1.00  0.00    -0.394 OA
HETATM   19  C   UNL     1       1.751  34.585  61.441  1.00  0.00     0.201 C 
ENDBRANCH  17  18
ENDBRANCH  16  17
ENDBRANCH  13  16
ENDBRANCH  10  12
ENDBRANCH   2   5
BRANCH   1  20
HETATM   20  C   UNL     1       7.620  27.323  55.191  1.00  0.00     0.165 C 
BRANCH  20  21
HETATM   21  C   UNL     1       7.175  25.918  55.349  1.00  0.00     0.075 A 
HETATM   22  C   UNL     1       6.141  25.394  56.092  1.00  0.00     0.077 A 
HETATM   23  C   UNL     1       5.098  25.951  56.969  1.00  0.00     0.079 C 
HETATM   24  O   UNL     1       6.161  24.039  55.935  1.00  0.00    -0.292 OA
HETATM   25  C   UNL     1       7.223  23.791  55.097  1.00  0.00     0.204 A 
HETATM   26  N   UNL     1       7.854  24.894  54.718  1.00  0.00    -0.224 NA
BRANCH  25  27
HETATM   27  C   UNL     1       7.616  22.472  54.697  1.00  0.00     0.128 A 
HETATM   28  O   UNL     1       7.753  22.096  53.383  1.00  0.00    -0.318 OA
HETATM   29  C   UNL     1       8.119  20.791  53.361  1.00  0.00     0.142 A 
HETATM   30  C   UNL     1       8.230  20.300  54.639  1.00  0.00     0.027 A 
HETATM   31  C   UNL     1       7.909  21.378  55.498  1.00  0.00     0.043 A 
ENDBRANCH  25  27
ENDBRANCH  20  21
ENDBRANCH   1  20
TORSDOF 8
ENDMDL
MODEL 8
REMARK VINA RESULT:      -7.9      3.700     10.279
REMARK  8 active torsions:
REMARK  status: ('A' for Active; 'I' for Inactive)
REMARK    1  A    between atoms: C_4  and  C_5 
REMARK    2  A    between atoms: C_11  and  C_12 
REMARK    3  A    between atoms: C_12  and  C_13 
REMARK       I    between atoms: C_13  and  N_14 
REMARK    4  A    between atoms: N_14  and  C_15 
REMARK    5  A    between atoms: C_20  and  C_21 
REMARK       I    between atoms: C_21  and  N_22 
REMARK    6  A    between atoms: N_22  and  C_23 
REMARK    7  A    between atoms: C_23  and  C_24 
REMARK    8  A    between atoms: C_24  and  O_25 
ROOT
HETATM    1  C   UNL     1       7.240  27.080  56.172  1.00  0.00     0.228 C 
HETATM    2  N   UNL     1       7.567  26.340  55.049  1.00  0.00    -0.325 N 
HETATM    3  O   UNL     1       6.143  27.578  56.416  1.00  0.00    -0.273 OA
HETATM    4  H   UNL     1       8.528  25.995  55.000  1.00  0.00     0.169 HD
ENDROOT
BRANCH   2   5
HETATM    5  C   UNL     1       6.760  26.033  53.929  1.00  0.00     0.057 A 
HETATM    6  C   UNL     1       6.394  24.691  53.715  1.00  0.00     0.060 A 
HETATM    7 CL   UNL     1       6.918  23.438  54.789  1.00  0.00    -0.082 Cl
HETATM    8  C   UNL     1       5.591  24.333  52.632  1.00  0.00     0.027 A 
HETATM    9  C   UNL     1       5.145  25.313  51.746  1.00  0.00     0.019 A 
HETATM   10  C   UNL     1       5.501  26.657  51.933  1.00  0.00     0.034 A 
HETATM   11  C   UNL     1       6.317  27.004  53.022  1.00  0.00     0.048 A 
BRANCH  10  12
HETATM   12  C   UNL     1       5.006  27.655  50.934  1.00  0.00     0.251 C 
HETATM   13  N   UNL     1       3.907  27.312  50.175  1.00  0.00    -0.355 N 
HETATM   14  H   UNL     1       3.602  26.349  50.123  1.00  0.00     0.162 HD
HETATM   15  O   UNL     1       5.587  28.729  50.805  1.00  0.00    -0.268 OA
BRANCH  13  16
HETATM   16  C   UNL     1       3.430  28.163  49.099  1.00  0.00     0.149 C 
BRANCH  16  17
HETATM   17  C   UNL     1       3.352  27.399  47.777  1.00  0.00     0.186 C 
BRANCH  17  18
HETATM   18  O   UNL     1       4.660  26.906  47.458  1.00  0.00    -0.394 OA
HETATM   19  C   UNL     1       5.573  27.968  47.213  1.00  0.00     0.201 C 
ENDBRANCH  17  18
ENDBRANCH  16  17
ENDBRANCH  13  16
ENDBRANCH  10  12
ENDBRANCH   2   5
BRANCH   1  20
HETATM   20  C   UNL     1       8.375  27.177  57.179  1.00  0.00     0.165 C 
BRANCH  20  21
HETATM   21  C   UNL     1       8.601  28.581  57.600  1.00  0.00     0.075 A 
HETATM   22  C   UNL     1       9.340  29.578  57.003  1.00  0.00     0.077 A 
HETATM   23  C   UNL     1      10.147  29.687  55.776  1.00  0.00     0.079 C 
HETATM   24  O   UNL     1       9.264  30.685  57.797  1.00  0.00    -0.292 OA
HETATM   25  C   UNL     1       8.478  30.309  58.861  1.00  0.00     0.204 A 
HETATM   26  N   UNL     1       8.055  29.054  58.777  1.00  0.00    -0.224 NA
BRANCH  25  27
HETATM   27  C   UNL     1       8.171  31.181  59.956  1.00  0.00     0.128 A 
HETATM   28  O   UNL     1       8.782  31.088  61.184  1.00  0.00    -0.318 OA
HETATM   29  C   UNL     1       8.251  32.045  61.984  1.00  0.00     0.142 A 
HETATM   30  C   UNL     1       7.302  32.770  61.305  1.00  0.00     0.027 A 
HETATM   31  C   UNL     1       7.251  32.217  60.003  1.00  0.00     0.043 A 
ENDBRANCH  25  27
ENDBRANCH  20  21
ENDBRANCH   1  20
TORSDOF 8
ENDMDL
MODEL 9
REMARK VINA RESULT:      -7.9      5.356      9.237
REMARK  8 active torsions:
REMARK  status: ('A' for Active; 'I' for Inactive)
REMARK    1  A    between atoms: C_4  and  C_5 
REMARK    2  A    between atoms: C_11  and  C_12 
REMARK    3  A    between atoms: C_12  and  C_13 
REMARK       I    between atoms: C_13  and  N_14 
REMARK    4  A    between atoms: N_14  and  C_15 
REMARK    5  A    between atoms: C_20  and  C_21 
REMARK       I    between atoms: C_21  and  N_22 
REMARK    6  A    between atoms: N_22  and  C_23 
REMARK    7  A    between atoms: C_23  and  C_24 
REMARK    8  A    between atoms: C_24  and  O_25 
ROOT
HETATM    1  C   UNL     1       5.642  33.747  62.241  1.00  0.00     0.228 C 
HETATM    2  N   UNL     1       5.012  33.391  63.420  1.00  0.00    -0.325 N 
HETATM    3  O   UNL     1       6.288  34.776  62.048  1.00  0.00    -0.273 OA
HETATM    4  H   UNL     1       4.516  32.498  63.414  1.00  0.00     0.169 HD
ENDROOT
BRANCH   2   5
HETATM    5  C   UNL     1       4.920  34.122  64.627  1.00  0.00     0.057 A 
HETATM    6  C   UNL     1       4.024  35.206  64.688  1.00  0.00     0.060 A 
HETATM    7 CL   UNL     1       3.055  35.644  63.321  1.00  0.00    -0.082 Cl
HETATM    8  C   UNL     1       3.885  35.955  65.856  1.00  0.00     0.027 A 
HETATM    9  C   UNL     1       4.644  35.631  66.981  1.00  0.00     0.019 A 
HETATM   10  C   UNL     1       5.550  34.561  66.944  1.00  0.00     0.034 A 
HETATM   11  C   UNL     1       5.687  33.820  65.760  1.00  0.00     0.048 A 
BRANCH  10  12
HETATM   12  C   UNL     1       6.349  34.282  68.178  1.00  0.00     0.251 C 
HETATM   13  N   UNL     1       5.718  33.632  69.218  1.00  0.00    -0.355 N 
HETATM   14  H   UNL     1       4.709  33.566  69.242  1.00  0.00     0.162 HD
HETATM   15  O   UNL     1       7.521  34.643  68.241  1.00  0.00    -0.268 OA
BRANCH  13  16
HETATM   16  C   UNL     1       6.375  33.427  70.497  1.00  0.00     0.149 C 
BRANCH  16  17
HETATM   17  C   UNL     1       6.290  34.676  71.374  1.00  0.00     0.186 C 
BRANCH  17  18
HETATM   18  O   UNL     1       4.985  34.731  71.963  1.00  0.00    -0.394 OA
HETATM   19  C   UNL     1       5.039  34.547  73.371  1.00  0.00     0.201 C 
ENDBRANCH  17  18
ENDBRANCH  16  17
ENDBRANCH  13  16
ENDBRANCH  10  12
ENDBRANCH   2   5
BRANCH   1  20
HETATM   20  C   UNL     1       5.540  32.684  61.159  1.00  0.00     0.165 C 
BRANCH  20  21
HETATM   21  C   UNL     1       6.854  32.046  60.906  1.00  0.00     0.075 A 
HETATM   22  C   UNL     1       7.915  31.832  61.757  1.00  0.00     0.077 A 
HETATM   23  C   UNL     1       8.182  32.100  63.181  1.00  0.00     0.079 C 
HETATM   24  O   UNL     1       8.912  31.238  61.040  1.00  0.00    -0.292 OA
HETATM   25  C   UNL     1       8.413  31.121  59.764  1.00  0.00     0.204 A 
HETATM   26  N   UNL     1       7.178  31.589  59.643  1.00  0.00    -0.224 NA
BRANCH  25  27
HETATM   27  C   UNL     1       9.165  30.569  58.675  1.00  0.00     0.128 A 
HETATM   28  O   UNL     1       8.834  29.388  58.057  1.00  0.00    -0.318 OA
HETATM   29  C   UNL     1       9.753  29.155  57.089  1.00  0.00     0.142 A 
HETATM   30  C   UNL     1      10.683  30.164  57.054  1.00  0.00     0.027 A 
HETATM   31  C   UNL     1      10.307  31.074  58.071  1.00  0.00     0.043 A 
ENDBRANCH  25  27
ENDBRANCH  20  21
ENDBRANCH   1  20
TORSDOF 8
ENDMDL
MODEL 10
REMARK VINA RESULT:      -7.8      4.181     12.125
REMARK  8 active torsions:
REMARK  status: ('A' for Active; 'I' for Inactive)
REMARK    1  A    between atoms: C_4  and  C_5 
REMARK    2  A    between atoms: C_11  and  C_12 
REMARK    3  A    between atoms: C_12  and  C_13 
REMARK       I    between atoms: C_13  and  N_14 
REMARK    4  A    between atoms: N_14  and  C_15 
REMARK    5  A    between atoms: C_20  and  C_21 
REMARK       I    between atoms: C_21  and  N_22 
REMARK    6  A    between atoms: N_22  and  C_23 
REMARK    7  A    between atoms: C_23  and  C_24 
REMARK    8  A    between atoms: C_24  and  O_25 
ROOT
HETATM    1  C   UNL     1       4.314  33.314  62.573  1.00  0.00     0.228 C 
HETATM    2  N   UNL     1       5.589  33.637  62.143  1.00  0.00    -0.325 N 
HETATM    3  O   UNL     1       3.899  32.183  62.819  1.00  0.00    -0.273 OA
HETATM    4  H   UNL     1       5.773  34.630  61.985  1.00  0.00     0.169 HD
ENDROOT
BRANCH   2   5
HETATM    5  C   UNL     1       6.667  32.771  61.846  1.00  0.00     0.057 A 
HETATM    6  C   UNL     1       7.672  32.596  62.815  1.00  0.00     0.060 A 
HETATM    7 CL   UNL     1       7.603  33.421  64.336  1.00  0.00    -0.082 Cl
HETATM    8  C   UNL     1       8.753  31.746  62.579  1.00  0.00     0.027 A 
HETATM    9  C   UNL     1       8.843  31.059  61.369  1.00  0.00     0.019 A 
HETATM   10  C   UNL     1       7.857  31.222  60.383  1.00  0.00     0.034 A 
HETATM   11  C   UNL     1       6.779  32.087  60.629  1.00  0.00     0.048 A 
BRANCH  10  12
HETATM   12  C   UNL     1       8.027  30.473  59.099  1.00  0.00     0.251 C 
HETATM   13  N   UNL     1       7.014  30.559  58.168  1.00  0.00    -0.355 N 
HETATM   14  H   UNL     1       6.102  30.907  58.434  1.00  0.00     0.162 HD
HETATM   15  O   UNL     1       9.038  29.801  58.913  1.00  0.00    -0.268 OA
BRANCH  13  16
HETATM   16  C   UNL     1       7.035  29.772  56.946  1.00  0.00     0.149 C 
BRANCH  16  17
HETATM   17  C   UNL     1       6.153  28.530  57.068  1.00  0.00     0.186 C 
BRANCH  17  18
HETATM   18  O   UNL     1       6.869  27.409  56.534  1.00  0.00    -0.394 OA
HETATM   19  C   UNL     1       7.704  26.807  57.514  1.00  0.00     0.201 C 
ENDBRANCH  17  18
ENDBRANCH  16  17
ENDBRANCH  13  16
ENDBRANCH  10  12
ENDBRANCH   2   5
BRANCH   1  20
HETATM   20  C   UNL     1       3.432  34.529  62.807  1.00  0.00     0.165 C 
BRANCH  20  21
HETATM   21  C   UNL     1       4.198  35.639  63.425  1.00  0.00     0.075 A 
HETATM   22  C   UNL     1       4.288  36.027  64.743  1.00  0.00     0.077 A 
HETATM   23  C   UNL     1       3.728  35.543  66.016  1.00  0.00     0.079 C 
HETATM   24  O   UNL     1       5.093  37.127  64.798  1.00  0.00    -0.292 OA
HETATM   25  C   UNL     1       5.458  37.369  63.494  1.00  0.00     0.204 A 
HETATM   26  N   UNL     1       4.946  36.494  62.640  1.00  0.00    -0.224 NA
BRANCH  25  27
HETATM   27  C   UNL     1       6.288  38.471  63.103  1.00  0.00     0.128 A 
HETATM   28  O   UNL     1       6.737  38.652  61.817  1.00  0.00    -0.318 OA
HETATM   29  C   UNL     1       7.502  39.772  61.800  1.00  0.00     0.142 A 
HETATM   30  C   UNL     1       7.563  40.333  63.051  1.00  0.00     0.027 A 
HETATM   31  C   UNL     1       6.783  39.501  63.889  1.00  0.00     0.043 A 
ENDBRANCH  25  27
ENDBRANCH  20  21
ENDBRANCH   1  20
TORSDOF 8
ENDMDL
