MODEL 1
REMARK VINA RESULT:     -10.0      0.000      0.000
REMARK  8 active torsions:
REMARK  status: ('A' for Active; 'I' for Inactive)
REMARK    1  A    between atoms: C_2  and  C_3 
REMARK    2  A    between atoms: C_6  and  C_7 
REMARK    3  A    between atoms: C_8  and  C_9 
REMARK       I    between atoms: C_9  and  N_10 
REMARK    4  A    between atoms: N_10  and  C_11 
REMARK    5  A    between atoms: C_11  and  N_12 
REMARK    6  A    between atoms: N_12  and  C_13 
REMARK    7  A    between atoms: C_16  and  N_17 
REMARK       I    between atoms: N_20  and  C_21 
REMARK    8  A    between atoms: C_21  and  C_22 
ROOT
HETATM    1  C   UNL     1       5.401  28.822  52.604  1.00  0.00     0.034 A 
HETATM    2  C   UNL     1       4.306  29.235  53.351  1.00  0.00     0.032 A 
HETATM    3  C   UNL     1       4.380  29.268  54.752  1.00  0.00     0.031 A 
HETATM    4  C   UNL     1       5.538  28.896  55.456  1.00  0.00     0.030 A 
HETATM    5  C   UNL     1       6.591  28.398  54.676  1.00  0.00     0.031 A 
HETATM    6  C   UNL     1       6.528  28.357  53.276  1.00  0.00     0.032 A 
ENDROOT
BRANCH   1   7
HETATM    7  N   UNL     1       5.433  28.795  51.194  1.00  0.00    -0.333 N 
HETATM    8  H   UNL     1       6.341  28.562  50.803  1.00  0.00     0.168 HD
BRANCH   7   9
HETATM    9  C   UNL     1       4.423  28.691  50.302  1.00  0.00     0.179 C 
HETATM   10  S   UNL     1       3.685  30.094  49.766  1.00  0.00    -0.040 SA
BRANCH   9  11
HETATM   11  N   UNL     1       3.942  27.492  49.851  1.00  0.00    -0.300 N 
HETATM   12  C   UNL     1       4.335  26.163  49.871  1.00  0.00     0.247 C 
HETATM   13  O   UNL     1       3.784  25.358  49.122  1.00  0.00    -0.268 OA
HETATM   14  H   UNL     1       3.047  27.582  49.387  1.00  0.00     0.171 HD
BRANCH  12  15
HETATM   15  C   UNL     1       5.385  25.748  50.831  1.00  0.00     0.075 C 
HETATM   16  C   UNL     1       5.010  25.206  52.001  1.00  0.00     0.017 C 
BRANCH  16  17
HETATM   17  C   UNL     1       5.911  24.714  53.054  1.00  0.00    -0.036 A 
HETATM   18  C   UNL     1       7.101  24.085  52.670  1.00  0.00     0.012 A 
HETATM   19  C   UNL     1       8.028  23.648  53.623  1.00  0.00     0.008 A 
HETATM   20  C   UNL     1       7.787  23.824  54.990  1.00  0.00    -0.055 A 
HETATM   21  C   UNL     1       6.603  24.469  55.375  1.00  0.00     0.008 A 
HETATM   22  C   UNL     1       5.678  24.911  54.419  1.00  0.00     0.012 A 
BRANCH  20  23
HETATM   23  C   UNL     1       8.782  23.384  56.051  1.00  0.00     0.010 C 
HETATM   24  C   UNL     1       8.494  21.948  56.490  1.00  0.00     0.015 C 
HETATM   25  C   UNL     1       8.832  24.318  57.265  1.00  0.00     0.015 C 
ENDBRANCH  20  23
ENDBRANCH  16  17
ENDBRANCH  12  15
ENDBRANCH   9  11
ENDBRANCH   7   9
ENDBRANCH   1   7
BRANCH   4  26
HETATM   26  N   UNL     1       5.584  28.972  56.852  1.00  0.00    -0.378 N 
HETATM   27  C   UNL     1       6.890  28.927  57.562  1.00  0.00     0.143 C 
HETATM   28  C   UNL     1       7.505  30.337  57.652  1.00  0.00     0.146 C 
HETATM   29  N   UNL     1       6.567  31.251  58.320  1.00  0.00    -0.343 N 
HETATM   30  C   UNL     1       6.763  31.933  59.520  1.00  0.00     0.277 C 
HETATM   31  C   UNL     1       5.264  31.330  57.648  1.00  0.00     0.146 C 
HETATM   32  O   UNL     1       5.941  32.772  59.895  1.00  0.00    -0.265 OA
HETATM   33  C   UNL     1       4.638  29.922  57.512  1.00  0.00     0.143 C 
BRANCH  30  34
HETATM   34  C   UNL     1       7.947  31.665  60.319  1.00  0.00     0.142 A 
HETATM   35  O   UNL     1       8.166  30.432  60.878  1.00  0.00    -0.317 OA
HETATM   36  C   UNL     1       9.315  30.508  61.597  1.00  0.00     0.143 A 
HETATM   37  C   UNL     1       9.834  31.779  61.544  1.00  0.00     0.027 A 
HETATM   38  C   UNL     1       8.943  32.531  60.741  1.00  0.00     0.045 A 
ENDBRANCH  30  34
ENDBRANCH   4  26
TORSDOF 8
ENDMDL
MODEL 2
REMARK VINA RESULT:      -9.5      3.515      5.184
REMARK  8 active torsions:
REMARK  status: ('A' for Active; 'I' for Inactive)
REMARK    1  A    between atoms: C_2  and  C_3 
REMARK    2  A    between atoms: C_6  and  C_7 
REMARK    3  A    between atoms: C_8  and  C_9 
REMARK       I    between atoms: C_9  and  N_10 
REMARK    4  A    between atoms: N_10  and  C_11 
REMARK    5  A    between atoms: C_11  and  N_12 
REMARK    6  A    between atoms: N_12  and  C_13 
REMARK    7  A    between atoms: C_16  and  N_17 
REMARK       I    between atoms: N_20  and  C_21 
REMARK    8  A    between atoms: C_21  and  C_22 
ROOT
HETATM    1  C   UNL     1       7.404  29.786  57.470  1.00  0.00     0.034 A 
HETATM    2  C   UNL     1       8.402  29.553  58.408  1.00  0.00     0.032 A 
HETATM    3  C   UNL     1       8.483  30.345  59.563  1.00  0.00     0.031 A 
HETATM    4  C   UNL     1       7.580  31.390  59.828  1.00  0.00     0.030 A 
HETATM    5  C   UNL     1       6.645  31.657  58.817  1.00  0.00     0.031 A 
HETATM    6  C   UNL     1       6.556  30.874  57.657  1.00  0.00     0.032 A 
ENDROOT
BRANCH   1   7
HETATM    7  N   UNL     1       7.221  29.018  56.302  1.00  0.00    -0.333 N 
HETATM    8  H   UNL     1       7.981  28.375  56.104  1.00  0.00     0.168 HD
BRANCH   7   9
HETATM    9  C   UNL     1       6.095  28.746  55.605  1.00  0.00     0.179 C 
HETATM   10  S   UNL     1       4.851  27.939  56.382  1.00  0.00    -0.040 SA
BRANCH   9  11
HETATM   11  N   UNL     1       5.941  29.055  54.280  1.00  0.00    -0.300 N 
HETATM   12  C   UNL     1       6.116  28.424  53.060  1.00  0.00     0.247 C 
HETATM   13  O   UNL     1       6.140  29.095  52.029  1.00  0.00    -0.268 OA
HETATM   14  H   UNL     1       5.590  29.993  54.138  1.00  0.00     0.171 HD
BRANCH  12  15
HETATM   15  C   UNL     1       6.229  26.945  53.035  1.00  0.00     0.075 C 
HETATM   16  C   UNL     1       7.236  26.365  53.708  1.00  0.00     0.017 C 
BRANCH  16  17
HETATM   17  C   UNL     1       7.484  24.919  53.816  1.00  0.00    -0.036 A 
HETATM   18  C   UNL     1       7.387  24.322  55.079  1.00  0.00     0.012 A 
HETATM   19  C   UNL     1       7.552  22.942  55.240  1.00  0.00     0.008 A 
HETATM   20  C   UNL     1       7.826  22.120  54.141  1.00  0.00    -0.055 A 
HETATM   21  C   UNL     1       7.906  22.716  52.874  1.00  0.00     0.008 A 
HETATM   22  C   UNL     1       7.734  24.097  52.713  1.00  0.00     0.012 A 
BRANCH  20  23
HETATM   23  C   UNL     1       7.987  20.615  54.275  1.00  0.00     0.010 C 
HETATM   24  C   UNL     1       8.755  20.273  55.553  1.00  0.00     0.015 C 
HETATM   25  C   UNL     1       8.649  19.961  53.058  1.00  0.00     0.015 C 
ENDBRANCH  20  23
ENDBRANCH  16  17
ENDBRANCH  12  15
ENDBRANCH   9  11
ENDBRANCH   7   9
ENDBRANCH   1   7
BRANCH   4  26
HETATM   26  N   UNL     1       7.674  32.138  61.006  1.00  0.00    -0.378 N 
HETATM   27  C   UNL     1       7.197  33.546  61.038  1.00  0.00     0.143 C 
HETATM   28  C   UNL     1       5.689  33.599  61.347  1.00  0.00     0.146 C 
HETATM   29  N   UNL     1       5.413  32.914  62.618  1.00  0.00    -0.343 N 
HETATM   30  C   UNL     1       4.881  33.472  63.780  1.00  0.00     0.277 C 
HETATM   31  C   UNL     1       5.864  31.516  62.628  1.00  0.00     0.146 C 
HETATM   32  O   UNL     1       4.578  32.747  64.731  1.00  0.00    -0.265 OA
HETATM   33  C   UNL     1       7.370  31.430  62.286  1.00  0.00     0.143 C 
BRANCH  30  34
HETATM   34  C   UNL     1       4.668  34.908  63.861  1.00  0.00     0.142 A 
HETATM   35  O   UNL     1       5.422  35.693  64.695  1.00  0.00    -0.317 OA
HETATM   36  C   UNL     1       4.959  36.965  64.586  1.00  0.00     0.143 A 
HETATM   37  C   UNL     1       3.894  37.017  63.719  1.00  0.00     0.027 A 
HETATM   38  C   UNL     1       3.692  35.691  63.269  1.00  0.00     0.045 A 
ENDBRANCH  30  34
ENDBRANCH   4  26
TORSDOF 8
ENDMDL
MODEL 3
REMARK VINA RESULT:      -9.0      3.929      5.437
REMARK  8 active torsions:
REMARK  status: ('A' for Active; 'I' for Inactive)
REMARK    1  A    between atoms: C_2  and  C_3 
REMARK    2  A    between atoms: C_6  and  C_7 
REMARK    3  A    between atoms: C_8  and  C_9 
REMARK       I    between atoms: C_9  and  N_10 
REMARK    4  A    between atoms: N_10  and  C_11 
REMARK    5  A    between atoms: C_11  and  N_12 
REMARK    6  A    between atoms: N_12  and  C_13 
REMARK    7  A    between atoms: C_16  and  N_17 
REMARK       I    between atoms: N_20  and  C_21 
REMARK    8  A    between atoms: C_21  and  C_22 
ROOT
HETATM    1  C   UNL     1       4.192  30.569  57.772  1.00  0.00     0.034 A 
HETATM    2  C   UNL     1       5.404  31.228  57.608  1.00  0.00     0.032 A 
HETATM    3  C   UNL     1       5.811  32.197  58.538  1.00  0.00     0.031 A 
HETATM    4  C   UNL     1       5.035  32.542  59.659  1.00  0.00     0.030 A 
HETATM    5  C   UNL     1       3.778  31.926  59.742  1.00  0.00     0.031 A 
HETATM    6  C   UNL     1       3.358  30.959  58.817  1.00  0.00     0.032 A 
ENDROOT
BRANCH   1   7
HETATM    7  N   UNL     1       3.720  29.556  56.913  1.00  0.00    -0.333 N 
HETATM    8  H   UNL     1       2.727  29.617  56.704  1.00  0.00     0.168 HD
BRANCH   7   9
HETATM    9  C   UNL     1       4.395  28.742  56.071  1.00  0.00     0.179 C 
HETATM   10  S   UNL     1       5.181  27.410  56.709  1.00  0.00    -0.040 SA
BRANCH   9  11
HETATM   11  N   UNL     1       4.509  28.983  54.728  1.00  0.00    -0.300 N 
HETATM   12  C   UNL     1       5.076  28.363  53.626  1.00  0.00     0.247 C 
HETATM   13  O   UNL     1       5.228  29.000  52.585  1.00  0.00    -0.268 OA
HETATM   14  H   UNL     1       4.044  29.836  54.445  1.00  0.00     0.171 HD
BRANCH  12  15
HETATM   15  C   UNL     1       5.446  26.931  53.730  1.00  0.00     0.075 C 
HETATM   16  C   UNL     1       6.734  26.586  53.573  1.00  0.00     0.017 C 
BRANCH  16  17
HETATM   17  C   UNL     1       7.284  25.226  53.670  1.00  0.00    -0.036 A 
HETATM   18  C   UNL     1       7.476  24.676  54.943  1.00  0.00     0.012 A 
HETATM   19  C   UNL     1       7.939  23.365  55.102  1.00  0.00     0.008 A 
HETATM   20  C   UNL     1       8.228  22.568  53.990  1.00  0.00    -0.055 A 
HETATM   21  C   UNL     1       8.019  23.112  52.714  1.00  0.00     0.008 A 
HETATM   22  C   UNL     1       7.550  24.423  52.556  1.00  0.00     0.012 A 
BRANCH  20  23
HETATM   23  C   UNL     1       8.708  21.133  54.125  1.00  0.00     0.010 C 
HETATM   24  C   UNL     1       8.361  20.333  52.868  1.00  0.00     0.015 C 
HETATM   25  C   UNL     1       8.174  20.426  55.376  1.00  0.00     0.015 C 
ENDBRANCH  20  23
ENDBRANCH  16  17
ENDBRANCH  12  15
ENDBRANCH   9  11
ENDBRANCH   7   9
ENDBRANCH   1   7
BRANCH   4  26
HETATM   26  N   UNL     1       5.489  33.491  60.581  1.00  0.00    -0.378 N 
HETATM   27  C   UNL     1       4.542  34.109  61.546  1.00  0.00     0.143 C 
HETATM   28  C   UNL     1       4.401  33.230  62.804  1.00  0.00     0.146 C 
HETATM   29  N   UNL     1       5.720  33.014  63.415  1.00  0.00    -0.343 N 
HETATM   30  C   UNL     1       6.137  33.410  64.685  1.00  0.00     0.277 C 
HETATM   31  C   UNL     1       6.687  32.400  62.496  1.00  0.00     0.146 C 
HETATM   32  O   UNL     1       7.232  33.044  65.118  1.00  0.00    -0.265 OA
HETATM   33  C   UNL     1       6.823  33.244  61.207  1.00  0.00     0.143 C 
BRANCH  30  34
HETATM   34  C   UNL     1       5.270  34.241  65.505  1.00  0.00     0.142 A 
HETATM   35  O   UNL     1       4.617  33.728  66.597  1.00  0.00    -0.317 OA
HETATM   36  C   UNL     1       3.856  34.723  67.120  1.00  0.00     0.143 A 
HETATM   37  C   UNL     1       3.976  35.868  66.370  1.00  0.00     0.027 A 
HETATM   38  C   UNL     1       4.868  35.553  65.317  1.00  0.00     0.045 A 
ENDBRANCH  30  34
ENDBRANCH   4  26
TORSDOF 8
ENDMDL
MODEL 4
REMARK VINA RESULT:      -8.9      3.988      6.149
REMARK  8 active torsions:
REMARK  status: ('A' for Active; 'I' for Inactive)
REMARK    1  A    between atoms: C_2  and  C_3 
REMARK    2  A    between atoms: C_6  and  C_7 
REMARK    3  A    between atoms: C_8  and  C_9 
REMARK       I    between atoms: C_9  and  N_10 
REMARK    4  A    between atoms: N_10  and  C_11 
REMARK    5  A    between atoms: C_11  and  N_12 
REMARK    6  A    between atoms: N_12  and  C_13 
REMARK    7  A    between atoms: C_16  and  N_17 
REMARK       I    between atoms: N_20  and  C_21 
REMARK    8  A    between atoms: C_21  and  C_22 
ROOT
HETATM    1  C   UNL     1       4.279  31.339  57.517  1.00  0.00     0.034 A 
HETATM    2  C   UNL     1       3.588  30.835  58.612  1.00  0.00     0.032 A 
HETATM    3  C   UNL     1       3.267  31.673  59.691  1.00  0.00     0.031 A 
HETATM    4  C   UNL     1       3.616  33.034  59.720  1.00  0.00     0.030 A 
HETATM    5  C   UNL     1       4.392  33.487  58.642  1.00  0.00     0.031 A 
HETATM    6  C   UNL     1       4.722  32.658  57.561  1.00  0.00     0.032 A 
ENDROOT
BRANCH   1   7
HETATM    7  N   UNL     1       4.610  30.584  56.374  1.00  0.00    -0.333 N 
HETATM    8  H   UNL     1       4.142  30.889  55.525  1.00  0.00     0.168 HD
BRANCH   7   9
HETATM    9  C   UNL     1       5.663  29.770  56.141  1.00  0.00     0.179 C 
HETATM   10  S   UNL     1       5.646  28.817  54.765  1.00  0.00    -0.040 SA
BRANCH   9  11
HETATM   11  N   UNL     1       6.721  29.649  57.002  1.00  0.00    -0.300 N 
HETATM   12  C   UNL     1       7.329  28.644  57.735  1.00  0.00     0.247 C 
HETATM   13  O   UNL     1       8.114  28.940  58.634  1.00  0.00    -0.268 OA
HETATM   14  H   UNL     1       7.212  30.524  57.139  1.00  0.00     0.171 HD
BRANCH  12  15
HETATM   15  C   UNL     1       7.041  27.233  57.379  1.00  0.00     0.075 C 
HETATM   16  C   UNL     1       8.010  26.504  56.803  1.00  0.00     0.017 C 
BRANCH  16  17
HETATM   17  C   UNL     1       7.911  25.090  56.411  1.00  0.00    -0.036 A 
HETATM   18  C   UNL     1       7.223  24.774  55.233  1.00  0.00     0.012 A 
HETATM   19  C   UNL     1       7.144  23.454  54.774  1.00  0.00     0.008 A 
HETATM   20  C   UNL     1       7.748  22.411  55.485  1.00  0.00    -0.055 A 
HETATM   21  C   UNL     1       8.452  22.730  56.655  1.00  0.00     0.008 A 
HETATM   22  C   UNL     1       8.535  24.052  57.110  1.00  0.00     0.012 A 
BRANCH  20  23
HETATM   23  C   UNL     1       7.704  20.971  55.002  1.00  0.00     0.010 C 
HETATM   24  C   UNL     1       8.576  20.084  55.893  1.00  0.00     0.015 C 
HETATM   25  C   UNL     1       8.099  20.808  53.531  1.00  0.00     0.015 C 
ENDBRANCH  20  23
ENDBRANCH  16  17
ENDBRANCH  12  15
ENDBRANCH   9  11
ENDBRANCH   7   9
ENDBRANCH   1   7
BRANCH   4  26
HETATM   26  N   UNL     1       3.250  33.845  60.799  1.00  0.00    -0.378 N 
HETATM   27  C   UNL     1       3.168  33.273  62.170  1.00  0.00     0.143 C 
HETATM   28  C   UNL     1       4.549  33.308  62.854  1.00  0.00     0.146 C 
HETATM   29  N   UNL     1       5.060  34.685  62.881  1.00  0.00    -0.343 N 
HETATM   30  C   UNL     1       5.346  35.458  64.005  1.00  0.00     0.277 C 
HETATM   31  C   UNL     1       5.162  35.287  61.545  1.00  0.00     0.146 C 
HETATM   32  O   UNL     1       5.897  36.554  63.879  1.00  0.00    -0.265 OA
HETATM   33  C   UNL     1       3.797  35.235  60.821  1.00  0.00     0.143 C 
BRANCH  30  34
HETATM   34  C   UNL     1       5.009  34.961  65.330  1.00  0.00     0.142 A 
HETATM   35  O   UNL     1       3.761  35.152  65.865  1.00  0.00    -0.317 OA
HETATM   36  C   UNL     1       3.770  34.624  67.117  1.00  0.00     0.143 A 
HETATM   37  C   UNL     1       5.012  34.120  67.418  1.00  0.00     0.027 A 
HETATM   38  C   UNL     1       5.816  34.356  66.278  1.00  0.00     0.045 A 
ENDBRANCH  30  34
ENDBRANCH   4  26
TORSDOF 8
ENDMDL
MODEL 5
REMARK VINA RESULT:      -8.8      2.951      7.978
REMARK  8 active torsions:
REMARK  status: ('A' for Active; 'I' for Inactive)
REMARK    1  A    between atoms: C_2  and  C_3 
REMARK    2  A    between atoms: C_6  and  C_7 
REMARK    3  A    between atoms: C_8  and  C_9 
REMARK       I    between atoms: C_9  and  N_10 
REMARK    4  A    between atoms: N_10  and  C_11 
REMARK    5  A    between atoms: C_11  and  N_12 
REMARK    6  A    between atoms: N_12  and  C_13 
REMARK    7  A    between atoms: C_16  and  N_17 
REMARK       I    between atoms: N_20  and  C_21 
REMARK    8  A    between atoms: C_21  and  C_22 
ROOT
HETATM    1  C   UNL     1       5.776  29.470  57.351  1.00  0.00     0.034 A 
HETATM    2  C   UNL     1       5.343  28.151  57.306  1.00  0.00     0.032 A 
HETATM    3  C   UNL     1       4.710  27.655  56.156  1.00  0.00     0.031 A 
HETATM    4  C   UNL     1       4.488  28.446  55.015  1.00  0.00     0.030 A 
HETATM    5  C   UNL     1       4.854  29.795  55.130  1.00  0.00     0.031 A 
HETATM    6  C   UNL     1       5.484  30.303  56.275  1.00  0.00     0.032 A 
ENDROOT
BRANCH   1   7
HETATM    7  N   UNL     1       6.455  30.043  58.445  1.00  0.00    -0.333 N 
HETATM    8  H   UNL     1       5.961  29.965  59.329  1.00  0.00     0.168 HD
BRANCH   7   9
HETATM    9  C   UNL     1       7.759  30.367  58.589  1.00  0.00     0.179 C 
HETATM   10  S   UNL     1       8.328  30.726  60.121  1.00  0.00    -0.040 SA
BRANCH   9  11
HETATM   11  N   UNL     1       8.628  30.465  57.535  1.00  0.00    -0.300 N 
HETATM   12  C   UNL     1       9.476  29.626  56.831  1.00  0.00     0.247 C 
HETATM   13  O   UNL     1      10.332  30.111  56.093  1.00  0.00    -0.268 OA
HETATM   14  H   UNL     1       8.658  31.398  57.142  1.00  0.00     0.171 HD
BRANCH  12  15
HETATM   15  C   UNL     1       9.293  28.161  56.963  1.00  0.00     0.075 C 
HETATM   16  C   UNL     1       8.499  27.529  56.082  1.00  0.00     0.017 C 
BRANCH  16  17
HETATM   17  C   UNL     1       8.227  26.085  56.044  1.00  0.00    -0.036 A 
HETATM   18  C   UNL     1       7.585  25.560  54.916  1.00  0.00     0.012 A 
HETATM   19  C   UNL     1       7.351  24.186  54.791  1.00  0.00     0.008 A 
HETATM   20  C   UNL     1       7.748  23.298  55.797  1.00  0.00    -0.055 A 
HETATM   21  C   UNL     1       8.407  23.821  56.919  1.00  0.00     0.008 A 
HETATM   22  C   UNL     1       8.646  25.197  57.039  1.00  0.00     0.012 A 
BRANCH  20  23
HETATM   23  C   UNL     1       7.532  21.798  55.684  1.00  0.00     0.010 C 
HETATM   24  C   UNL     1       8.293  21.065  56.790  1.00  0.00     0.015 C 
HETATM   25  C   UNL     1       7.903  21.230  54.310  1.00  0.00     0.015 C 
ENDBRANCH  20  23
ENDBRANCH  16  17
ENDBRANCH  12  15
ENDBRANCH   9  11
ENDBRANCH   7   9
ENDBRANCH   1   7
BRANCH   4  26
HETATM   26  N   UNL     1       3.882  27.906  53.876  1.00  0.00    -0.378 N 
HETATM   27  C   UNL     1       3.137  28.787  52.937  1.00  0.00     0.143 C 
HETATM   28  C   UNL     1       4.096  29.409  51.903  1.00  0.00     0.146 C 
HETATM   29  N   UNL     1       4.813  28.347  51.183  1.00  0.00    -0.343 N 
HETATM   30  C   UNL     1       4.761  28.070  49.818  1.00  0.00     0.277 C 
HETATM   31  C   UNL     1       5.567  27.455  52.073  1.00  0.00     0.146 C 
HETATM   32  O   UNL     1       5.520  27.230  49.328  1.00  0.00    -0.265 OA
HETATM   33  C   UNL     1       4.634  26.843  53.145  1.00  0.00     0.143 C 
BRANCH  30  34
HETATM   34  C   UNL     1       3.823  28.786  48.969  1.00  0.00     0.142 A 
HETATM   35  O   UNL     1       4.150  29.992  48.405  1.00  0.00    -0.317 OA
HETATM   36  C   UNL     1       3.064  30.428  47.716  1.00  0.00     0.143 A 
HETATM   37  C   UNL     1       2.022  29.542  47.847  1.00  0.00     0.027 A 
HETATM   38  C   UNL     1       2.501  28.496  48.672  1.00  0.00     0.045 A 
ENDBRANCH  30  34
ENDBRANCH   4  26
TORSDOF 8
ENDMDL
MODEL 6
REMARK VINA RESULT:      -8.7      4.109      5.516
REMARK  8 active torsions:
REMARK  status: ('A' for Active; 'I' for Inactive)
REMARK    1  A    between atoms: C_2  and  C_3 
REMARK    2  A    between atoms: C_6  and  C_7 
REMARK    3  A    between atoms: C_8  and  C_9 
REMARK       I    between atoms: C_9  and  N_10 
REMARK    4  A    between atoms: N_10  and  C_11 
REMARK    5  A    between atoms: C_11  and  N_12 
REMARK    6  A    between atoms: N_12  and  C_13 
REMARK    7  A    between atoms: C_16  and  N_17 
REMARK       I    between atoms: N_20  and  C_21 
REMARK    8  A    between atoms: C_21  and  C_22 
ROOT
HETATM    1  C   UNL     1       5.458  31.376  57.573  1.00  0.00     0.034 A 
HETATM    2  C   UNL     1       6.152  31.685  58.736  1.00  0.00     0.032 A 
HETATM    3  C   UNL     1       5.519  32.394  59.768  1.00  0.00     0.031 A 
HETATM    4  C   UNL     1       4.181  32.817  59.683  1.00  0.00     0.030 A 
HETATM    5  C   UNL     1       3.540  32.570  58.460  1.00  0.00     0.031 A 
HETATM    6  C   UNL     1       4.164  31.866  57.420  1.00  0.00     0.032 A 
ENDROOT
BRANCH   1   7
HETATM    7  N   UNL     1       5.999  30.635  56.502  1.00  0.00    -0.333 N 
HETATM    8  H   UNL     1       6.981  30.820  56.322  1.00  0.00     0.168 HD
BRANCH   7   9
HETATM    9  C   UNL     1       5.550  29.507  55.909  1.00  0.00     0.179 C 
HETATM   10  S   UNL     1       5.369  28.131  56.844  1.00  0.00    -0.040 SA
BRANCH   9  11
HETATM   11  N   UNL     1       5.283  29.421  54.569  1.00  0.00    -0.300 N 
HETATM   12  C   UNL     1       5.773  28.728  53.474  1.00  0.00     0.247 C 
HETATM   13  O   UNL     1       5.471  29.095  52.340  1.00  0.00    -0.268 OA
HETATM   14  H   UNL     1       4.507  30.008  54.289  1.00  0.00     0.171 HD
BRANCH  12  15
HETATM   15  C   UNL     1       6.618  27.533  53.711  1.00  0.00     0.075 C 
HETATM   16  C   UNL     1       6.076  26.316  53.536  1.00  0.00     0.017 C 
BRANCH  16  17
HETATM   17  C   UNL     1       6.769  25.029  53.697  1.00  0.00    -0.036 A 
HETATM   18  C   UNL     1       6.788  24.440  54.967  1.00  0.00     0.012 A 
HETATM   19  C   UNL     1       7.379  23.188  55.175  1.00  0.00     0.008 A 
HETATM   20  C   UNL     1       7.974  22.493  54.116  1.00  0.00    -0.055 A 
HETATM   21  C   UNL     1       7.940  23.075  52.841  1.00  0.00     0.008 A 
HETATM   22  C   UNL     1       7.343  24.326  52.634  1.00  0.00     0.012 A 
BRANCH  20  23
HETATM   23  C   UNL     1       8.602  21.122  54.300  1.00  0.00     0.010 C 
HETATM   24  C   UNL     1       8.541  20.328  52.994  1.00  0.00     0.015 C 
HETATM   25  C   UNL     1       7.983  20.316  55.448  1.00  0.00     0.015 C 
ENDBRANCH  20  23
ENDBRANCH  16  17
ENDBRANCH  12  15
ENDBRANCH   9  11
ENDBRANCH   7   9
ENDBRANCH   1   7
BRANCH   4  26
HETATM   26  N   UNL     1       3.574  33.494  60.747  1.00  0.00    -0.378 N 
HETATM   27  C   UNL     1       3.668  32.953  62.129  1.00  0.00     0.143 C 
HETATM   28  C   UNL     1       4.966  33.431  62.810  1.00  0.00     0.146 C 
HETATM   29  N   UNL     1       5.020  34.900  62.807  1.00  0.00    -0.343 N 
HETATM   30  C   UNL     1       5.045  35.746  63.915  1.00  0.00     0.277 C 
HETATM   31  C   UNL     1       4.936  35.477  61.459  1.00  0.00     0.146 C 
HETATM   32  O   UNL     1       5.226  36.957  63.765  1.00  0.00    -0.265 OA
HETATM   33  C   UNL     1       3.659  34.986  60.738  1.00  0.00     0.143 C 
BRANCH  30  34
HETATM   34  C   UNL     1       4.873  35.195  65.250  1.00  0.00     0.142 A 
HETATM   35  O   UNL     1       5.915  34.600  65.913  1.00  0.00    -0.317 OA
HETATM   36  C   UNL     1       5.436  34.147  67.101  1.00  0.00     0.143 A 
HETATM   37  C   UNL     1       4.092  34.409  67.210  1.00  0.00     0.027 A 
HETATM   38  C   UNL     1       3.723  35.063  66.010  1.00  0.00     0.045 A 
ENDBRANCH  30  34
ENDBRANCH   4  26
TORSDOF 8
ENDMDL
MODEL 7
REMARK VINA RESULT:      -8.5      3.241      9.148
REMARK  8 active torsions:
REMARK  status: ('A' for Active; 'I' for Inactive)
REMARK    1  A    between atoms: C_2  and  C_3 
REMARK    2  A    between atoms: C_6  and  C_7 
REMARK    3  A    between atoms: C_8  and  C_9 
REMARK       I    between atoms: C_9  and  N_10 
REMARK    4  A    between atoms: N_10  and  C_11 
REMARK    5  A    between atoms: C_11  and  N_12 
REMARK    6  A    between atoms: N_12  and  C_13 
REMARK    7  A    between atoms: C_16  and  N_17 
REMARK       I    between atoms: N_20  and  C_21 
REMARK    8  A    between atoms: C_21  and  C_22 
ROOT
HETATM    1  C   UNL     1       5.046  28.426  54.027  1.00  0.00     0.034 A 
HETATM    2  C   UNL     1       3.816  28.760  53.474  1.00  0.00     0.032 A 
HETATM    3  C   UNL     1       3.602  28.615  52.095  1.00  0.00     0.031 A 
HETATM    4  C   UNL     1       4.593  28.135  51.222  1.00  0.00     0.030 A 
HETATM    5  C   UNL     1       5.849  27.896  51.799  1.00  0.00     0.031 A 
HETATM    6  C   UNL     1       6.077  28.040  53.175  1.00  0.00     0.032 A 
ENDROOT
BRANCH   1   7
HETATM    7  N   UNL     1       5.340  28.500  55.404  1.00  0.00    -0.333 N 
HETATM    8  H   UNL     1       5.531  27.601  55.838  1.00  0.00     0.168 HD
BRANCH   7   9
HETATM    9  C   UNL     1       5.737  29.551  56.155  1.00  0.00     0.179 C 
HETATM   10  S   UNL     1       4.920  31.002  55.992  1.00  0.00    -0.040 SA
BRANCH   9  11
HETATM   11  N   UNL     1       6.808  29.501  57.008  1.00  0.00    -0.300 N 
HETATM   12  C   UNL     1       7.453  28.549  57.779  1.00  0.00     0.247 C 
HETATM   13  O   UNL     1       8.240  28.909  58.653  1.00  0.00    -0.268 OA
HETATM   14  H   UNL     1       7.275  30.395  57.097  1.00  0.00     0.171 HD
BRANCH  12  15
HETATM   15  C   UNL     1       7.202  27.116  57.493  1.00  0.00     0.075 C 
HETATM   16  C   UNL     1       7.941  26.508  56.550  1.00  0.00     0.017 C 
BRANCH  16  17
HETATM   17  C   UNL     1       7.849  25.094  56.158  1.00  0.00    -0.036 A 
HETATM   18  C   UNL     1       7.309  24.787  54.903  1.00  0.00     0.012 A 
HETATM   19  C   UNL     1       7.249  23.466  54.446  1.00  0.00     0.008 A 
HETATM   20  C   UNL     1       7.723  22.412  55.235  1.00  0.00    -0.055 A 
HETATM   21  C   UNL     1       8.280  22.721  56.484  1.00  0.00     0.008 A 
HETATM   22  C   UNL     1       8.345  24.045  56.939  1.00  0.00     0.012 A 
BRANCH  20  23
HETATM   23  C   UNL     1       7.696  20.969  54.760  1.00  0.00     0.010 C 
HETATM   24  C   UNL     1       8.613  20.105  55.627  1.00  0.00     0.015 C 
HETATM   25  C   UNL     1       8.051  20.808  53.278  1.00  0.00     0.015 C 
ENDBRANCH  20  23
ENDBRANCH  16  17
ENDBRANCH  12  15
ENDBRANCH   9  11
ENDBRANCH   7   9
ENDBRANCH   1   7
BRANCH   4  26
HETATM   26  N   UNL     1       4.330  27.975  49.857  1.00  0.00    -0.378 N 
HETATM   27  C   UNL     1       3.019  27.438  49.405  1.00  0.00     0.143 C 
HETATM   28  C   UNL     1       1.984  28.573  49.280  1.00  0.00     0.146 C 
HETATM   29  N   UNL     1       2.482  29.606  48.361  1.00  0.00    -0.343 N 
HETATM   30  C   UNL     1       1.915  30.004  47.151  1.00  0.00     0.277 C 
HETATM   31  C   UNL     1       3.775  30.168  48.773  1.00  0.00     0.146 C 
HETATM   32  O   UNL     1       2.369  30.979  46.547  1.00  0.00    -0.265 OA
HETATM   33  C   UNL     1       4.826  29.045  48.940  1.00  0.00     0.143 C 
BRANCH  30  34
HETATM   34  C   UNL     1       0.776  29.279  46.613  1.00  0.00     0.142 A 
HETATM   35  O   UNL     1      -0.437  29.892  46.432  1.00  0.00    -0.317 OA
HETATM   36  C   UNL     1      -1.302  28.954  45.967  1.00  0.00     0.143 A 
HETATM   37  C   UNL     1      -0.682  27.732  45.871  1.00  0.00     0.027 A 
HETATM   38  C   UNL     1       0.648  27.934  46.308  1.00  0.00     0.045 A 
ENDBRANCH  30  34
ENDBRANCH   4  26
TORSDOF 8
ENDMDL
MODEL 8
REMARK VINA RESULT:      -8.3      2.615      8.393
REMARK  8 active torsions:
REMARK  status: ('A' for Active; 'I' for Inactive)
REMARK    1  A    between atoms: C_2  and  C_3 
REMARK    2  A    between atoms: C_6  and  C_7 
REMARK    3  A    between atoms: C_8  and  C_9 
REMARK       I    between atoms: C_9  and  N_10 
REMARK    4  A    between atoms: N_10  and  C_11 
REMARK    5  A    between atoms: C_11  and  N_12 
REMARK    6  A    between atoms: N_12  and  C_13 
REMARK    7  A    between atoms: C_16  and  N_17 
REMARK       I    between atoms: N_20  and  C_21 
REMARK    8  A    between atoms: C_21  and  C_22 
ROOT
HETATM    1  C   UNL     1       5.131  31.658  56.741  1.00  0.00     0.034 A 
HETATM    2  C   UNL     1       4.751  30.332  56.904  1.00  0.00     0.032 A 
HETATM    3  C   UNL     1       4.156  29.634  55.842  1.00  0.00     0.031 A 
HETATM    4  C   UNL     1       3.922  30.223  54.587  1.00  0.00     0.030 A 
HETATM    5  C   UNL     1       4.233  31.587  54.488  1.00  0.00     0.031 A 
HETATM    6  C   UNL     1       4.824  32.297  55.543  1.00  0.00     0.032 A 
ENDROOT
BRANCH   1   7
HETATM    7  N   UNL     1       5.770  32.426  57.737  1.00  0.00    -0.333 N 
HETATM    8  H   UNL     1       5.687  33.430  57.605  1.00  0.00     0.168 HD
BRANCH   7   9
HETATM    9  C   UNL     1       6.171  32.081  58.980  1.00  0.00     0.179 C 
HETATM   10  S   UNL     1       5.085  32.243  60.243  1.00  0.00    -0.040 SA
BRANCH   9  11
HETATM   11  N   UNL     1       7.439  31.652  59.266  1.00  0.00    -0.300 N 
HETATM   12  C   UNL     1       8.147  30.462  59.224  1.00  0.00     0.247 C 
HETATM   13  O   UNL     1       9.220  30.374  59.819  1.00  0.00    -0.268 OA
HETATM   14  H   UNL     1       8.041  32.402  59.584  1.00  0.00     0.171 HD
BRANCH  12  15
HETATM   15  C   UNL     1       7.601  29.340  58.422  1.00  0.00     0.075 C 
HETATM   16  C   UNL     1       8.422  28.693  57.579  1.00  0.00     0.017 C 
BRANCH  16  17
HETATM   17  C   UNL     1       8.062  27.546  56.732  1.00  0.00    -0.036 A 
HETATM   18  C   UNL     1       8.097  26.265  57.297  1.00  0.00     0.012 A 
HETATM   19  C   UNL     1       7.709  25.140  56.562  1.00  0.00     0.008 A 
HETATM   20  C   UNL     1       7.280  25.263  55.236  1.00  0.00    -0.055 A 
HETATM   21  C   UNL     1       7.228  26.548  54.675  1.00  0.00     0.008 A 
HETATM   22  C   UNL     1       7.611  27.675  55.414  1.00  0.00     0.012 A 
BRANCH  20  23
HETATM   23  C   UNL     1       6.828  24.066  54.417  1.00  0.00     0.010 C 
HETATM   24  C   UNL     1       8.001  23.117  54.168  1.00  0.00     0.015 C 
HETATM   25  C   UNL     1       6.158  24.450  53.094  1.00  0.00     0.015 C 
ENDBRANCH  20  23
ENDBRANCH  16  17
ENDBRANCH  12  15
ENDBRANCH   9  11
ENDBRANCH   7   9
ENDBRANCH   1   7
BRANCH   4  26
HETATM   26  N   UNL     1       3.355  29.485  53.543  1.00  0.00    -0.378 N 
HETATM   27  C   UNL     1       3.044  30.142  52.245  1.00  0.00     0.143 C 
HETATM   28  C   UNL     1       4.282  30.137  51.327  1.00  0.00     0.146 C 
HETATM   29  N   UNL     1       4.753  28.759  51.128  1.00  0.00    -0.343 N 
HETATM   30  C   UNL     1       4.820  28.056  49.926  1.00  0.00     0.277 C 
HETATM   31  C   UNL     1       5.076  28.074  52.385  1.00  0.00     0.146 C 
HETATM   32  O   UNL     1       5.363  26.949  49.887  1.00  0.00    -0.265 OA
HETATM   33  C   UNL     1       3.861  28.094  53.342  1.00  0.00     0.143 C 
BRANCH  30  34
HETATM   34  C   UNL     1       4.265  28.637  48.714  1.00  0.00     0.142 A 
HETATM   35  O   UNL     1       4.986  29.523  47.955  1.00  0.00    -0.317 OA
HETATM   36  C   UNL     1       4.190  29.922  46.930  1.00  0.00     0.143 A 
HETATM   37  C   UNL     1       2.951  29.336  47.025  1.00  0.00     0.027 A 
HETATM   38  C   UNL     1       2.990  28.527  48.185  1.00  0.00     0.045 A 
ENDBRANCH  30  34
ENDBRANCH   4  26
TORSDOF 8
ENDMDL
MODEL 9
REMARK VINA RESULT:      -8.3      3.303     10.554
REMARK  8 active torsions:
REMARK  status: ('A' for Active; 'I' for Inactive)
REMARK    1  A    between atoms: C_2  and  C_3 
REMARK    2  A    between atoms: C_6  and  C_7 
REMARK    3  A    between atoms: C_8  and  C_9 
REMARK       I    between atoms: C_9  and  N_10 
REMARK    4  A    between atoms: N_10  and  C_11 
REMARK    5  A    between atoms: C_11  and  N_12 
REMARK    6  A    between atoms: N_12  and  C_13 
REMARK    7  A    between atoms: C_16  and  N_17 
REMARK       I    between atoms: N_20  and  C_21 
REMARK    8  A    between atoms: C_21  and  C_22 
ROOT
HETATM    1  C   UNL     1       6.018  28.464  55.271  1.00  0.00     0.034 A 
HETATM    2  C   UNL     1       4.643  28.628  55.165  1.00  0.00     0.032 A 
HETATM    3  C   UNL     1       4.003  28.436  53.931  1.00  0.00     0.031 A 
HETATM    4  C   UNL     1       4.701  28.074  52.766  1.00  0.00     0.030 A 
HETATM    5  C   UNL     1       6.097  28.007  52.889  1.00  0.00     0.031 A 
HETATM    6  C   UNL     1       6.748  28.200  54.115  1.00  0.00     0.032 A 
ENDROOT
BRANCH   1   7
HETATM    7  N   UNL     1       6.740  28.596  56.475  1.00  0.00    -0.333 N 
HETATM    8  H   UNL     1       6.226  29.057  57.219  1.00  0.00     0.168 HD
BRANCH   7   9
HETATM    9  C   UNL     1       7.837  27.937  56.910  1.00  0.00     0.179 C 
HETATM   10  S   UNL     1       7.678  26.334  57.362  1.00  0.00    -0.040 SA
BRANCH   9  11
HETATM   11  N   UNL     1       9.063  28.532  57.047  1.00  0.00    -0.300 N 
HETATM   12  C   UNL     1       9.577  29.693  57.600  1.00  0.00     0.247 C 
HETATM   13  O   UNL     1      10.715  30.052  57.305  1.00  0.00    -0.268 OA
HETATM   14  H   UNL     1       9.811  27.974  56.654  1.00  0.00     0.171 HD
BRANCH  12  15
HETATM   15  C   UNL     1       8.744  30.447  58.567  1.00  0.00     0.075 C 
HETATM   16  C   UNL     1       9.305  30.860  59.715  1.00  0.00     0.017 C 
BRANCH  16  17
HETATM   17  C   UNL     1       8.642  31.640  60.771  1.00  0.00    -0.036 A 
HETATM   18  C   UNL     1       7.484  32.355  60.441  1.00  0.00     0.012 A 
HETATM   19  C   UNL     1       6.773  33.068  61.413  1.00  0.00     0.008 A 
HETATM   20  C   UNL     1       7.204  33.089  62.743  1.00  0.00    -0.055 A 
HETATM   21  C   UNL     1       8.353  32.359  63.078  1.00  0.00     0.008 A 
HETATM   22  C   UNL     1       9.061  31.641  62.105  1.00  0.00     0.012 A 
BRANCH  20  23
HETATM   23  C   UNL     1       6.443  33.832  63.829  1.00  0.00     0.010 C 
HETATM   24  C   UNL     1       7.170  33.709  65.169  1.00  0.00     0.015 C 
HETATM   25  C   UNL     1       4.984  33.383  63.967  1.00  0.00     0.015 C 
ENDBRANCH  20  23
ENDBRANCH  16  17
ENDBRANCH  12  15
ENDBRANCH   9  11
ENDBRANCH   7   9
ENDBRANCH   1   7
BRANCH   4  26
HETATM   26  N   UNL     1       4.023  27.861  51.561  1.00  0.00    -0.378 N 
HETATM   27  C   UNL     1       3.377  28.999  50.855  1.00  0.00     0.143 C 
HETATM   28  C   UNL     1       4.392  29.714  49.941  1.00  0.00     0.146 C 
HETATM   29  N   UNL     1       4.971  28.755  48.989  1.00  0.00    -0.343 N 
HETATM   30  C   UNL     1       4.872  28.782  47.599  1.00  0.00     0.277 C 
HETATM   31  C   UNL     1       5.624  27.616  49.645  1.00  0.00     0.146 C 
HETATM   32  O   UNL     1       5.522  27.986  46.917  1.00  0.00    -0.265 OA
HETATM   33  C   UNL     1       4.638  26.899  50.597  1.00  0.00     0.143 C 
BRANCH  30  34
HETATM   34  C   UNL     1       4.016  29.764  46.952  1.00  0.00     0.142 A 
HETATM   35  O   UNL     1       2.664  29.564  46.839  1.00  0.00    -0.317 OA
HETATM   36  C   UNL     1       2.153  30.619  46.154  1.00  0.00     0.143 A 
HETATM   37  C   UNL     1       3.152  31.488  45.790  1.00  0.00     0.027 A 
HETATM   38  C   UNL     1       4.355  30.928  46.284  1.00  0.00     0.045 A 
ENDBRANCH  30  34
ENDBRANCH   4  26
TORSDOF 8
ENDMDL
MODEL 10
REMARK VINA RESULT:      -8.2      3.126      7.539
REMARK  8 active torsions:
REMARK  status: ('A' for Active; 'I' for Inactive)
REMARK    1  A    between atoms: C_2  and  C_3 
REMARK    2  A    between atoms: C_6  and  C_7 
REMARK    3  A    between atoms: C_8  and  C_9 
REMARK       I    between atoms: C_9  and  N_10 
REMARK    4  A    between atoms: N_10  and  C_11 
REMARK    5  A    between atoms: C_11  and  N_12 
REMARK    6  A    between atoms: N_12  and  C_13 
REMARK    7  A    between atoms: C_16  and  N_17 
REMARK       I    between atoms: N_20  and  C_21 
REMARK    8  A    between atoms: C_21  and  C_22 
ROOT
HETATM    1  C   UNL     1       3.769  29.174  52.340  1.00  0.00     0.034 A 
HETATM    2  C   UNL     1       5.052  29.376  51.846  1.00  0.00     0.032 A 
HETATM    3  C   UNL     1       6.117  28.585  52.304  1.00  0.00     0.031 A 
HETATM    4  C   UNL     1       5.947  27.569  53.260  1.00  0.00     0.030 A 
HETATM    5  C   UNL     1       4.659  27.455  53.805  1.00  0.00     0.031 A 
HETATM    6  C   UNL     1       3.588  28.242  53.359  1.00  0.00     0.032 A 
ENDROOT
BRANCH   1   7
HETATM    7  N   UNL     1       2.634  29.891  51.912  1.00  0.00    -0.333 N 
HETATM    8  H   UNL     1       1.761  29.378  51.997  1.00  0.00     0.168 HD
BRANCH   7   9
HETATM    9  C   UNL     1       2.458  31.219  51.733  1.00  0.00     0.179 C 
HETATM   10  S   UNL     1       2.874  31.887  50.256  1.00  0.00    -0.040 SA
BRANCH   9  11
HETATM   11  N   UNL     1       2.002  32.054  52.718  1.00  0.00    -0.300 N 
HETATM   12  C   UNL     1       2.320  32.347  54.034  1.00  0.00     0.247 C 
HETATM   13  O   UNL     1       1.518  32.972  54.725  1.00  0.00    -0.268 OA
HETATM   14  H   UNL     1       1.231  32.633  52.410  1.00  0.00     0.171 HD
BRANCH  12  15
HETATM   15  C   UNL     1       3.644  31.928  54.554  1.00  0.00     0.075 C 
HETATM   16  C   UNL     1       3.742  31.560  55.842  1.00  0.00     0.017 C 
BRANCH  16  17
HETATM   17  C   UNL     1       4.961  31.092  56.517  1.00  0.00    -0.036 A 
HETATM   18  C   UNL     1       5.757  30.141  55.866  1.00  0.00     0.012 A 
HETATM   19  C   UNL     1       6.960  29.699  56.428  1.00  0.00     0.008 A 
HETATM   20  C   UNL     1       7.398  30.192  57.662  1.00  0.00    -0.055 A 
HETATM   21  C   UNL     1       6.610  31.157  58.306  1.00  0.00     0.008 A 
HETATM   22  C   UNL     1       5.409  31.603  57.739  1.00  0.00     0.012 A 
BRANCH  20  23
HETATM   23  C   UNL     1       8.711  29.753  58.289  1.00  0.00     0.010 C 
HETATM   24  C   UNL     1       9.384  30.931  58.996  1.00  0.00     0.015 C 
HETATM   25  C   UNL     1       9.676  29.102  57.293  1.00  0.00     0.015 C 
ENDBRANCH  20  23
ENDBRANCH  16  17
ENDBRANCH  12  15
ENDBRANCH   9  11
ENDBRANCH   7   9
ENDBRANCH   1   7
BRANCH   4  26
HETATM   26  N   UNL     1       7.028  26.781  53.668  1.00  0.00    -0.378 N 
HETATM   27  C   UNL     1       6.901  25.893  54.855  1.00  0.00     0.143 C 
HETATM   28  C   UNL     1       6.302  24.532  54.451  1.00  0.00     0.146 C 
HETATM   29  N   UNL     1       7.130  23.911  53.407  1.00  0.00    -0.343 N 
HETATM   30  C   UNL     1       7.827  22.706  53.487  1.00  0.00     0.277 C 
HETATM   31  C   UNL     1       7.278  24.753  52.213  1.00  0.00     0.146 C 
HETATM   32  O   UNL     1       8.374  22.240  52.485  1.00  0.00    -0.265 OA
HETATM   33  C   UNL     1       7.845  26.140  52.594  1.00  0.00     0.143 C 
BRANCH  30  34
HETATM   34  C   UNL     1       7.892  21.991  54.752  1.00  0.00     0.142 A 
HETATM   35  O   UNL     1       8.430  22.572  55.871  1.00  0.00    -0.317 OA
HETATM   36  C   UNL     1       8.393  21.649  56.866  1.00  0.00     0.143 A 
HETATM   37  C   UNL     1       7.870  20.465  56.407  1.00  0.00     0.027 A 
HETATM   38  C   UNL     1       7.568  20.676  55.041  1.00  0.00     0.045 A 
ENDBRANCH  30  34
ENDBRANCH   4  26
TORSDOF 8
ENDMDL
