MODEL 1
REMARK VINA RESULT:     -10.8      0.000      0.000
REMARK  9 active torsions:
REMARK  status: ('A' for Active; 'I' for Inactive)
REMARK       I    between atoms: N_2  and  C_3 
REMARK    1  A    between atoms: N_2  and  C_28 
REMARK    2  A    between atoms: C_3  and  C_4 
REMARK    3  A    between atoms: C_6  and  N_7 
REMARK       I    between atoms: N_7  and  C_8 
REMARK    4  A    between atoms: C_8  and  C_9 
REMARK    5  A    between atoms: C_9  and  O_10 
REMARK    6  A    between atoms: N_17  and  C_18 
REMARK    7  A    between atoms: C_18  and  C_19 
REMARK    8  A    between atoms: C_19  and  C_20 
REMARK    9  A    between atoms: C_28  and  C_29 
ROOT
HETATM    1  C   UNL     1       6.640  28.371  55.125  1.00  0.00     0.036 C 
HETATM    2  C   UNL     1       5.767  29.022  55.999  1.00  0.00     0.049 C 
HETATM    3  C   UNL     1       6.218  29.650  57.174  1.00  0.00     0.065 C 
HETATM    4  C   UNL     1       7.615  29.704  57.361  1.00  0.00     0.091 C 
HETATM    5  C   UNL     1       8.488  28.991  56.527  1.00  0.00     0.088 C 
HETATM    6  N   UNL     1       9.783  29.073  56.961  1.00  0.00    -0.242 NA
HETATM    7  C   UNL     1       9.745  29.881  57.988  1.00  0.00     0.210 C 
HETATM    8  N   UNL     1       8.478  30.363  58.221  1.00  0.00    -0.337 N 
HETATM    9  C   UNL     1       8.007  28.320  55.397  1.00  0.00     0.051 C 
ENDROOT
BRANCH   1  10
HETATM   10  C   UNL     1       6.162  27.842  53.825  1.00  0.00     0.253 C 
HETATM   11  N   UNL     1       5.457  26.638  53.771  1.00  0.00    -0.350 N 
HETATM   12  C   UNL     1       4.834  26.296  52.497  1.00  0.00     0.153 C 
HETATM   13  O   UNL     1       6.376  28.545  52.837  1.00  0.00    -0.267 OA
BRANCH  11  14
HETATM   14  C   UNL     1       5.634  25.535  54.739  1.00  0.00     0.158 C 
BRANCH  14  15
HETATM   15  C   UNL     1       7.008  24.838  54.682  1.00  0.00     0.151 A 
HETATM   16  O   UNL     1       7.084  23.831  55.732  1.00  0.00    -0.343 OA
HETATM   17  C   UNL     1       7.488  22.684  55.118  1.00  0.00     0.075 A 
HETATM   18  C   UNL     1       7.600  22.789  53.745  1.00  0.00    -0.022 A 
HETATM   19  C   UNL     1       7.752  21.506  55.785  1.00  0.00     0.037 A 
HETATM   20  C   UNL     1       7.235  24.157  53.316  1.00  0.00     0.075 A 
HETATM   21  C   UNL     1       7.979  21.697  52.981  1.00  0.00     0.010 A 
HETATM   22  C   UNL     1       8.251  20.492  53.636  1.00  0.00     0.001 A 
HETATM   23  C   UNL     1       8.140  20.395  55.032  1.00  0.00     0.003 A 
ENDBRANCH  14  15
ENDBRANCH  11  14
ENDBRANCH   1  10
BRANCH   3  24
HETATM   24  N   UNL     1       5.327  30.167  58.131  1.00  0.00    -0.323 N 
HETATM   25  C   UNL     1       4.794  31.448  58.161  1.00  0.00     0.246 C 
HETATM   26  O   UNL     1       5.055  32.370  57.390  1.00  0.00    -0.271 OA
HETATM   27  H   UNL     1       4.848  29.520  58.742  1.00  0.00     0.169 HD
BRANCH  25  28
HETATM   28  C   UNL     1       3.740  31.626  59.259  1.00  0.00     0.270 C 
BRANCH  28  29
HETATM   29  O   UNL     1       3.031  32.859  59.136  1.00  0.00    -0.387 OA
HETATM   30  C   UNL     1       2.790  33.446  60.412  1.00  0.00     0.202 C 
ENDBRANCH  28  29
ENDBRANCH  25  28
ENDBRANCH   3  24
BRANCH   8  31
HETATM   31  C   UNL     1       8.273  31.623  58.910  1.00  0.00     0.134 C 
BRANCH  31  32
HETATM   32  C   UNL     1       8.954  31.846  60.262  1.00  0.00     0.058 C 
BRANCH  32  33
HETATM   33  C   UNL     1       8.112  32.366  61.394  1.00  0.00    -0.057 A 
HETATM   34  C   UNL     1       6.827  32.877  61.176  1.00  0.00     0.007 A 
HETATM   35  C   UNL     1       6.058  33.334  62.247  1.00  0.00     0.001 A 
HETATM   36  C   UNL     1       6.556  33.264  63.547  1.00  0.00     0.000 A 
HETATM   37  C   UNL     1       7.824  32.740  63.779  1.00  0.00     0.001 A 
HETATM   38  C   UNL     1       8.599  32.294  62.709  1.00  0.00     0.007 A 
ENDBRANCH  32  33
ENDBRANCH  31  32
ENDBRANCH   8  31
TORSDOF 9
ENDMDL
MODEL 2
REMARK VINA RESULT:     -10.3      2.021      3.346
REMARK  9 active torsions:
REMARK  status: ('A' for Active; 'I' for Inactive)
REMARK       I    between atoms: N_2  and  C_3 
REMARK    1  A    between atoms: N_2  and  C_28 
REMARK    2  A    between atoms: C_3  and  C_4 
REMARK    3  A    between atoms: C_6  and  N_7 
REMARK       I    between atoms: N_7  and  C_8 
REMARK    4  A    between atoms: C_8  and  C_9 
REMARK    5  A    between atoms: C_9  and  O_10 
REMARK    6  A    between atoms: N_17  and  C_18 
REMARK    7  A    between atoms: C_18  and  C_19 
REMARK    8  A    between atoms: C_19  and  C_20 
REMARK    9  A    between atoms: C_28  and  C_29 
ROOT
HETATM    1  C   UNL     1       5.606  28.126  54.177  1.00  0.00     0.036 C 
HETATM    2  C   UNL     1       6.894  28.370  54.659  1.00  0.00     0.049 C 
HETATM    3  C   UNL     1       7.152  29.340  55.643  1.00  0.00     0.065 C 
HETATM    4  C   UNL     1       6.025  29.966  56.218  1.00  0.00     0.091 C 
HETATM    5  C   UNL     1       4.741  29.780  55.688  1.00  0.00     0.088 C 
HETATM    6  N   UNL     1       3.817  30.578  56.306  1.00  0.00    -0.242 NA
HETATM    7  C   UNL     1       4.478  31.189  57.253  1.00  0.00     0.210 C 
HETATM    8  N   UNL     1       5.795  30.793  57.305  1.00  0.00    -0.337 N 
HETATM    9  C   UNL     1       4.519  28.852  54.664  1.00  0.00     0.051 C 
ENDROOT
BRANCH   1  10
HETATM   10  C   UNL     1       5.341  27.003  53.247  1.00  0.00     0.253 C 
HETATM   11  N   UNL     1       5.070  25.726  53.744  1.00  0.00    -0.350 N 
HETATM   12  C   UNL     1       4.607  24.730  52.784  1.00  0.00     0.153 C 
HETATM   13  O   UNL     1       5.321  27.279  52.047  1.00  0.00    -0.267 OA
BRANCH  11  14
HETATM   14  C   UNL     1       5.591  25.215  55.029  1.00  0.00     0.158 C 
BRANCH  14  15
HETATM   15  C   UNL     1       7.000  24.594  54.956  1.00  0.00     0.151 A 
HETATM   16  O   UNL     1       7.077  23.459  55.868  1.00  0.00    -0.343 OA
HETATM   17  C   UNL     1       7.568  22.424  55.131  1.00  0.00     0.075 A 
HETATM   18  C   UNL     1       7.741  22.717  53.792  1.00  0.00    -0.022 A 
HETATM   19  C   UNL     1       7.859  21.180  55.651  1.00  0.00     0.037 A 
HETATM   20  C   UNL     1       7.328  24.112  53.527  1.00  0.00     0.075 A 
HETATM   21  C   UNL     1       8.212  21.755  52.913  1.00  0.00     0.010 A 
HETATM   22  C   UNL     1       8.513  20.486  53.418  1.00  0.00     0.001 A 
HETATM   23  C   UNL     1       8.340  20.199  54.781  1.00  0.00     0.003 A 
ENDBRANCH  14  15
ENDBRANCH  11  14
ENDBRANCH   1  10
BRANCH   3  24
HETATM   24  N   UNL     1       8.461  29.695  56.015  1.00  0.00    -0.323 N 
HETATM   25  C   UNL     1       9.248  29.073  56.973  1.00  0.00     0.246 C 
HETATM   26  O   UNL     1       8.916  28.144  57.706  1.00  0.00    -0.271 OA
HETATM   27  H   UNL     1       8.982  30.314  55.409  1.00  0.00     0.169 HD
BRANCH  25  28
HETATM   28  C   UNL     1      10.677  29.625  57.016  1.00  0.00     0.270 C 
BRANCH  28  29
HETATM   29  O   UNL     1      10.707  31.048  57.133  1.00  0.00    -0.387 OA
HETATM   30  C   UNL     1      10.269  31.469  58.421  1.00  0.00     0.202 C 
ENDBRANCH  28  29
ENDBRANCH  25  28
ENDBRANCH   3  24
BRANCH   8  31
HETATM   31  C   UNL     1       6.559  30.897  58.533  1.00  0.00     0.134 C 
BRANCH  31  32
HETATM   32  C   UNL     1       6.616  32.245  59.256  1.00  0.00     0.058 C 
BRANCH  32  33
HETATM   33  C   UNL     1       7.100  32.258  60.680  1.00  0.00    -0.057 A 
HETATM   34  C   UNL     1       6.698  33.251  61.581  1.00  0.00     0.007 A 
HETATM   35  C   UNL     1       7.146  33.228  62.903  1.00  0.00     0.001 A 
HETATM   36  C   UNL     1       7.981  32.202  63.342  1.00  0.00     0.000 A 
HETATM   37  C   UNL     1       8.372  31.198  62.460  1.00  0.00     0.001 A 
HETATM   38  C   UNL     1       7.936  31.226  61.136  1.00  0.00     0.007 A 
ENDBRANCH  32  33
ENDBRANCH  31  32
ENDBRANCH   8  31
TORSDOF 9
ENDMDL
MODEL 3
REMARK VINA RESULT:      -9.9      2.144      9.365
REMARK  9 active torsions:
REMARK  status: ('A' for Active; 'I' for Inactive)
REMARK       I    between atoms: N_2  and  C_3 
REMARK    1  A    between atoms: N_2  and  C_28 
REMARK    2  A    between atoms: C_3  and  C_4 
REMARK    3  A    between atoms: C_6  and  N_7 
REMARK       I    between atoms: N_7  and  C_8 
REMARK    4  A    between atoms: C_8  and  C_9 
REMARK    5  A    between atoms: C_9  and  O_10 
REMARK    6  A    between atoms: N_17  and  C_18 
REMARK    7  A    between atoms: C_18  and  C_19 
REMARK    8  A    between atoms: C_19  and  C_20 
REMARK    9  A    between atoms: C_28  and  C_29 
ROOT
HETATM    1  C   UNL     1       4.738  29.768  56.349  1.00  0.00     0.036 C 
HETATM    2  C   UNL     1       6.105  29.888  56.089  1.00  0.00     0.049 C 
HETATM    3  C   UNL     1       6.969  28.779  56.113  1.00  0.00     0.065 C 
HETATM    4  C   UNL     1       6.365  27.515  56.282  1.00  0.00     0.091 C 
HETATM    5  C   UNL     1       5.008  27.397  56.615  1.00  0.00     0.088 C 
HETATM    6  N   UNL     1       4.658  26.097  56.863  1.00  0.00    -0.242 NA
HETATM    7  C   UNL     1       5.738  25.403  56.614  1.00  0.00     0.210 C 
HETATM    8  N   UNL     1       6.773  26.196  56.175  1.00  0.00    -0.337 N 
HETATM    9  C   UNL     1       4.180  28.525  56.646  1.00  0.00     0.051 C 
ENDROOT
BRANCH   1  10
HETATM   10  C   UNL     1       3.826  30.924  56.177  1.00  0.00     0.253 C 
HETATM   11  N   UNL     1       3.845  31.978  57.094  1.00  0.00    -0.350 N 
HETATM   12  C   UNL     1       3.083  33.171  56.742  1.00  0.00     0.153 C 
HETATM   13  O   UNL     1       3.115  30.916  55.172  1.00  0.00    -0.267 OA
BRANCH  11  14
HETATM   14  C   UNL     1       4.219  31.826  58.515  1.00  0.00     0.158 C 
BRANCH  14  15
HETATM   15  C   UNL     1       5.441  32.656  58.956  1.00  0.00     0.151 A 
HETATM   16  O   UNL     1       5.237  33.135  60.317  1.00  0.00    -0.343 OA
HETATM   17  C   UNL     1       6.361  32.790  61.004  1.00  0.00     0.075 A 
HETATM   18  C   UNL     1       7.262  32.041  60.273  1.00  0.00    -0.022 A 
HETATM   19  C   UNL     1       6.591  33.131  62.321  1.00  0.00     0.037 A 
HETATM   20  C   UNL     1       6.736  31.817  58.909  1.00  0.00     0.075 A 
HETATM   21  C   UNL     1       8.442  31.597  60.847  1.00  0.00     0.010 A 
HETATM   22  C   UNL     1       8.697  31.931  62.181  1.00  0.00     0.001 A 
HETATM   23  C   UNL     1       7.777  32.696  62.916  1.00  0.00     0.003 A 
ENDBRANCH  14  15
ENDBRANCH  11  14
ENDBRANCH   1  10
BRANCH   3  24
HETATM   24  N   UNL     1       8.364  28.919  56.008  1.00  0.00    -0.323 N 
HETATM   25  C   UNL     1       9.268  29.020  57.056  1.00  0.00     0.246 C 
HETATM   26  O   UNL     1       8.999  29.066  58.255  1.00  0.00    -0.271 OA
HETATM   27  H   UNL     1       8.803  28.721  55.119  1.00  0.00     0.169 HD
BRANCH  25  28
HETATM   28  C   UNL     1      10.726  29.010  56.585  1.00  0.00     0.270 C 
BRANCH  28  29
HETATM   29  O   UNL     1      11.515  30.003  57.239  1.00  0.00    -0.387 OA
HETATM   30  C   UNL     1      10.717  31.109  57.651  1.00  0.00     0.202 C 
ENDBRANCH  28  29
ENDBRANCH  25  28
ENDBRANCH   3  24
BRANCH   8  31
HETATM   31  C   UNL     1       7.837  25.648  55.355  1.00  0.00     0.134 C 
BRANCH  31  32
HETATM   32  C   UNL     1       7.468  24.815  54.125  1.00  0.00     0.058 C 
BRANCH  32  33
HETATM   33  C   UNL     1       7.678  23.328  54.197  1.00  0.00    -0.057 A 
HETATM   34  C   UNL     1       7.625  22.639  55.414  1.00  0.00     0.007 A 
HETATM   35  C   UNL     1       7.803  21.254  55.451  1.00  0.00     0.001 A 
HETATM   36  C   UNL     1       8.015  20.544  54.271  1.00  0.00     0.000 A 
HETATM   37  C   UNL     1       8.051  21.215  53.052  1.00  0.00     0.001 A 
HETATM   38  C   UNL     1       7.886  22.600  53.015  1.00  0.00     0.007 A 
ENDBRANCH  32  33
ENDBRANCH  31  32
ENDBRANCH   8  31
TORSDOF 9
ENDMDL
MODEL 4
REMARK VINA RESULT:      -9.7      2.374      9.186
REMARK  9 active torsions:
REMARK  status: ('A' for Active; 'I' for Inactive)
REMARK       I    between atoms: N_2  and  C_3 
REMARK    1  A    between atoms: N_2  and  C_28 
REMARK    2  A    between atoms: C_3  and  C_4 
REMARK    3  A    between atoms: C_6  and  N_7 
REMARK       I    between atoms: N_7  and  C_8 
REMARK    4  A    between atoms: C_8  and  C_9 
REMARK    5  A    between atoms: C_9  and  O_10 
REMARK    6  A    between atoms: N_17  and  C_18 
REMARK    7  A    between atoms: C_18  and  C_19 
REMARK    8  A    between atoms: C_19  and  C_20 
REMARK    9  A    between atoms: C_28  and  C_29 
ROOT
HETATM    1  C   UNL     1       6.990  29.913  57.445  1.00  0.00     0.036 C 
HETATM    2  C   UNL     1       6.592  29.813  56.110  1.00  0.00     0.049 C 
HETATM    3  C   UNL     1       6.795  28.644  55.356  1.00  0.00     0.065 C 
HETATM    4  C   UNL     1       7.305  27.528  56.053  1.00  0.00     0.091 C 
HETATM    5  C   UNL     1       7.774  27.644  57.369  1.00  0.00     0.088 C 
HETATM    6  N   UNL     1       8.346  26.481  57.808  1.00  0.00    -0.242 NA
HETATM    7  C   UNL     1       8.170  25.629  56.833  1.00  0.00     0.210 C 
HETATM    8  N   UNL     1       7.471  26.179  55.784  1.00  0.00    -0.337 N 
HETATM    9  C   UNL     1       7.616  28.840  58.080  1.00  0.00     0.051 C 
ENDROOT
BRANCH   1  10
HETATM   10  C   UNL     1       6.636  31.100  58.259  1.00  0.00     0.253 C 
HETATM   11  N   UNL     1       5.335  31.260  58.743  1.00  0.00    -0.350 N 
HETATM   12  C   UNL     1       5.119  32.330  59.710  1.00  0.00     0.153 C 
HETATM   13  O   UNL     1       7.553  31.881  58.516  1.00  0.00    -0.267 OA
BRANCH  11  14
HETATM   14  C   UNL     1       4.135  30.723  58.069  1.00  0.00     0.158 C 
BRANCH  14  15
HETATM   15  C   UNL     1       3.441  31.704  57.103  1.00  0.00     0.151 A 
HETATM   16  O   UNL     1       4.420  32.656  56.593  1.00  0.00    -0.343 OA
HETATM   17  C   UNL     1       4.280  32.639  55.238  1.00  0.00     0.075 A 
HETATM   18  C   UNL     1       3.375  31.704  54.774  1.00  0.00    -0.022 A 
HETATM   19  C   UNL     1       4.984  33.463  54.383  1.00  0.00     0.037 A 
HETATM   20  C   UNL     1       2.797  30.960  55.914  1.00  0.00     0.075 A 
HETATM   21  C   UNL     1       3.145  31.556  53.417  1.00  0.00     0.010 A 
HETATM   22  C   UNL     1       3.848  32.380  52.531  1.00  0.00     0.001 A 
HETATM   23  C   UNL     1       4.762  33.331  53.011  1.00  0.00     0.003 A 
ENDBRANCH  14  15
ENDBRANCH  11  14
ENDBRANCH   1  10
BRANCH   3  24
HETATM   24  N   UNL     1       6.540  28.595  53.974  1.00  0.00    -0.323 N 
HETATM   25  C   UNL     1       5.321  28.331  53.366  1.00  0.00     0.246 C 
HETATM   26  O   UNL     1       4.269  28.035  53.928  1.00  0.00    -0.271 OA
HETATM   27  H   UNL     1       7.225  28.987  53.344  1.00  0.00     0.169 HD
BRANCH  25  28
HETATM   28  C   UNL     1       5.368  28.505  51.844  1.00  0.00     0.270 C 
BRANCH  28  29
HETATM   29  O   UNL     1       4.614  27.505  51.159  1.00  0.00    -0.387 OA
HETATM   30  C   UNL     1       5.359  26.300  51.023  1.00  0.00     0.202 C 
ENDBRANCH  28  29
ENDBRANCH  25  28
ENDBRANCH   3  24
BRANCH   8  31
HETATM   31  C   UNL     1       6.710  25.344  54.874  1.00  0.00     0.134 C 
BRANCH  31  32
HETATM   32  C   UNL     1       7.454  24.573  53.781  1.00  0.00     0.058 C 
BRANCH  32  33
HETATM   33  C   UNL     1       7.697  23.105  54.001  1.00  0.00    -0.057 A 
HETATM   34  C   UNL     1       7.612  22.532  55.275  1.00  0.00     0.007 A 
HETATM   35  C   UNL     1       7.821  21.162  55.448  1.00  0.00     0.001 A 
HETATM   36  C   UNL     1       8.096  20.351  54.349  1.00  0.00     0.000 A 
HETATM   37  C   UNL     1       8.165  20.906  53.074  1.00  0.00     0.001 A 
HETATM   38  C   UNL     1       7.968  22.276  52.901  1.00  0.00     0.007 A 
ENDBRANCH  32  33
ENDBRANCH  31  32
ENDBRANCH   8  31
TORSDOF 9
ENDMDL
MODEL 5
REMARK VINA RESULT:      -9.6      1.775      9.867
REMARK  9 active torsions:
REMARK  status: ('A' for Active; 'I' for Inactive)
REMARK       I    between atoms: N_2  and  C_3 
REMARK    1  A    between atoms: N_2  and  C_28 
REMARK    2  A    between atoms: C_3  and  C_4 
REMARK    3  A    between atoms: C_6  and  N_7 
REMARK       I    between atoms: N_7  and  C_8 
REMARK    4  A    between atoms: C_8  and  C_9 
REMARK    5  A    between atoms: C_9  and  O_10 
REMARK    6  A    between atoms: N_17  and  C_18 
REMARK    7  A    between atoms: C_18  and  C_19 
REMARK    8  A    between atoms: C_19  and  C_20 
REMARK    9  A    between atoms: C_28  and  C_29 
ROOT
HETATM    1  C   UNL     1       5.629  29.874  56.001  1.00  0.00     0.036 C 
HETATM    2  C   UNL     1       5.357  28.975  54.967  1.00  0.00     0.049 C 
HETATM    3  C   UNL     1       5.907  27.682  54.939  1.00  0.00     0.065 C 
HETATM    4  C   UNL     1       6.645  27.288  56.076  1.00  0.00     0.091 C 
HETATM    5  C   UNL     1       6.982  28.208  57.078  1.00  0.00     0.088 C 
HETATM    6  N   UNL     1       7.808  27.654  58.018  1.00  0.00    -0.242 NA
HETATM    7  C   UNL     1       7.924  26.400  57.668  1.00  0.00     0.210 C 
HETATM    8  N   UNL     1       7.174  26.101  56.555  1.00  0.00    -0.337 N 
HETATM    9  C   UNL     1       6.471  29.511  57.052  1.00  0.00     0.051 C 
ENDROOT
BRANCH   1  10
HETATM   10  C   UNL     1       4.926  31.176  56.082  1.00  0.00     0.253 C 
HETATM   11  N   UNL     1       5.164  32.040  57.155  1.00  0.00    -0.350 N 
HETATM   12  C   UNL     1       4.608  33.384  57.054  1.00  0.00     0.153 C 
HETATM   13  O   UNL     1       4.185  31.458  55.141  1.00  0.00    -0.267 OA
BRANCH  11  14
HETATM   14  C   UNL     1       5.562  31.586  58.504  1.00  0.00     0.158 C 
BRANCH  14  15
HETATM   15  C   UNL     1       6.461  32.569  59.279  1.00  0.00     0.151 A 
HETATM   16  O   UNL     1       5.676  33.234  60.311  1.00  0.00    -0.343 OA
HETATM   17  C   UNL     1       6.384  33.089  61.466  1.00  0.00     0.075 A 
HETATM   18  C   UNL     1       7.519  32.313  61.339  1.00  0.00    -0.022 A 
HETATM   19  C   UNL     1       6.009  33.646  62.671  1.00  0.00     0.037 A 
HETATM   20  C   UNL     1       7.648  31.841  59.943  1.00  0.00     0.075 A 
HETATM   21  C   UNL     1       8.327  32.058  62.435  1.00  0.00     0.010 A 
HETATM   22  C   UNL     1       7.967  32.612  63.667  1.00  0.00     0.001 A 
HETATM   23  C   UNL     1       6.814  33.404  63.787  1.00  0.00     0.003 A 
ENDBRANCH  14  15
ENDBRANCH  11  14
ENDBRANCH   1  10
BRANCH   3  24
HETATM   24  N   UNL     1       5.762  26.834  53.826  1.00  0.00    -0.323 N 
HETATM   25  C   UNL     1       6.773  26.382  52.992  1.00  0.00     0.246 C 
HETATM   26  O   UNL     1       7.962  26.691  53.045  1.00  0.00    -0.271 OA
HETATM   27  H   UNL     1       4.897  26.323  53.721  1.00  0.00     0.169 HD
BRANCH  25  28
HETATM   28  C   UNL     1       6.282  25.352  51.968  1.00  0.00     0.270 C 
BRANCH  28  29
HETATM   29  O   UNL     1       4.997  25.682  51.441  1.00  0.00    -0.387 OA
HETATM   30  C   UNL     1       5.110  26.485  50.270  1.00  0.00     0.202 C 
ENDBRANCH  28  29
ENDBRANCH  25  28
ENDBRANCH   3  24
BRANCH   8  31
HETATM   31  C   UNL     1       6.717  24.747  56.303  1.00  0.00     0.134 C 
BRANCH  31  32
HETATM   32  C   UNL     1       7.698  23.588  56.498  1.00  0.00     0.058 C 
BRANCH  32  33
HETATM   33  C   UNL     1       7.835  22.590  55.382  1.00  0.00    -0.057 A 
HETATM   34  C   UNL     1       7.821  21.212  55.628  1.00  0.00     0.007 A 
HETATM   35  C   UNL     1       7.929  20.305  54.571  1.00  0.00     0.001 A 
HETATM   36  C   UNL     1       8.030  20.766  53.260  1.00  0.00     0.000 A 
HETATM   37  C   UNL     1       8.025  22.134  53.002  1.00  0.00     0.001 A 
HETATM   38  C   UNL     1       7.930  23.041  54.057  1.00  0.00     0.007 A 
ENDBRANCH  32  33
ENDBRANCH  31  32
ENDBRANCH   8  31
TORSDOF 9
ENDMDL
MODEL 6
REMARK VINA RESULT:      -9.6      2.105      9.701
REMARK  9 active torsions:
REMARK  status: ('A' for Active; 'I' for Inactive)
REMARK       I    between atoms: N_2  and  C_3 
REMARK    1  A    between atoms: N_2  and  C_28 
REMARK    2  A    between atoms: C_3  and  C_4 
REMARK    3  A    between atoms: C_6  and  N_7 
REMARK       I    between atoms: N_7  and  C_8 
REMARK    4  A    between atoms: C_8  and  C_9 
REMARK    5  A    between atoms: C_9  and  O_10 
REMARK    6  A    between atoms: N_17  and  C_18 
REMARK    7  A    between atoms: C_18  and  C_19 
REMARK    8  A    between atoms: C_19  and  C_20 
REMARK    9  A    between atoms: C_28  and  C_29 
ROOT
HETATM    1  C   UNL     1       4.686  29.450  55.049  1.00  0.00     0.036 C 
HETATM    2  C   UNL     1       4.257  28.750  53.919  1.00  0.00     0.049 C 
HETATM    3  C   UNL     1       4.867  27.552  53.508  1.00  0.00     0.065 C 
HETATM    4  C   UNL     1       5.852  27.021  54.368  1.00  0.00     0.091 C 
HETATM    5  C   UNL     1       6.335  27.754  55.460  1.00  0.00     0.088 C 
HETATM    6  N   UNL     1       7.375  27.115  56.079  1.00  0.00    -0.242 NA
HETATM    7  C   UNL     1       7.491  25.974  55.453  1.00  0.00     0.210 C 
HETATM    8  N   UNL     1       6.542  25.824  54.468  1.00  0.00    -0.337 N 
HETATM    9  C   UNL     1       5.752  28.976  55.814  1.00  0.00     0.051 C 
ENDROOT
BRANCH   1  10
HETATM   10  C   UNL     1       3.937  30.630  55.544  1.00  0.00     0.253 C 
HETATM   11  N   UNL     1       4.398  31.342  56.654  1.00  0.00    -0.350 N 
HETATM   12  C   UNL     1       3.735  32.609  56.945  1.00  0.00     0.153 C 
HETATM   13  O   UNL     1       2.944  30.959  54.895  1.00  0.00    -0.267 OA
BRANCH  11  14
HETATM   14  C   UNL     1       5.188  30.740  57.748  1.00  0.00     0.158 C 
BRANCH  14  15
HETATM   15  C   UNL     1       6.405  31.571  58.201  1.00  0.00     0.151 A 
HETATM   16  O   UNL     1       6.087  32.256  59.447  1.00  0.00    -0.343 OA
HETATM   17  C   UNL     1       7.110  31.967  60.300  1.00  0.00     0.075 A 
HETATM   18  C   UNL     1       8.037  31.079  59.789  1.00  0.00    -0.022 A 
HETATM   19  C   UNL     1       7.221  32.489  61.572  1.00  0.00     0.037 A 
HETATM   20  C   UNL     1       7.644  30.678  58.421  1.00  0.00     0.075 A 
HETATM   21  C   UNL     1       9.120  30.672  60.550  1.00  0.00     0.010 A 
HETATM   22  C   UNL     1       9.253  31.188  61.843  1.00  0.00     0.001 A 
HETATM   23  C   UNL     1       8.310  32.094  62.353  1.00  0.00     0.003 A 
ENDBRANCH  14  15
ENDBRANCH  11  14
ENDBRANCH   1  10
BRANCH   3  24
HETATM   24  N   UNL     1       4.542  26.931  52.289  1.00  0.00    -0.323 N 
HETATM   25  C   UNL     1       4.953  27.325  51.023  1.00  0.00     0.246 C 
HETATM   26  O   UNL     1       5.621  28.318  50.744  1.00  0.00    -0.271 OA
HETATM   27  H   UNL     1       4.156  25.998  52.312  1.00  0.00     0.169 HD
BRANCH  25  28
HETATM   28  C   UNL     1       4.537  26.334  49.930  1.00  0.00     0.270 C 
BRANCH  28  29
HETATM   29  O   UNL     1       4.548  26.923  48.630  1.00  0.00    -0.387 OA
HETATM   30  C   UNL     1       3.797  26.144  47.704  1.00  0.00     0.202 C 
ENDBRANCH  28  29
ENDBRANCH  25  28
ENDBRANCH   3  24
BRANCH   8  31
HETATM   31  C   UNL     1       6.127  24.507  54.025  1.00  0.00     0.134 C 
BRANCH  31  32
HETATM   32  C   UNL     1       7.096  23.670  53.186  1.00  0.00     0.058 C 
BRANCH  32  33
HETATM   33  C   UNL     1       7.620  22.394  53.783  1.00  0.00    -0.057 A 
HETATM   34  C   UNL     1       8.176  21.387  52.986  1.00  0.00     0.007 A 
HETATM   35  C   UNL     1       8.674  20.219  53.568  1.00  0.00     0.001 A 
HETATM   36  C   UNL     1       8.641  20.058  54.951  1.00  0.00     0.000 A 
HETATM   37  C   UNL     1       8.108  21.060  55.757  1.00  0.00     0.001 A 
HETATM   38  C   UNL     1       7.598  22.221  55.176  1.00  0.00     0.007 A 
ENDBRANCH  32  33
ENDBRANCH  31  32
ENDBRANCH   8  31
TORSDOF 9
ENDMDL
MODEL 7
REMARK VINA RESULT:      -9.5      3.486      8.650
REMARK  9 active torsions:
REMARK  status: ('A' for Active; 'I' for Inactive)
REMARK       I    between atoms: N_2  and  C_3 
REMARK    1  A    between atoms: N_2  and  C_28 
REMARK    2  A    between atoms: C_3  and  C_4 
REMARK    3  A    between atoms: C_6  and  N_7 
REMARK       I    between atoms: N_7  and  C_8 
REMARK    4  A    between atoms: C_8  and  C_9 
REMARK    5  A    between atoms: C_9  and  O_10 
REMARK    6  A    between atoms: N_17  and  C_18 
REMARK    7  A    between atoms: C_18  and  C_19 
REMARK    8  A    between atoms: C_19  and  C_20 
REMARK    9  A    between atoms: C_28  and  C_29 
ROOT
HETATM    1  C   UNL     1       4.451  29.141  52.995  1.00  0.00     0.036 C 
HETATM    2  C   UNL     1       5.376  29.049  54.038  1.00  0.00     0.049 C 
HETATM    3  C   UNL     1       6.046  27.849  54.337  1.00  0.00     0.065 C 
HETATM    4  C   UNL     1       5.836  26.774  53.448  1.00  0.00     0.091 C 
HETATM    5  C   UNL     1       4.856  26.839  52.447  1.00  0.00     0.088 C 
HETATM    6  N   UNL     1       4.726  25.647  51.787  1.00  0.00    -0.242 NA
HETATM    7  C   UNL     1       5.652  24.877  52.295  1.00  0.00     0.210 C 
HETATM    8  N   UNL     1       6.410  25.531  53.239  1.00  0.00    -0.337 N 
HETATM    9  C   UNL     1       4.157  28.028  52.208  1.00  0.00     0.051 C 
ENDROOT
BRANCH   1  10
HETATM   10  C   UNL     1       3.867  30.448  52.609  1.00  0.00     0.253 C 
HETATM   11  N   UNL     1       4.050  30.947  51.317  1.00  0.00    -0.350 N 
HETATM   12  C   UNL     1       3.269  32.122  50.948  1.00  0.00     0.153 C 
HETATM   13  O   UNL     1       3.185  31.016  53.462  1.00  0.00    -0.267 OA
BRANCH  11  14
HETATM   14  C   UNL     1       5.226  30.642  50.476  1.00  0.00     0.158 C 
BRANCH  14  15
HETATM   15  C   UNL     1       4.896  30.024  49.102  1.00  0.00     0.151 A 
HETATM   16  O   UNL     1       5.492  28.697  49.012  1.00  0.00    -0.343 OA
HETATM   17  C   UNL     1       4.489  27.866  48.614  1.00  0.00     0.075 A 
HETATM   18  C   UNL     1       3.253  28.477  48.520  1.00  0.00    -0.022 A 
HETATM   19  C   UNL     1       4.664  26.525  48.342  1.00  0.00     0.037 A 
HETATM   20  C   UNL     1       3.372  29.904  48.891  1.00  0.00     0.075 A 
HETATM   21  C   UNL     1       2.133  27.753  48.150  1.00  0.00     0.010 A 
HETATM   22  C   UNL     1       2.286  26.391  47.869  1.00  0.00     0.001 A 
HETATM   23  C   UNL     1       3.546  25.779  47.962  1.00  0.00     0.003 A 
ENDBRANCH  14  15
ENDBRANCH  11  14
ENDBRANCH   1  10
BRANCH   3  24
HETATM   24  N   UNL     1       6.855  27.713  55.479  1.00  0.00    -0.323 N 
HETATM   25  C   UNL     1       6.426  27.449  56.771  1.00  0.00     0.246 C 
HETATM   26  O   UNL     1       5.262  27.350  57.153  1.00  0.00    -0.271 OA
HETATM   27  H   UNL     1       7.849  27.578  55.351  1.00  0.00     0.169 HD
BRANCH  25  28
HETATM   28  C   UNL     1       7.587  27.215  57.745  1.00  0.00     0.270 C 
BRANCH  28  29
HETATM   29  O   UNL     1       8.499  28.313  57.777  1.00  0.00    -0.387 OA
HETATM   30  C   UNL     1       7.927  29.440  58.433  1.00  0.00     0.202 C 
ENDBRANCH  28  29
ENDBRANCH  25  28
ENDBRANCH   3  24
BRANCH   8  31
HETATM   31  C   UNL     1       7.764  25.104  53.536  1.00  0.00     0.134 C 
BRANCH  31  32
HETATM   32  C   UNL     1       8.013  24.243  54.776  1.00  0.00     0.058 C 
BRANCH  32  33
HETATM   33  C   UNL     1       8.233  22.770  54.575  1.00  0.00    -0.057 A 
HETATM   34  C   UNL     1       8.491  21.914  55.652  1.00  0.00     0.007 A 
HETATM   35  C   UNL     1       8.672  20.546  55.440  1.00  0.00     0.001 A 
HETATM   36  C   UNL     1       8.575  20.018  54.155  1.00  0.00     0.000 A 
HETATM   37  C   UNL     1       8.299  20.855  53.077  1.00  0.00     0.001 A 
HETATM   38  C   UNL     1       8.131  22.224  53.285  1.00  0.00     0.007 A 
ENDBRANCH  32  33
ENDBRANCH  31  32
ENDBRANCH   8  31
TORSDOF 9
ENDMDL
MODEL 8
REMARK VINA RESULT:      -9.4      3.740      8.991
REMARK  9 active torsions:
REMARK  status: ('A' for Active; 'I' for Inactive)
REMARK       I    between atoms: N_2  and  C_3 
REMARK    1  A    between atoms: N_2  and  C_28 
REMARK    2  A    between atoms: C_3  and  C_4 
REMARK    3  A    between atoms: C_6  and  N_7 
REMARK       I    between atoms: N_7  and  C_8 
REMARK    4  A    between atoms: C_8  and  C_9 
REMARK    5  A    between atoms: C_9  and  O_10 
REMARK    6  A    between atoms: N_17  and  C_18 
REMARK    7  A    between atoms: C_18  and  C_19 
REMARK    8  A    between atoms: C_19  and  C_20 
REMARK    9  A    between atoms: C_28  and  C_29 
ROOT
HETATM    1  C   UNL     1       5.266  29.472  51.356  1.00  0.00     0.036 C 
HETATM    2  C   UNL     1       5.462  29.510  52.738  1.00  0.00     0.049 C 
HETATM    3  C   UNL     1       5.429  28.346  53.528  1.00  0.00     0.065 C 
HETATM    4  C   UNL     1       5.319  27.121  52.837  1.00  0.00     0.091 C 
HETATM    5  C   UNL     1       5.049  27.083  51.462  1.00  0.00     0.088 C 
HETATM    6  N   UNL     1       4.850  25.804  51.019  1.00  0.00    -0.242 NA
HETATM    7  C   UNL     1       5.070  25.047  52.062  1.00  0.00     0.210 C 
HETATM    8  N   UNL     1       5.443  25.781  53.165  1.00  0.00    -0.337 N 
HETATM    9  C   UNL     1       5.025  28.261  50.707  1.00  0.00     0.051 C 
ENDROOT
BRANCH   1  10
HETATM   10  C   UNL     1       5.447  30.689  50.528  1.00  0.00     0.253 C 
HETATM   11  N   UNL     1       4.409  31.614  50.400  1.00  0.00    -0.350 N 
HETATM   12  C   UNL     1       4.733  32.882  49.755  1.00  0.00     0.153 C 
HETATM   13  O   UNL     1       6.560  30.848  50.025  1.00  0.00    -0.267 OA
BRANCH  11  14
HETATM   14  C   UNL     1       2.976  31.262  50.487  1.00  0.00     0.158 C 
BRANCH  14  15
HETATM   15  C   UNL     1       2.358  30.736  49.176  1.00  0.00     0.151 A 
HETATM   16  O   UNL     1       3.390  30.083  48.382  1.00  0.00    -0.343 OA
HETATM   17  C   UNL     1       2.884  28.862  48.049  1.00  0.00     0.075 A 
HETATM   18  C   UNL     1       1.657  28.585  48.618  1.00  0.00    -0.022 A 
HETATM   19  C   UNL     1       3.532  27.958  47.233  1.00  0.00     0.037 A 
HETATM   20  C   UNL     1       1.225  29.726  49.455  1.00  0.00     0.075 A 
HETATM   21  C   UNL     1       1.029  27.372  48.390  1.00  0.00     0.010 A 
HETATM   22  C   UNL     1       1.667  26.440  47.565  1.00  0.00     0.001 A 
HETATM   23  C   UNL     1       2.913  26.731  46.987  1.00  0.00     0.003 A 
ENDBRANCH  14  15
ENDBRANCH  11  14
ENDBRANCH   1  10
BRANCH   3  24
HETATM   24  N   UNL     1       5.469  28.398  54.932  1.00  0.00    -0.323 N 
HETATM   25  C   UNL     1       6.600  28.525  55.726  1.00  0.00     0.246 C 
HETATM   26  O   UNL     1       7.767  28.552  55.341  1.00  0.00    -0.271 OA
HETATM   27  H   UNL     1       4.608  28.574  55.432  1.00  0.00     0.169 HD
BRANCH  25  28
HETATM   28  C   UNL     1       6.266  28.700  57.211  1.00  0.00     0.270 C 
BRANCH  28  29
HETATM   29  O   UNL     1       7.406  28.512  58.050  1.00  0.00    -0.387 OA
HETATM   30  C   UNL     1       7.875  29.752  58.570  1.00  0.00     0.202 C 
ENDBRANCH  28  29
ENDBRANCH  25  28
ENDBRANCH   3  24
BRANCH   8  31
HETATM   31  C   UNL     1       6.229  25.184  54.228  1.00  0.00     0.134 C 
BRANCH  31  32
HETATM   32  C   UNL     1       7.585  24.562  53.884  1.00  0.00     0.058 C 
BRANCH  32  33
HETATM   33  C   UNL     1       7.735  23.075  54.044  1.00  0.00    -0.057 A 
HETATM   34  C   UNL     1       8.025  22.247  52.953  1.00  0.00     0.007 A 
HETATM   35  C   UNL     1       8.179  20.871  53.131  1.00  0.00     0.001 A 
HETATM   36  C   UNL     1       8.068  20.313  54.403  1.00  0.00     0.000 A 
HETATM   37  C   UNL     1       7.799  21.128  55.499  1.00  0.00     0.001 A 
HETATM   38  C   UNL     1       7.632  22.501  55.321  1.00  0.00     0.007 A 
ENDBRANCH  32  33
ENDBRANCH  31  32
ENDBRANCH   8  31
TORSDOF 9
ENDMDL
MODEL 9
REMARK VINA RESULT:      -9.4      2.397     10.439
REMARK  9 active torsions:
REMARK  status: ('A' for Active; 'I' for Inactive)
REMARK       I    between atoms: N_2  and  C_3 
REMARK    1  A    between atoms: N_2  and  C_28 
REMARK    2  A    between atoms: C_3  and  C_4 
REMARK    3  A    between atoms: C_6  and  N_7 
REMARK       I    between atoms: N_7  and  C_8 
REMARK    4  A    between atoms: C_8  and  C_9 
REMARK    5  A    between atoms: C_9  and  O_10 
REMARK    6  A    between atoms: N_17  and  C_18 
REMARK    7  A    between atoms: C_18  and  C_19 
REMARK    8  A    between atoms: C_19  and  C_20 
REMARK    9  A    between atoms: C_28  and  C_29 
ROOT
HETATM    1  C   UNL     1       7.624  30.736  58.784  1.00  0.00     0.036 C 
HETATM    2  C   UNL     1       7.767  29.388  58.447  1.00  0.00     0.049 C 
HETATM    3  C   UNL     1       6.776  28.688  57.736  1.00  0.00     0.065 C 
HETATM    4  C   UNL     1       5.684  29.449  57.266  1.00  0.00     0.091 C 
HETATM    5  C   UNL     1       5.501  30.781  57.664  1.00  0.00     0.088 C 
HETATM    6  N   UNL     1       4.317  31.289  57.203  1.00  0.00    -0.242 NA
HETATM    7  C   UNL     1       3.805  30.338  56.466  1.00  0.00     0.210 C 
HETATM    8  N   UNL     1       4.628  29.238  56.395  1.00  0.00    -0.337 N 
HETATM    9  C   UNL     1       6.475  31.439  58.424  1.00  0.00     0.051 C 
ENDROOT
BRANCH   1  10
HETATM   10  C   UNL     1       8.741  31.488  59.405  1.00  0.00     0.253 C 
HETATM   11  N   UNL     1       8.836  31.588  60.796  1.00  0.00    -0.350 N 
HETATM   12  C   UNL     1      10.070  32.150  61.333  1.00  0.00     0.153 C 
HETATM   13  O   UNL     1       9.581  31.954  58.636  1.00  0.00    -0.267 OA
BRANCH  11  14
HETATM   14  C   UNL     1       7.671  31.555  61.705  1.00  0.00     0.158 C 
BRANCH  14  15
HETATM   15  C   UNL     1       7.312  32.910  62.345  1.00  0.00     0.151 A 
HETATM   16  O   UNL     1       5.870  32.987  62.541  1.00  0.00    -0.343 OA
HETATM   17  C   UNL     1       5.691  33.349  63.842  1.00  0.00     0.075 A 
HETATM   18  C   UNL     1       6.861  33.432  64.571  1.00  0.00    -0.022 A 
HETATM   19  C   UNL     1       4.457  33.600  64.407  1.00  0.00     0.037 A 
HETATM   20  C   UNL     1       8.013  33.090  63.709  1.00  0.00     0.075 A 
HETATM   21  C   UNL     1       6.835  33.767  65.915  1.00  0.00     0.010 A 
HETATM   22  C   UNL     1       5.595  34.026  66.509  1.00  0.00     0.001 A 
HETATM   23  C   UNL     1       4.411  33.944  65.760  1.00  0.00     0.003 A 
ENDBRANCH  14  15
ENDBRANCH  11  14
ENDBRANCH   1  10
BRANCH   3  24
HETATM   24  N   UNL     1       6.846  27.299  57.533  1.00  0.00    -0.323 N 
HETATM   25  C   UNL     1       7.971  26.569  57.177  1.00  0.00     0.246 C 
HETATM   26  O   UNL     1       9.086  27.018  56.919  1.00  0.00    -0.271 OA
HETATM   27  H   UNL     1       6.086  26.724  57.871  1.00  0.00     0.169 HD
BRANCH  25  28
HETATM   28  C   UNL     1       7.725  25.056  57.188  1.00  0.00     0.270 C 
BRANCH  28  29
HETATM   29  O   UNL     1       6.865  24.638  56.128  1.00  0.00    -0.387 OA
HETATM   30  C   UNL     1       7.220  23.342  55.656  1.00  0.00     0.202 C 
ENDBRANCH  28  29
ENDBRANCH  25  28
ENDBRANCH   3  24
BRANCH   8  31
HETATM   31  C   UNL     1       4.558  28.324  55.271  1.00  0.00     0.134 C 
BRANCH  31  32
HETATM   32  C   UNL     1       5.688  28.336  54.238  1.00  0.00     0.058 C 
BRANCH  32  33
HETATM   33  C   UNL     1       6.050  27.033  53.580  1.00  0.00    -0.057 A 
HETATM   34  C   UNL     1       7.376  26.715  53.267  1.00  0.00     0.007 A 
HETATM   35  C   UNL     1       7.688  25.490  52.674  1.00  0.00     0.001 A 
HETATM   36  C   UNL     1       6.681  24.564  52.410  1.00  0.00     0.000 A 
HETATM   37  C   UNL     1       5.360  24.860  52.734  1.00  0.00     0.001 A 
HETATM   38  C   UNL     1       5.045  26.089  53.315  1.00  0.00     0.007 A 
ENDBRANCH  32  33
ENDBRANCH  31  32
ENDBRANCH   8  31
TORSDOF 9
ENDMDL
MODEL 10
REMARK VINA RESULT:      -9.3      2.507     10.192
REMARK  9 active torsions:
REMARK  status: ('A' for Active; 'I' for Inactive)
REMARK       I    between atoms: N_2  and  C_3 
REMARK    1  A    between atoms: N_2  and  C_28 
REMARK    2  A    between atoms: C_3  and  C_4 
REMARK    3  A    between atoms: C_6  and  N_7 
REMARK       I    between atoms: N_7  and  C_8 
REMARK    4  A    between atoms: C_8  and  C_9 
REMARK    5  A    between atoms: C_9  and  O_10 
REMARK    6  A    between atoms: N_17  and  C_18 
REMARK    7  A    between atoms: C_18  and  C_19 
REMARK    8  A    between atoms: C_19  and  C_20 
REMARK    9  A    between atoms: C_28  and  C_29 
ROOT
HETATM    1  C   UNL     1       4.347  31.798  57.818  1.00  0.00     0.036 C 
HETATM    2  C   UNL     1       5.738  31.771  57.931  1.00  0.00     0.049 C 
HETATM    3  C   UNL     1       6.496  30.650  57.548  1.00  0.00     0.065 C 
HETATM    4  C   UNL     1       5.792  29.601  56.920  1.00  0.00     0.091 C 
HETATM    5  C   UNL     1       4.391  29.592  56.871  1.00  0.00     0.088 C 
HETATM    6  N   UNL     1       3.910  28.426  56.340  1.00  0.00    -0.242 NA
HETATM    7  C   UNL     1       4.972  27.752  55.986  1.00  0.00     0.210 C 
HETATM    8  N   UNL     1       6.133  28.449  56.230  1.00  0.00    -0.337 N 
HETATM    9  C   UNL     1       3.654  30.696  57.316  1.00  0.00     0.051 C 
ENDROOT
BRANCH   1  10
HETATM   10  C   UNL     1       3.585  33.040  58.092  1.00  0.00     0.253 C 
HETATM   11  N   UNL     1       3.836  33.779  59.251  1.00  0.00    -0.350 N 
HETATM   12  C   UNL     1       3.209  35.092  59.344  1.00  0.00     0.153 C 
HETATM   13  O   UNL     1       2.782  33.392  57.228  1.00  0.00    -0.267 OA
BRANCH  11  14
HETATM   14  C   UNL     1       4.327  33.188  60.514  1.00  0.00     0.158 C 
BRANCH  14  15
HETATM   15  C   UNL     1       4.985  34.189  61.484  1.00  0.00     0.151 A 
HETATM   16  O   UNL     1       4.184  34.286  62.697  1.00  0.00    -0.343 OA
HETATM   17  C   UNL     1       5.053  34.102  63.731  1.00  0.00     0.075 A 
HETATM   18  C   UNL     1       6.341  33.794  63.337  1.00  0.00    -0.022 A 
HETATM   19  C   UNL     1       4.696  34.192  65.060  1.00  0.00     0.037 A 
HETATM   20  C   UNL     1       6.415  33.748  61.861  1.00  0.00     0.075 A 
HETATM   21  C   UNL     1       7.329  33.556  64.278  1.00  0.00     0.010 A 
HETATM   22  C   UNL     1       6.990  33.642  65.632  1.00  0.00     0.001 A 
HETATM   23  C   UNL     1       5.680  33.960  66.023  1.00  0.00     0.003 A 
ENDBRANCH  14  15
ENDBRANCH  11  14
ENDBRANCH   1  10
BRANCH   3  24
HETATM   24  N   UNL     1       7.875  30.560  57.806  1.00  0.00    -0.323 N 
HETATM   25  C   UNL     1       8.612  31.361  58.666  1.00  0.00     0.246 C 
HETATM   26  O   UNL     1       8.198  32.326  59.306  1.00  0.00    -0.271 OA
HETATM   27  H   UNL     1       8.364  29.722  57.522  1.00  0.00     0.169 HD
BRANCH  25  28
HETATM   28  C   UNL     1      10.062  30.889  58.821  1.00  0.00     0.270 C 
BRANCH  28  29
HETATM   29  O   UNL     1      10.818  31.058  57.622  1.00  0.00    -0.387 OA
HETATM   30  C   UNL     1      11.277  29.806  57.120  1.00  0.00     0.202 C 
ENDBRANCH  28  29
ENDBRANCH  25  28
ENDBRANCH   3  24
BRANCH   8  31
HETATM   31  C   UNL     1       7.340  28.179  55.471  1.00  0.00     0.134 C 
BRANCH  31  32
HETATM   32  C   UNL     1       7.211  27.626  54.050  1.00  0.00     0.058 C 
BRANCH  32  33
HETATM   33  C   UNL     1       7.474  26.161  53.841  1.00  0.00    -0.057 A 
HETATM   34  C   UNL     1       7.471  25.257  54.909  1.00  0.00     0.007 A 
HETATM   35  C   UNL     1       7.698  23.897  54.685  1.00  0.00     0.001 A 
HETATM   36  C   UNL     1       7.908  23.427  53.391  1.00  0.00     0.000 A 
HETATM   37  C   UNL     1       7.895  24.313  52.317  1.00  0.00     0.001 A 
HETATM   38  C   UNL     1       7.681  25.673  52.541  1.00  0.00     0.007 A 
ENDBRANCH  32  33
ENDBRANCH  31  32
ENDBRANCH   8  31
TORSDOF 9
ENDMDL
