MODEL 1
REMARK VINA RESULT:     -11.1      0.000      0.000
REMARK  4 active torsions:
REMARK  status: ('A' for Active; 'I' for Inactive)
REMARK    1  A    between atoms: N_5  and  C_6 
REMARK    2  A    between atoms: C_6  and  C_7 
REMARK    3  A    between atoms: C_7  and  C_8 
REMARK    4  A    between atoms: C_8  and  N_9 
ROOT
HETATM    1  C   UNL     1       5.671  25.754  51.915  1.00  0.00     0.236 C 
ENDROOT
BRANCH   1   2
HETATM    2  C   UNL     1       7.098  25.211  51.813  1.00  0.00     0.048 C 
BRANCH   2   3
HETATM    3  C   UNL     1       7.986  25.420  53.045  1.00  0.00     0.131 C 
BRANCH   3   4
HETATM    4  N   UNL     1       7.484  24.657  54.212  1.00  0.00    -0.346 N 
HETATM    5  C   UNL     1       7.796  23.272  54.248  1.00  0.00     0.041 A 
HETATM    6  C   UNL     1       8.199  22.566  55.402  1.00  0.00    -0.031 A 
HETATM    7  C   UNL     1       7.607  22.509  53.068  1.00  0.00     0.030 A 
HETATM    8  C   UNL     1       8.416  21.167  55.325  1.00  0.00     0.009 A 
HETATM    9  C   UNL     1       8.396  23.160  56.778  1.00  0.00     0.045 C 
HETATM   10  C   UNL     1       8.251  20.460  54.140  1.00  0.00     0.001 A 
HETATM   11  C   UNL     1       7.839  21.134  53.006  1.00  0.00     0.002 A 
HETATM   12  C   UNL     1       8.860  24.608  56.819  1.00  0.00     0.045 C 
HETATM   13  C   UNL     1       7.715  25.535  56.519  1.00  0.00    -0.031 A 
HETATM   14  C   UNL     1       7.061  25.488  55.279  1.00  0.00     0.042 A 
HETATM   15  C   UNL     1       7.287  26.440  57.510  1.00  0.00     0.011 A 
HETATM   16  C   UNL     1       5.953  26.335  55.082  1.00  0.00     0.054 A 
HETATM   17  C   UNL     1       5.543  27.233  56.068  1.00  0.00     0.036 A 
HETATM   18 CL   UNL     1       4.249  28.318  55.739  1.00  0.00    -0.084 Cl
HETATM   19  C   UNL     1       6.210  27.294  57.282  1.00  0.00     0.024 A 
ENDBRANCH   3   4
ENDBRANCH   2   3
ENDBRANCH   1   2
BRANCH   1  20
HETATM   20  N   UNL     1       5.178  26.648  50.756  1.00  0.00    -0.071 N 
HETATM   21  H   UNL     1       6.079  26.982  50.358  1.00  0.00     0.279 HD
HETATM   22  C   UNL     1       4.466  27.918  51.171  1.00  0.00     0.238 C 
HETATM   23  C   UNL     1       3.404  28.333  50.150  1.00  0.00     0.077 C 
HETATM   24  C   UNL     1       3.893  28.155  48.719  1.00  0.00     0.212 C 
HETATM   25  N   UNL     1       2.889  28.672  47.688  1.00  0.00    -0.032 N 
HETATM   26  C   UNL     1       5.075  29.107  48.473  1.00  0.00     0.256 C 
HETATM   27  C   UNL     1       4.304  26.716  48.399  1.00  0.00     0.077 C 
HETATM   28  H   UNL     1       3.173  28.273  46.781  1.00  0.00     0.283 HD
HETATM   29  C   UNL     1       3.209  30.128  47.533  1.00  0.00     0.290 C 
HETATM   30  C   UNL     1       1.419  28.424  47.824  1.00  0.00     0.239 C 
HETATM   31  C   UNL     1       2.612  30.624  46.229  1.00  0.00     0.055 C 
HETATM   32  N   UNL     1       4.624  30.111  47.636  1.00  0.00    -0.331 N 
HETATM   33  C   UNL     1       1.098  30.375  46.221  1.00  0.00     0.005 C 
HETATM   34  C   UNL     1       0.741  28.919  46.549  1.00  0.00     0.028 C 
HETATM   35  H   UNL     1       5.206  30.933  47.484  1.00  0.00     0.164 HD
HETATM   36  O   UNL     1       6.185  28.980  48.955  1.00  0.00    -0.271 OA
HETATM   37  C   UNL     1       4.540  25.859  49.643  1.00  0.00     0.238 C 
ENDBRANCH   1  20
TORSDOF 4
ENDMDL
MODEL 2
REMARK VINA RESULT:     -11.0      2.745      9.285
REMARK  4 active torsions:
REMARK  status: ('A' for Active; 'I' for Inactive)
REMARK    1  A    between atoms: N_5  and  C_6 
REMARK    2  A    between atoms: C_6  and  C_7 
REMARK    3  A    between atoms: C_7  and  C_8 
REMARK    4  A    between atoms: C_8  and  N_9 
ROOT
HETATM    1  C   UNL     1       5.840  28.346  52.678  1.00  0.00     0.236 C 
ENDROOT
BRANCH   1   2
HETATM    2  C   UNL     1       4.869  28.388  51.496  1.00  0.00     0.048 C 
BRANCH   2   3
HETATM    3  C   UNL     1       5.493  28.672  50.125  1.00  0.00     0.131 C 
BRANCH   3   4
HETATM    4  N   UNL     1       4.466  29.069  49.132  1.00  0.00    -0.346 N 
HETATM    5  C   UNL     1       3.658  28.030  48.602  1.00  0.00     0.041 A 
HETATM    6  C   UNL     1       2.268  28.122  48.381  1.00  0.00    -0.031 A 
HETATM    7  C   UNL     1       4.293  26.836  48.173  1.00  0.00     0.030 A 
HETATM    8  C   UNL     1       1.581  27.036  47.780  1.00  0.00     0.009 A 
HETATM    9  C   UNL     1       1.400  29.320  48.695  1.00  0.00     0.045 C 
HETATM   10  C   UNL     1       2.235  25.869  47.403  1.00  0.00     0.001 A 
HETATM   11  C   UNL     1       3.599  25.770  47.596  1.00  0.00     0.002 A 
HETATM   12  C   UNL     1       1.834  30.164  49.883  1.00  0.00     0.045 C 
HETATM   13  C   UNL     1       3.003  31.034  49.511  1.00  0.00    -0.031 A 
HETATM   14  C   UNL     1       4.222  30.465  49.115  1.00  0.00     0.042 A 
HETATM   15  C   UNL     1       2.852  32.434  49.541  1.00  0.00     0.011 A 
HETATM   16  C   UNL     1       5.257  31.331  48.714  1.00  0.00     0.054 A 
HETATM   17  C   UNL     1       5.101  32.717  48.756  1.00  0.00     0.036 A 
HETATM   18 CL   UNL     1       6.430  33.732  48.354  1.00  0.00    -0.084 Cl
HETATM   19  C   UNL     1       3.902  33.274  49.173  1.00  0.00     0.024 A 
ENDBRANCH   3   4
ENDBRANCH   2   3
ENDBRANCH   1   2
BRANCH   1  20
HETATM   20  N   UNL     1       6.124  26.962  53.302  1.00  0.00    -0.071 N 
HETATM   21  H   UNL     1       5.674  27.062  54.234  1.00  0.00     0.279 HD
HETATM   22  C   UNL     1       7.576  26.679  53.624  1.00  0.00     0.238 C 
HETATM   23  C   UNL     1       7.905  25.189  53.501  1.00  0.00     0.077 C 
HETATM   24  C   UNL     1       6.802  24.315  54.081  1.00  0.00     0.212 C 
HETATM   25  N   UNL     1       7.164  22.830  54.071  1.00  0.00    -0.032 N 
HETATM   26  C   UNL     1       6.700  24.577  55.593  1.00  0.00     0.256 C 
HETATM   27  C   UNL     1       5.442  24.544  53.418  1.00  0.00     0.077 C 
HETATM   28  H   UNL     1       6.284  22.315  54.219  1.00  0.00     0.283 HD
HETATM   29  C   UNL     1       7.908  22.604  55.352  1.00  0.00     0.290 C 
HETATM   30  C   UNL     1       7.843  22.191  52.899  1.00  0.00     0.239 C 
HETATM   31  C   UNL     1       7.904  21.120  55.666  1.00  0.00     0.055 C 
HETATM   32  N   UNL     1       7.200  23.459  56.236  1.00  0.00    -0.331 N 
HETATM   33  C   UNL     1       8.532  20.339  54.504  1.00  0.00     0.005 C 
HETATM   34  C   UNL     1       7.894  20.686  53.152  1.00  0.00     0.028 C 
HETATM   35  H   UNL     1       7.375  23.496  57.238  1.00  0.00     0.164 HD
HETATM   36  O   UNL     1       6.270  25.597  56.097  1.00  0.00    -0.271 OA
HETATM   37  C   UNL     1       5.362  25.851  52.629  1.00  0.00     0.238 C 
ENDBRANCH   1  20
TORSDOF 4
ENDMDL
MODEL 3
REMARK VINA RESULT:     -10.6      3.174      9.539
REMARK  4 active torsions:
REMARK  status: ('A' for Active; 'I' for Inactive)
REMARK    1  A    between atoms: N_5  and  C_6 
REMARK    2  A    between atoms: C_6  and  C_7 
REMARK    3  A    between atoms: C_7  and  C_8 
REMARK    4  A    between atoms: C_8  and  N_9 
ROOT
HETATM    1  C   UNL     1       5.827  28.283  52.485  1.00  0.00     0.236 C 
ENDROOT
BRANCH   1   2
HETATM    2  C   UNL     1       4.716  29.136  53.102  1.00  0.00     0.048 C 
BRANCH   2   3
HETATM    3  C   UNL     1       3.437  29.276  52.270  1.00  0.00     0.131 C 
BRANCH   3   4
HETATM    4  N   UNL     1       3.648  30.147  51.090  1.00  0.00    -0.346 N 
HETATM    5  C   UNL     1       4.187  31.436  51.340  1.00  0.00     0.041 A 
HETATM    6  C   UNL     1       5.178  32.062  50.553  1.00  0.00    -0.031 A 
HETATM    7  C   UNL     1       3.638  32.201  52.400  1.00  0.00     0.030 A 
HETATM    8  C   UNL     1       5.587  33.383  50.865  1.00  0.00     0.009 A 
HETATM    9  C   UNL     1       5.851  31.464  49.339  1.00  0.00     0.045 C 
HETATM   10  C   UNL     1       5.047  34.089  51.934  1.00  0.00     0.001 A 
HETATM   11  C   UNL     1       4.063  33.497  52.702  1.00  0.00     0.002 A 
HETATM   12  C   UNL     1       6.016  29.953  49.345  1.00  0.00     0.045 C 
HETATM   13  C   UNL     1       4.710  29.280  49.025  1.00  0.00    -0.031 A 
HETATM   14  C   UNL     1       3.597  29.441  49.862  1.00  0.00     0.042 A 
HETATM   15  C   UNL     1       4.608  28.502  47.855  1.00  0.00     0.011 A 
HETATM   16  C   UNL     1       2.383  28.841  49.474  1.00  0.00     0.054 A 
HETATM   17  C   UNL     1       2.295  28.066  48.318  1.00  0.00     0.036 A 
HETATM   18 CL   UNL     1       0.817  27.270  47.942  1.00  0.00    -0.084 Cl
HETATM   19  C   UNL     1       3.406  27.888  47.507  1.00  0.00     0.024 A 
ENDBRANCH   3   4
ENDBRANCH   2   3
ENDBRANCH   1   2
BRANCH   1  20
HETATM   20  N   UNL     1       6.105  26.913  53.142  1.00  0.00    -0.071 N 
HETATM   21  H   UNL     1       5.626  27.025  54.058  1.00  0.00     0.279 HD
HETATM   22  C   UNL     1       7.549  26.650  53.513  1.00  0.00     0.238 C 
HETATM   23  C   UNL     1       7.896  25.162  53.426  1.00  0.00     0.077 C 
HETATM   24  C   UNL     1       6.784  24.287  53.989  1.00  0.00     0.212 C 
HETATM   25  N   UNL     1       7.160  22.805  54.016  1.00  0.00    -0.032 N 
HETATM   26  C   UNL     1       6.633  24.574  55.492  1.00  0.00     0.256 C 
HETATM   27  C   UNL     1       5.442  24.491  53.280  1.00  0.00     0.077 C 
HETATM   28  H   UNL     1       6.280  22.285  54.147  1.00  0.00     0.283 HD
HETATM   29  C   UNL     1       7.867  22.610  55.323  1.00  0.00     0.290 C 
HETATM   30  C   UNL     1       7.880  22.153  52.877  1.00  0.00     0.239 C 
HETATM   31  C   UNL     1       7.867  21.131  55.664  1.00  0.00     0.055 C 
HETATM   32  N   UNL     1       7.124  23.473  56.169  1.00  0.00    -0.331 N 
HETATM   33  C   UNL     1       8.537  20.337  54.535  1.00  0.00     0.005 C 
HETATM   34  C   UNL     1       7.938  20.653  53.158  1.00  0.00     0.028 C 
HETATM   35  H   UNL     1       7.268  23.530  57.176  1.00  0.00     0.164 HD
HETATM   36  O   UNL     1       6.178  25.599  55.964  1.00  0.00    -0.271 OA
HETATM   37  C   UNL     1       5.374  25.783  52.466  1.00  0.00     0.238 C 
ENDBRANCH   1  20
TORSDOF 4
ENDMDL
MODEL 4
REMARK VINA RESULT:     -10.5      1.905      3.760
REMARK  4 active torsions:
REMARK  status: ('A' for Active; 'I' for Inactive)
REMARK    1  A    between atoms: N_5  and  C_6 
REMARK    2  A    between atoms: C_6  and  C_7 
REMARK    3  A    between atoms: C_7  and  C_8 
REMARK    4  A    between atoms: C_8  and  N_9 
ROOT
HETATM    1  C   UNL     1       6.287  25.981  51.951  1.00  0.00     0.236 C 
ENDROOT
BRANCH   1   2
HETATM    2  C   UNL     1       5.445  24.985  52.753  1.00  0.00     0.048 C 
BRANCH   2   3
HETATM    3  C   UNL     1       5.480  25.152  54.277  1.00  0.00     0.131 C 
BRANCH   3   4
HETATM    4  N   UNL     1       6.870  25.158  54.791  1.00  0.00    -0.346 N 
HETATM    5  C   UNL     1       7.337  26.377  55.348  1.00  0.00     0.041 A 
HETATM    6  C   UNL     1       8.113  26.483  56.522  1.00  0.00    -0.031 A 
HETATM    7  C   UNL     1       7.090  27.579  54.637  1.00  0.00     0.030 A 
HETATM    8  C   UNL     1       8.577  27.755  56.941  1.00  0.00     0.009 A 
HETATM    9  C   UNL     1       8.552  25.331  57.398  1.00  0.00     0.045 C 
HETATM   10  C   UNL     1       8.287  28.916  56.234  1.00  0.00     0.001 A 
HETATM   11  C   UNL     1       7.543  28.827  55.072  1.00  0.00     0.002 A 
HETATM   12  C   UNL     1       7.608  24.141  57.458  1.00  0.00     0.045 C 
HETATM   13  C   UNL     1       7.725  23.313  56.209  1.00  0.00    -0.031 A 
HETATM   14  C   UNL     1       7.407  23.857  54.956  1.00  0.00     0.042 A 
HETATM   15  C   UNL     1       8.185  21.985  56.308  1.00  0.00     0.011 A 
HETATM   16  C   UNL     1       7.602  23.052  53.817  1.00  0.00     0.054 A 
HETATM   17  C   UNL     1       8.049  21.736  53.926  1.00  0.00     0.036 A 
HETATM   18 CL   UNL     1       8.173  20.763  52.513  1.00  0.00    -0.084 Cl
HETATM   19  C   UNL     1       8.338  21.195  55.170  1.00  0.00     0.024 A 
ENDBRANCH   3   4
ENDBRANCH   2   3
ENDBRANCH   1   2
BRANCH   1  20
HETATM   20  N   UNL     1       5.576  26.736  50.806  1.00  0.00    -0.071 N 
HETATM   21  H   UNL     1       6.388  27.102  50.269  1.00  0.00     0.279 HD
HETATM   22  C   UNL     1       4.818  27.980  51.219  1.00  0.00     0.238 C 
HETATM   23  C   UNL     1       3.603  28.228  50.321  1.00  0.00     0.077 C 
HETATM   24  C   UNL     1       3.920  27.968  48.855  1.00  0.00     0.212 C 
HETATM   25  N   UNL     1       2.753  28.321  47.932  1.00  0.00    -0.032 N 
HETATM   26  C   UNL     1       4.977  28.981  48.384  1.00  0.00     0.256 C 
HETATM   27  C   UNL     1       4.407  26.542  48.588  1.00  0.00     0.077 C 
HETATM   28  H   UNL     1       2.952  27.871  47.027  1.00  0.00     0.283 HD
HETATM   29  C   UNL     1       2.926  29.779  47.630  1.00  0.00     0.290 C 
HETATM   30  C   UNL     1       1.338  27.977  48.281  1.00  0.00     0.239 C 
HETATM   31  C   UNL     1       2.128  30.119  46.385  1.00  0.00     0.055 C 
HETATM   32  N   UNL     1       4.339  29.876  47.544  1.00  0.00    -0.331 N 
HETATM   33  C   UNL     1       0.652  29.759  46.597  1.00  0.00     0.005 C 
HETATM   34  C   UNL     1       0.464  28.312  47.075  1.00  0.00     0.028 C 
HETATM   35  H   UNL     1       4.825  30.724  47.256  1.00  0.00     0.164 HD
HETATM   36  O   UNL     1       6.145  28.978  48.722  1.00  0.00    -0.271 OA
HETATM   37  C   UNL     1       4.871  25.812  49.849  1.00  0.00     0.238 C 
ENDBRANCH   1  20
TORSDOF 4
ENDMDL
MODEL 5
REMARK VINA RESULT:     -10.3      6.533     10.746
REMARK  4 active torsions:
REMARK  status: ('A' for Active; 'I' for Inactive)
REMARK    1  A    between atoms: N_5  and  C_6 
REMARK    2  A    between atoms: C_6  and  C_7 
REMARK    3  A    between atoms: C_7  and  C_8 
REMARK    4  A    between atoms: C_8  and  N_9 
ROOT
HETATM    1  C   UNL     1       6.188  31.235  58.086  1.00  0.00     0.236 C 
ENDROOT
BRANCH   1   2
HETATM    2  C   UNL     1       4.769  31.694  58.429  1.00  0.00     0.048 C 
BRANCH   2   3
HETATM    3  C   UNL     1       4.501  31.997  59.907  1.00  0.00     0.131 C 
BRANCH   3   4
HETATM    4  N   UNL     1       5.157  33.256  60.332  1.00  0.00    -0.346 N 
HETATM    5  C   UNL     1       4.526  34.466  59.940  1.00  0.00     0.041 A 
HETATM    6  C   UNL     1       4.377  35.602  60.764  1.00  0.00    -0.031 A 
HETATM    7  C   UNL     1       4.085  34.591  58.598  1.00  0.00     0.030 A 
HETATM    8  C   UNL     1       3.787  36.777  60.235  1.00  0.00     0.009 A 
HETATM    9  C   UNL     1       4.833  35.717  62.201  1.00  0.00     0.045 C 
HETATM   10  C   UNL     1       3.339  36.850  58.921  1.00  0.00     0.001 A 
HETATM   11  C   UNL     1       3.493  35.752  58.096  1.00  0.00     0.002 A 
HETATM   12  C   UNL     1       4.811  34.432  63.013  1.00  0.00     0.045 C 
HETATM   13  C   UNL     1       5.981  33.560  62.650  1.00  0.00    -0.031 A 
HETATM   14  C   UNL     1       6.127  33.063  61.347  1.00  0.00     0.042 A 
HETATM   15  C   UNL     1       6.948  33.266  63.631  1.00  0.00     0.011 A 
HETATM   16  C   UNL     1       7.278  32.307  61.051  1.00  0.00     0.054 A 
HETATM   17  C   UNL     1       8.225  32.016  62.033  1.00  0.00     0.036 A 
HETATM   18 CL   UNL     1       9.562  31.004  61.646  1.00  0.00    -0.084 Cl
HETATM   19  C   UNL     1       8.063  32.488  63.326  1.00  0.00     0.024 A 
ENDBRANCH   3   4
ENDBRANCH   2   3
ENDBRANCH   1   2
BRANCH   1  20
HETATM   20  N   UNL     1       6.347  29.800  57.535  1.00  0.00    -0.071 N 
HETATM   21  H   UNL     1       6.732  29.305  58.364  1.00  0.00     0.279 HD
HETATM   22  C   UNL     1       7.413  29.624  56.474  1.00  0.00     0.238 C 
HETATM   23  C   UNL     1       7.050  28.516  55.483  1.00  0.00     0.077 C 
HETATM   24  C   UNL     1       6.450  27.304  56.182  1.00  0.00     0.212 C 
HETATM   25  N   UNL     1       6.188  26.144  55.222  1.00  0.00    -0.032 N 
HETATM   26  C   UNL     1       7.513  26.682  57.104  1.00  0.00     0.256 C 
HETATM   27  C   UNL     1       5.191  27.636  56.986  1.00  0.00     0.077 C 
HETATM   28  H   UNL     1       5.553  25.497  55.714  1.00  0.00     0.283 HD
HETATM   29  C   UNL     1       7.478  25.381  55.176  1.00  0.00     0.290 C 
HETATM   30  C   UNL     1       5.608  26.361  53.859  1.00  0.00     0.239 C 
HETATM   31  C   UNL     1       7.203  23.986  54.647  1.00  0.00     0.055 C 
HETATM   32  N   UNL     1       7.911  25.492  56.524  1.00  0.00    -0.331 N 
HETATM   33  C   UNL     1       6.550  24.074  53.261  1.00  0.00     0.005 C 
HETATM   34  C   UNL     1       5.321  24.992  53.249  1.00  0.00     0.028 C 
HETATM   35  H   UNL     1       8.727  25.006  56.890  1.00  0.00     0.164 HD
HETATM   36  O   UNL     1       7.918  27.181  58.137  1.00  0.00    -0.271 OA
HETATM   37  C   UNL     1       5.025  29.129  57.270  1.00  0.00     0.238 C 
ENDBRANCH   1  20
TORSDOF 4
ENDMDL
MODEL 6
REMARK VINA RESULT:     -10.2      2.749      9.358
REMARK  4 active torsions:
REMARK  status: ('A' for Active; 'I' for Inactive)
REMARK    1  A    between atoms: N_5  and  C_6 
REMARK    2  A    between atoms: C_6  and  C_7 
REMARK    3  A    between atoms: C_7  and  C_8 
REMARK    4  A    between atoms: C_8  and  N_9 
ROOT
HETATM    1  C   UNL     1       4.691  29.099  52.686  1.00  0.00     0.236 C 
ENDROOT
BRANCH   1   2
HETATM    2  C   UNL     1       3.986  29.074  51.328  1.00  0.00     0.048 C 
BRANCH   2   3
HETATM    3  C   UNL     1       4.871  29.346  50.107  1.00  0.00     0.131 C 
BRANCH   3   4
HETATM    4  N   UNL     1       4.067  29.474  48.869  1.00  0.00    -0.346 N 
HETATM    5  C   UNL     1       3.500  28.279  48.353  1.00  0.00     0.041 A 
HETATM    6  C   UNL     1       2.194  28.166  47.831  1.00  0.00    -0.031 A 
HETATM    7  C   UNL     1       4.322  27.127  48.266  1.00  0.00     0.030 A 
HETATM    8  C   UNL     1       1.765  26.932  47.281  1.00  0.00     0.009 A 
HETATM    9  C   UNL     1       1.172  29.278  47.758  1.00  0.00     0.045 C 
HETATM   10  C   UNL     1       2.591  25.815  47.243  1.00  0.00     0.001 A 
HETATM   11  C   UNL     1       3.879  25.914  47.734  1.00  0.00     0.002 A 
HETATM   12  C   UNL     1       1.244  30.323  48.860  1.00  0.00     0.045 C 
HETATM   13  C   UNL     1       2.381  31.273  48.609  1.00  0.00    -0.031 A 
HETATM   14  C   UNL     1       3.706  30.812  48.576  1.00  0.00     0.042 A 
HETATM   15  C   UNL     1       2.101  32.635  48.381  1.00  0.00     0.011 A 
HETATM   16  C   UNL     1       4.722  31.739  48.270  1.00  0.00     0.054 A 
HETATM   17  C   UNL     1       4.433  33.086  48.055  1.00  0.00     0.036 A 
HETATM   18 CL   UNL     1       5.721  34.195  47.786  1.00  0.00    -0.084 Cl
HETATM   19  C   UNL     1       3.125  33.542  48.114  1.00  0.00     0.024 A 
ENDBRANCH   3   4
ENDBRANCH   2   3
ENDBRANCH   1   2
BRANCH   1  20
HETATM   20  N   UNL     1       5.136  27.739  53.269  1.00  0.00    -0.071 N 
HETATM   21  H   UNL     1       4.545  27.681  54.124  1.00  0.00     0.279 HD
HETATM   22  C   UNL     1       6.554  27.691  53.798  1.00  0.00     0.238 C 
HETATM   23  C   UNL     1       7.169  26.298  53.645  1.00  0.00     0.077 C 
HETATM   24  C   UNL     1       6.177  25.198  53.997  1.00  0.00     0.212 C 
HETATM   25  N   UNL     1       6.808  23.806  53.960  1.00  0.00    -0.032 N 
HETATM   26  C   UNL     1       5.811  25.311  55.486  1.00  0.00     0.256 C 
HETATM   27  C   UNL     1       4.907  25.238  53.142  1.00  0.00     0.077 C 
HETATM   28  H   UNL     1       6.027  23.133  53.941  1.00  0.00     0.283 HD
HETATM   29  C   UNL     1       7.389  23.609  55.328  1.00  0.00     0.290 C 
HETATM   30  C   UNL     1       7.755  23.396  52.876  1.00  0.00     0.239 C 
HETATM   31  C   UNL     1       7.616  22.126  55.555  1.00  0.00     0.055 C 
HETATM   32  N   UNL     1       6.413  24.249  56.136  1.00  0.00    -0.331 N 
HETATM   33  C   UNL     1       8.539  21.568  54.464  1.00  0.00     0.005 C 
HETATM   34  C   UNL     1       8.049  21.908  53.050  1.00  0.00     0.028 C 
HETATM   35  H   UNL     1       6.433  24.233  57.154  1.00  0.00     0.164 HD
HETATM   36  O   UNL     1       5.131  26.194  55.972  1.00  0.00    -0.271 OA
HETATM   37  C   UNL     1       4.699  26.572  52.424  1.00  0.00     0.238 C 
ENDBRANCH   1  20
TORSDOF 4
ENDMDL
MODEL 7
REMARK VINA RESULT:     -10.1      2.671      9.379
REMARK  4 active torsions:
REMARK  status: ('A' for Active; 'I' for Inactive)
REMARK    1  A    between atoms: N_5  and  C_6 
REMARK    2  A    between atoms: C_6  and  C_7 
REMARK    3  A    between atoms: C_7  and  C_8 
REMARK    4  A    between atoms: C_8  and  N_9 
ROOT
HETATM    1  C   UNL     1       4.840  28.204  51.628  1.00  0.00     0.236 C 
ENDROOT
BRANCH   1   2
HETATM    2  C   UNL     1       5.559  29.349  50.910  1.00  0.00     0.048 C 
BRANCH   2   3
HETATM    3  C   UNL     1       5.696  29.207  49.390  1.00  0.00     0.131 C 
BRANCH   3   4
HETATM    4  N   UNL     1       4.448  29.599  48.693  1.00  0.00    -0.346 N 
HETATM    5  C   UNL     1       3.535  28.556  48.388  1.00  0.00     0.041 A 
HETATM    6  C   UNL     1       2.134  28.643  48.531  1.00  0.00    -0.031 A 
HETATM    7  C   UNL     1       4.044  27.363  47.813  1.00  0.00     0.030 A 
HETATM    8  C   UNL     1       1.321  27.553  48.128  1.00  0.00     0.009 A 
HETATM    9  C   UNL     1       1.371  29.838  49.056  1.00  0.00     0.045 C 
HETATM   10  C   UNL     1       1.861  26.388  47.597  1.00  0.00     0.001 A 
HETATM   11  C   UNL     1       3.229  26.294  47.434  1.00  0.00     0.002 A 
HETATM   12  C   UNL     1       2.092  30.686  50.092  1.00  0.00     0.045 C 
HETATM   13  C   UNL     1       3.122  31.559  49.433  1.00  0.00    -0.031 A 
HETATM   14  C   UNL     1       4.201  30.994  48.738  1.00  0.00     0.042 A 
HETATM   15  C   UNL     1       2.979  32.959  49.499  1.00  0.00     0.011 A 
HETATM   16  C   UNL     1       5.096  31.863  48.085  1.00  0.00     0.054 A 
HETATM   17  C   UNL     1       4.950  33.248  48.164  1.00  0.00     0.036 A 
HETATM   18 CL   UNL     1       6.128  34.267  47.434  1.00  0.00    -0.084 Cl
HETATM   19  C   UNL     1       3.896  33.802  48.874  1.00  0.00     0.024 A 
ENDBRANCH   3   4
ENDBRANCH   2   3
ENDBRANCH   1   2
BRANCH   1  20
HETATM   20  N   UNL     1       5.725  27.107  52.259  1.00  0.00    -0.071 N 
HETATM   21  H   UNL     1       6.372  26.891  51.473  1.00  0.00     0.279 HD
HETATM   22  C   UNL     1       5.031  25.789  52.535  1.00  0.00     0.238 C 
HETATM   23  C   UNL     1       5.629  25.076  53.749  1.00  0.00     0.077 C 
HETATM   24  C   UNL     1       7.149  25.166  53.768  1.00  0.00     0.212 C 
HETATM   25  N   UNL     1       7.769  24.362  54.911  1.00  0.00    -0.032 N 
HETATM   26  C   UNL     1       7.709  24.415  52.549  1.00  0.00     0.256 C 
HETATM   27  C   UNL     1       7.666  26.607  53.777  1.00  0.00     0.077 C 
HETATM   28  H   UNL     1       8.741  24.694  55.005  1.00  0.00     0.283 HD
HETATM   29  C   UNL     1       7.937  22.977  54.364  1.00  0.00     0.290 C 
HETATM   30  C   UNL     1       7.180  24.362  56.287  1.00  0.00     0.239 C 
HETATM   31  C   UNL     1       8.948  22.232  55.215  1.00  0.00     0.055 C 
HETATM   32  N   UNL     1       8.297  23.255  53.019  1.00  0.00    -0.331 N 
HETATM   33  C   UNL     1       8.480  22.209  56.677  1.00  0.00     0.005 C 
HETATM   34  C   UNL     1       8.138  23.608  57.206  1.00  0.00     0.028 C 
HETATM   35  H   UNL     1       8.582  22.535  52.357  1.00  0.00     0.164 HD
HETATM   36  O   UNL     1       7.618  24.791  51.395  1.00  0.00    -0.271 OA
HETATM   37  C   UNL     1       6.615  27.633  53.353  1.00  0.00     0.238 C 
ENDBRANCH   1  20
TORSDOF 4
ENDMDL
MODEL 8
REMARK VINA RESULT:      -9.9      5.834      9.625
REMARK  4 active torsions:
REMARK  status: ('A' for Active; 'I' for Inactive)
REMARK    1  A    between atoms: N_5  and  C_6 
REMARK    2  A    between atoms: C_6  and  C_7 
REMARK    3  A    between atoms: C_7  and  C_8 
REMARK    4  A    between atoms: C_8  and  N_9 
ROOT
HETATM    1  C   UNL     1       3.393  30.455  56.005  1.00  0.00     0.236 C 
ENDROOT
BRANCH   1   2
HETATM    2  C   UNL     1       4.106  29.152  55.636  1.00  0.00     0.048 C 
BRANCH   2   3
HETATM    3  C   UNL     1       4.972  29.195  54.372  1.00  0.00     0.131 C 
BRANCH   3   4
HETATM    4  N   UNL     1       5.995  28.122  54.376  1.00  0.00    -0.346 N 
HETATM    5  C   UNL     1       6.957  28.165  55.419  1.00  0.00     0.041 A 
HETATM    6  C   UNL     1       7.420  27.040  56.135  1.00  0.00    -0.031 A 
HETATM    7  C   UNL     1       7.574  29.407  55.716  1.00  0.00     0.030 A 
HETATM    8  C   UNL     1       8.436  27.203  57.111  1.00  0.00     0.009 A 
HETATM    9  C   UNL     1       6.956  25.615  55.939  1.00  0.00     0.045 C 
HETATM   10  C   UNL     1       8.994  28.443  57.395  1.00  0.00     0.001 A 
HETATM   11  C   UNL     1       8.563  29.551  56.690  1.00  0.00     0.002 A 
HETATM   12  C   UNL     1       5.513  25.439  55.496  1.00  0.00     0.045 C 
HETATM   13  C   UNL     1       5.370  25.748  54.032  1.00  0.00    -0.031 A 
HETATM   14  C   UNL     1       5.657  27.030  53.540  1.00  0.00     0.042 A 
HETATM   15  C   UNL     1       4.967  24.726  53.150  1.00  0.00     0.011 A 
HETATM   16  C   UNL     1       5.569  27.240  52.150  1.00  0.00     0.054 A 
HETATM   17  C   UNL     1       5.161  26.223  51.287  1.00  0.00     0.036 A 
HETATM   18 CL   UNL     1       4.972  26.560  49.611  1.00  0.00    -0.084 Cl
HETATM   19  C   UNL     1       4.854  24.965  51.782  1.00  0.00     0.024 A 
ENDBRANCH   3   4
ENDBRANCH   2   3
ENDBRANCH   1   2
BRANCH   1  20
HETATM   20  N   UNL     1       4.002  31.285  57.156  1.00  0.00    -0.071 N 
HETATM   21  H   UNL     1       5.009  31.036  57.076  1.00  0.00     0.279 HD
HETATM   22  C   UNL     1       3.622  30.838  58.553  1.00  0.00     0.238 C 
HETATM   23  C   UNL     1       3.580  32.012  59.533  1.00  0.00     0.077 C 
HETATM   24  C   UNL     1       4.744  32.971  59.319  1.00  0.00     0.212 C 
HETATM   25  N   UNL     1       4.782  34.088  60.362  1.00  0.00    -0.032 N 
HETATM   26  C   UNL     1       6.059  32.239  59.631  1.00  0.00     0.256 C 
HETATM   27  C   UNL     1       4.792  33.552  57.904  1.00  0.00     0.077 C 
HETATM   28  H   UNL     1       5.412  34.813  59.989  1.00  0.00     0.283 HD
HETATM   29  C   UNL     1       5.564  33.520  61.508  1.00  0.00     0.290 C 
HETATM   30  C   UNL     1       3.540  34.790  60.815  1.00  0.00     0.239 C 
HETATM   31  C   UNL     1       6.060  34.661  62.377  1.00  0.00     0.055 C 
HETATM   32  N   UNL     1       6.540  32.752  60.822  1.00  0.00    -0.331 N 
HETATM   33  C   UNL     1       4.870  35.498  62.865  1.00  0.00     0.005 C 
HETATM   34  C   UNL     1       3.958  35.948  61.716  1.00  0.00     0.028 C 
HETATM   35  H   UNL     1       7.316  32.286  61.289  1.00  0.00     0.164 HD
HETATM   36  O   UNL     1       6.549  31.361  58.946  1.00  0.00    -0.271 OA
HETATM   37  C   UNL     1       3.954  32.767  56.895  1.00  0.00     0.238 C 
ENDBRANCH   1  20
TORSDOF 4
ENDMDL
MODEL 9
REMARK VINA RESULT:      -9.8      5.584      9.992
REMARK  4 active torsions:
REMARK  status: ('A' for Active; 'I' for Inactive)
REMARK    1  A    between atoms: N_5  and  C_6 
REMARK    2  A    between atoms: C_6  and  C_7 
REMARK    3  A    between atoms: C_7  and  C_8 
REMARK    4  A    between atoms: C_8  and  N_9 
ROOT
HETATM    1  C   UNL     1       4.995  29.565  57.717  1.00  0.00     0.236 C 
ENDROOT
BRANCH   1   2
HETATM    2  C   UNL     1       4.960  31.031  57.278  1.00  0.00     0.048 C 
BRANCH   2   3
HETATM    3  C   UNL     1       6.034  31.939  57.886  1.00  0.00     0.131 C 
BRANCH   3   4
HETATM    4  N   UNL     1       5.438  32.973  58.765  1.00  0.00    -0.346 N 
HETATM    5  C   UNL     1       4.554  33.898  58.150  1.00  0.00     0.041 A 
HETATM    6  C   UNL     1       3.340  34.348  58.711  1.00  0.00    -0.031 A 
HETATM    7  C   UNL     1       4.947  34.489  56.923  1.00  0.00     0.030 A 
HETATM    8  C   UNL     1       2.575  35.328  58.029  1.00  0.00     0.009 A 
HETATM    9  C   UNL     1       2.761  33.908  60.037  1.00  0.00     0.045 C 
HETATM   10  C   UNL     1       2.979  35.861  56.811  1.00  0.00     0.001 A 
HETATM   11  C   UNL     1       4.174  35.443  56.257  1.00  0.00     0.002 A 
HETATM   12  C   UNL     1       3.077  32.482  60.461  1.00  0.00     0.045 C 
HETATM   13  C   UNL     1       4.485  32.387  60.978  1.00  0.00    -0.031 A 
HETATM   14  C   UNL     1       5.575  32.677  60.144  1.00  0.00     0.042 A 
HETATM   15  C   UNL     1       4.700  32.027  62.323  1.00  0.00     0.011 A 
HETATM   16  C   UNL     1       6.867  32.635  60.705  1.00  0.00     0.054 A 
HETATM   17  C   UNL     1       7.069  32.269  62.035  1.00  0.00     0.036 A 
HETATM   18 CL   UNL     1       8.672  32.134  62.643  1.00  0.00    -0.084 Cl
HETATM   19  C   UNL     1       5.989  31.958  62.848  1.00  0.00     0.024 A 
ENDBRANCH   3   4
ENDBRANCH   2   3
ENDBRANCH   1   2
BRANCH   1  20
HETATM   20  N   UNL     1       5.673  28.563  56.756  1.00  0.00    -0.071 N 
HETATM   21  H   UNL     1       6.001  29.196  55.999  1.00  0.00     0.279 HD
HETATM   22  C   UNL     1       4.738  27.602  56.052  1.00  0.00     0.238 C 
HETATM   23  C   UNL     1       5.413  26.259  55.766  1.00  0.00     0.077 C 
HETATM   24  C   UNL     1       6.846  26.436  55.281  1.00  0.00     0.212 C 
HETATM   25  N   UNL     1       7.497  25.112  54.882  1.00  0.00    -0.032 N 
HETATM   26  C   UNL     1       6.829  27.169  53.930  1.00  0.00     0.256 C 
HETATM   27  C   UNL     1       7.728  27.195  56.276  1.00  0.00     0.077 C 
HETATM   28  H   UNL     1       8.511  25.291  54.833  1.00  0.00     0.283 HD
HETATM   29  C   UNL     1       7.120  24.912  53.446  1.00  0.00     0.290 C 
HETATM   30  C   UNL     1       7.320  23.867  55.695  1.00  0.00     0.239 C 
HETATM   31  C   UNL     1       8.070  23.907  52.824  1.00  0.00     0.055 C 
HETATM   32  N   UNL     1       7.172  26.245  52.960  1.00  0.00    -0.331 N 
HETATM   33  C   UNL     1       8.021  22.589  53.609  1.00  0.00     0.005 C 
HETATM   34  C   UNL     1       8.237  22.794  55.114  1.00  0.00     0.028 C 
HETATM   35  H   UNL     1       7.058  26.486  51.977  1.00  0.00     0.164 HD
HETATM   36  O   UNL     1       6.544  28.341  53.775  1.00  0.00    -0.271 OA
HETATM   37  C   UNL     1       6.932  27.968  57.328  1.00  0.00     0.238 C 
ENDBRANCH   1  20
TORSDOF 4
ENDMDL
MODEL 10
REMARK VINA RESULT:      -9.6      5.691      9.065
REMARK  4 active torsions:
REMARK  status: ('A' for Active; 'I' for Inactive)
REMARK    1  A    between atoms: N_5  and  C_6 
REMARK    2  A    between atoms: C_6  and  C_7 
REMARK    3  A    between atoms: C_7  and  C_8 
REMARK    4  A    between atoms: C_8  and  N_9 
ROOT
HETATM    1  C   UNL     1       6.314  29.541  57.219  1.00  0.00     0.236 C 
ENDROOT
BRANCH   1   2
HETATM    2  C   UNL     1       5.996  29.178  55.766  1.00  0.00     0.048 C 
BRANCH   2   3
HETATM    3  C   UNL     1       5.386  27.791  55.540  1.00  0.00     0.131 C 
BRANCH   3   4
HETATM    4  N   UNL     1       6.242  26.956  54.664  1.00  0.00    -0.346 N 
HETATM    5  C   UNL     1       7.024  25.958  55.304  1.00  0.00     0.041 A 
HETATM    6  C   UNL     1       7.213  24.647  54.817  1.00  0.00    -0.031 A 
HETATM    7  C   UNL     1       7.746  26.314  56.471  1.00  0.00     0.030 A 
HETATM    8  C   UNL     1       8.074  23.761  55.512  1.00  0.00     0.009 A 
HETATM    9  C   UNL     1       6.600  24.074  53.559  1.00  0.00     0.045 C 
HETATM   10  C   UNL     1       8.740  24.138  56.672  1.00  0.00     0.001 A 
HETATM   11  C   UNL     1       8.579  25.424  57.152  1.00  0.00     0.002 A 
HETATM   12  C   UNL     1       5.235  24.620  53.174  1.00  0.00     0.045 C 
HETATM   13  C   UNL     1       5.369  25.985  52.557  1.00  0.00    -0.031 A 
HETATM   14  C   UNL     1       5.899  27.054  53.293  1.00  0.00     0.042 A 
HETATM   15  C   UNL     1       4.978  26.173  51.217  1.00  0.00     0.011 A 
HETATM   16  C   UNL     1       6.061  28.291  52.639  1.00  0.00     0.054 A 
HETATM   17  C   UNL     1       5.663  28.469  51.314  1.00  0.00     0.036 A 
HETATM   18 CL   UNL     1       5.789  30.026  50.594  1.00  0.00    -0.084 Cl
HETATM   19  C   UNL     1       5.116  27.415  50.599  1.00  0.00     0.024 A 
ENDBRANCH   3   4
ENDBRANCH   2   3
ENDBRANCH   1   2
BRANCH   1  20
HETATM   20  N   UNL     1       5.630  30.803  57.790  1.00  0.00    -0.071 N 
HETATM   21  H   UNL     1       5.541  31.390  56.937  1.00  0.00     0.279 HD
HETATM   22  C   UNL     1       6.481  31.638  58.724  1.00  0.00     0.238 C 
HETATM   23  C   UNL     1       5.634  32.346  59.784  1.00  0.00     0.077 C 
HETATM   24  C   UNL     1       4.349  32.913  59.197  1.00  0.00     0.212 C 
HETATM   25  N   UNL     1       3.546  33.722  60.215  1.00  0.00    -0.032 N 
HETATM   26  C   UNL     1       4.705  34.007  58.176  1.00  0.00     0.256 C 
HETATM   27  C   UNL     1       3.469  31.849  58.536  1.00  0.00     0.077 C 
HETATM   28  H   UNL     1       2.599  33.827  59.821  1.00  0.00     0.283 HD
HETATM   29  C   UNL     1       4.103  35.110  60.133  1.00  0.00     0.290 C 
HETATM   30  C   UNL     1       3.373  33.262  61.630  1.00  0.00     0.239 C 
HETATM   31  C   UNL     1       3.100  36.078  60.733  1.00  0.00     0.055 C 
HETATM   32  N   UNL     1       4.362  35.221  58.742  1.00  0.00    -0.331 N 
HETATM   33  C   UNL     1       2.794  35.678  62.183  1.00  0.00     0.005 C 
HETATM   34  C   UNL     1       2.385  34.204  62.311  1.00  0.00     0.028 C 
HETATM   35  H   UNL     1       4.669  36.084  58.297  1.00  0.00     0.164 HD
HETATM   36  O   UNL     1       5.212  33.807  57.088  1.00  0.00    -0.271 OA
HETATM   37  C   UNL     1       4.212  30.549  58.229  1.00  0.00     0.238 C 
ENDBRANCH   1  20
TORSDOF 4
ENDMDL
