MODEL 1
REMARK VINA RESULT:     -10.5      0.000      0.000
REMARK  6 active torsions:
REMARK  status: ('A' for Active; 'I' for Inactive)
REMARK    1  A    between atoms: C_8  and  C_9 
REMARK    2  A    between atoms: C_9  and  C_10 
REMARK       I    between atoms: C_10  and  N_11 
REMARK    3  A    between atoms: N_11  and  C_12 
REMARK    4  A    between atoms: C_12  and  C_13 
REMARK    5  A    between atoms: C_16  and  N_17 
REMARK       I    between atoms: N_17  and  C_18 
REMARK    6  A    between atoms: C_18  and  C_19 
ROOT
HETATM    1  C   UNL     1       7.760  28.241  54.830  1.00  0.00     0.161 C 
ENDROOT
BRANCH   1   2
HETATM    2  N   UNL     1       7.022  27.006  54.912  1.00  0.00    -0.357 N 
HETATM    3  C   UNL     1       7.195  26.021  53.964  1.00  0.00     0.222 C 
HETATM    4  O   UNL     1       7.931  26.161  52.990  1.00  0.00    -0.273 OA
HETATM    5  H   UNL     1       6.363  26.871  55.669  1.00  0.00     0.162 HD
BRANCH   3   6
HETATM    6  C   UNL     1       6.439  24.740  54.236  1.00  0.00     0.143 C 
BRANCH   6   7
HETATM    7  C   UNL     1       7.195  23.646  54.931  1.00  0.00    -0.022 A 
HETATM    8  C   UNL     1       7.720  22.400  54.441  1.00  0.00    -0.001 A 
HETATM    9  C   UNL     1       7.757  21.747  53.188  1.00  0.00     0.014 A 
HETATM   10  C   UNL     1       8.318  21.745  55.524  1.00  0.00     0.042 A 
HETATM   11  C   UNL     1       8.355  20.486  53.069  1.00  0.00     0.001 A 
HETATM   12  C   UNL     1       8.928  19.865  54.172  1.00  0.00     0.002 A 
HETATM   13  C   UNL     1       8.925  20.486  55.421  1.00  0.00     0.030 A 
HETATM   14  N   UNL     1       8.190  22.563  56.618  1.00  0.00    -0.365 N 
HETATM   15  H   UNL     1       8.547  22.348  57.538  1.00  0.00     0.165 HD
HETATM   16  C   UNL     1       7.516  23.701  56.278  1.00  0.00     0.097 A 
ENDBRANCH   6   7
ENDBRANCH   3   6
ENDBRANCH   1   2
BRANCH   1  17
HETATM   17  C   UNL     1       7.702  29.017  56.117  1.00  0.00    -0.040 A 
HETATM   18  C   UNL     1       6.595  29.817  56.421  1.00  0.00     0.011 A 
HETATM   19  C   UNL     1       6.522  30.505  57.640  1.00  0.00     0.030 A 
HETATM   20  C   UNL     1       7.556  30.405  58.571  1.00  0.00     0.035 A 
HETATM   21  C   UNL     1       8.681  29.636  58.250  1.00  0.00     0.030 A 
HETATM   22  C   UNL     1       8.757  28.953  57.033  1.00  0.00     0.011 A 
BRANCH  20  23
HETATM   23  N   UNL     1       7.534  31.008  59.842  1.00  0.00    -0.321 N 
HETATM   24  C   UNL     1       8.229  32.121  60.280  1.00  0.00     0.279 C 
HETATM   25  O   UNL     1       9.068  32.740  59.632  1.00  0.00    -0.265 OA
HETATM   26  H   UNL     1       6.899  30.614  60.528  1.00  0.00     0.169 HD
BRANCH  24  27
HETATM   27  C   UNL     1       7.854  32.515  61.627  1.00  0.00     0.142 A 
HETATM   28  O   UNL     1       6.860  33.446  61.806  1.00  0.00    -0.317 OA
HETATM   29  C   UNL     1       6.731  33.640  63.144  1.00  0.00     0.143 A 
HETATM   30  C   UNL     1       7.618  32.851  63.835  1.00  0.00     0.027 A 
HETATM   31  C   UNL     1       8.342  32.124  62.860  1.00  0.00     0.045 A 
ENDBRANCH  24  27
ENDBRANCH  20  23
ENDBRANCH   1  17
TORSDOF 6
ENDMDL
MODEL 2
REMARK VINA RESULT:     -10.1      1.683      2.587
REMARK  6 active torsions:
REMARK  status: ('A' for Active; 'I' for Inactive)
REMARK    1  A    between atoms: C_8  and  C_9 
REMARK    2  A    between atoms: C_9  and  C_10 
REMARK       I    between atoms: C_10  and  N_11 
REMARK    3  A    between atoms: N_11  and  C_12 
REMARK    4  A    between atoms: C_12  and  C_13 
REMARK    5  A    between atoms: C_16  and  N_17 
REMARK       I    between atoms: N_17  and  C_18 
REMARK    6  A    between atoms: C_18  and  C_19 
ROOT
HETATM    1  C   UNL     1       6.253  26.952  53.880  1.00  0.00     0.161 C 
ENDROOT
BRANCH   1   2
HETATM    2  N   UNL     1       7.180  25.894  53.569  1.00  0.00    -0.357 N 
HETATM    3  C   UNL     1       6.782  24.812  52.814  1.00  0.00     0.222 C 
HETATM    4  O   UNL     1       5.626  24.668  52.420  1.00  0.00    -0.273 OA
HETATM    5  H   UNL     1       8.128  25.945  53.920  1.00  0.00     0.162 HD
BRANCH   3   6
HETATM    6  C   UNL     1       7.884  23.835  52.475  1.00  0.00     0.143 C 
BRANCH   6   7
HETATM    7  C   UNL     1       7.955  22.584  53.301  1.00  0.00    -0.022 A 
HETATM    8  C   UNL     1       8.096  22.395  54.720  1.00  0.00    -0.001 A 
HETATM    9  C   UNL     1       8.200  23.246  55.843  1.00  0.00     0.014 A 
HETATM   10  C   UNL     1       8.130  21.016  54.954  1.00  0.00     0.042 A 
HETATM   11  C   UNL     1       8.353  22.705  57.126  1.00  0.00     0.001 A 
HETATM   12  C   UNL     1       8.393  21.329  57.314  1.00  0.00     0.002 A 
HETATM   13  C   UNL     1       8.277  20.457  56.231  1.00  0.00     0.030 A 
HETATM   14  N   UNL     1       7.988  20.391  53.741  1.00  0.00    -0.365 N 
HETATM   15  H   UNL     1       7.961  19.389  53.613  1.00  0.00     0.165 HD
HETATM   16  C   UNL     1       7.887  21.317  52.744  1.00  0.00     0.097 A 
ENDBRANCH   6   7
ENDBRANCH   3   6
ENDBRANCH   1   2
BRANCH   1  17
HETATM   17  C   UNL     1       6.543  27.578  55.217  1.00  0.00    -0.040 A 
HETATM   18  C   UNL     1       7.398  26.951  56.131  1.00  0.00     0.011 A 
HETATM   19  C   UNL     1       7.702  27.556  57.357  1.00  0.00     0.030 A 
HETATM   20  C   UNL     1       7.156  28.796  57.690  1.00  0.00     0.035 A 
HETATM   21  C   UNL     1       6.270  29.405  56.792  1.00  0.00     0.030 A 
HETATM   22  C   UNL     1       5.962  28.800  55.570  1.00  0.00     0.011 A 
BRANCH  20  23
HETATM   23  N   UNL     1       7.458  29.502  58.868  1.00  0.00    -0.321 N 
HETATM   24  C   UNL     1       8.570  30.276  59.148  1.00  0.00     0.279 C 
HETATM   25  O   UNL     1       9.546  30.414  58.416  1.00  0.00    -0.265 OA
HETATM   26  H   UNL     1       6.761  29.489  59.605  1.00  0.00     0.169 HD
BRANCH  24  27
HETATM   27  C   UNL     1       8.470  30.948  60.432  1.00  0.00     0.142 A 
HETATM   28  O   UNL     1       7.287  31.547  60.790  1.00  0.00    -0.317 OA
HETATM   29  C   UNL     1       7.478  32.109  62.011  1.00  0.00     0.143 A 
HETATM   30  C   UNL     1       8.759  31.883  62.453  1.00  0.00     0.027 A 
HETATM   31  C   UNL     1       9.399  31.132  61.438  1.00  0.00     0.045 A 
ENDBRANCH  24  27
ENDBRANCH  20  23
ENDBRANCH   1  17
TORSDOF 6
ENDMDL
MODEL 3
REMARK VINA RESULT:     -10.0      4.696      8.571
REMARK  6 active torsions:
REMARK  status: ('A' for Active; 'I' for Inactive)
REMARK    1  A    between atoms: C_8  and  C_9 
REMARK    2  A    between atoms: C_9  and  C_10 
REMARK       I    between atoms: C_10  and  N_11 
REMARK    3  A    between atoms: N_11  and  C_12 
REMARK    4  A    between atoms: C_12  and  C_13 
REMARK    5  A    between atoms: C_16  and  N_17 
REMARK       I    between atoms: N_17  and  C_18 
REMARK    6  A    between atoms: C_18  and  C_19 
ROOT
HETATM    1  C   UNL     1       7.024  27.561  56.227  1.00  0.00     0.161 C 
ENDROOT
BRANCH   1   2
HETATM    2  N   UNL     1       7.964  26.528  56.581  1.00  0.00    -0.357 N 
HETATM    3  C   UNL     1       7.529  25.348  57.145  1.00  0.00     0.222 C 
HETATM    4  O   UNL     1       6.349  25.139  57.419  1.00  0.00    -0.273 OA
HETATM    5  H   UNL     1       8.952  26.680  56.424  1.00  0.00     0.162 HD
BRANCH   3   6
HETATM    6  C   UNL     1       8.610  24.314  57.364  1.00  0.00     0.143 C 
BRANCH   6   7
HETATM    7  C   UNL     1       8.410  22.980  56.707  1.00  0.00    -0.022 A 
HETATM    8  C   UNL     1       8.240  22.623  55.323  1.00  0.00    -0.001 A 
HETATM    9  C   UNL     1       8.214  23.328  54.099  1.00  0.00     0.014 A 
HETATM   10  C   UNL     1       8.067  21.236  55.270  1.00  0.00     0.042 A 
HETATM   11  C   UNL     1       7.999  22.642  52.896  1.00  0.00     0.001 A 
HETATM   12  C   UNL     1       7.821  21.264  52.888  1.00  0.00     0.002 A 
HETATM   13  C   UNL     1       7.857  20.533  54.075  1.00  0.00     0.030 A 
HETATM   14  N   UNL     1       8.155  20.762  56.555  1.00  0.00    -0.365 N 
HETATM   15  H   UNL     1       8.083  19.788  56.812  1.00  0.00     0.165 HD
HETATM   16  C   UNL     1       8.355  21.796  57.424  1.00  0.00     0.097 A 
ENDBRANCH   6   7
ENDBRANCH   3   6
ENDBRANCH   1   2
BRANCH   1  17
HETATM   17  C   UNL     1       6.431  27.337  54.863  1.00  0.00    -0.040 A 
HETATM   18  C   UNL     1       7.219  26.861  53.809  1.00  0.00     0.011 A 
HETATM   19  C   UNL     1       6.655  26.612  52.551  1.00  0.00     0.030 A 
HETATM   20  C   UNL     1       5.296  26.836  52.327  1.00  0.00     0.035 A 
HETATM   21  C   UNL     1       4.517  27.349  53.370  1.00  0.00     0.030 A 
HETATM   22  C   UNL     1       5.079  27.603  54.625  1.00  0.00     0.011 A 
BRANCH  20  23
HETATM   23  N   UNL     1       4.638  26.552  51.117  1.00  0.00    -0.321 N 
HETATM   24  C   UNL     1       4.607  27.301  49.955  1.00  0.00     0.279 C 
HETATM   25  O   UNL     1       5.102  28.415  49.810  1.00  0.00    -0.265 OA
HETATM   26  H   UNL     1       4.152  25.662  51.055  1.00  0.00     0.169 HD
BRANCH  24  27
HETATM   27  C   UNL     1       3.918  26.619  48.872  1.00  0.00     0.142 A 
HETATM   28  O   UNL     1       3.390  27.354  47.839  1.00  0.00    -0.317 OA
HETATM   29  C   UNL     1       2.793  26.478  46.991  1.00  0.00     0.143 A 
HETATM   30  C   UNL     1       2.926  25.191  47.451  1.00  0.00     0.027 A 
HETATM   31  C   UNL     1       3.653  25.279  48.663  1.00  0.00     0.045 A 
ENDBRANCH  24  27
ENDBRANCH  20  23
ENDBRANCH   1  17
TORSDOF 6
ENDMDL
MODEL 4
REMARK VINA RESULT:     -10.0      2.205      3.347
REMARK  6 active torsions:
REMARK  status: ('A' for Active; 'I' for Inactive)
REMARK    1  A    between atoms: C_8  and  C_9 
REMARK    2  A    between atoms: C_9  and  C_10 
REMARK       I    between atoms: C_10  and  N_11 
REMARK    3  A    between atoms: N_11  and  C_12 
REMARK    4  A    between atoms: C_12  and  C_13 
REMARK    5  A    between atoms: C_16  and  N_17 
REMARK       I    between atoms: N_17  and  C_18 
REMARK    6  A    between atoms: C_18  and  C_19 
ROOT
HETATM    1  C   UNL     1       8.708  29.860  58.016  1.00  0.00     0.161 C 
ENDROOT
BRANCH   1   2
HETATM    2  N   UNL     1       7.849  28.742  57.717  1.00  0.00    -0.357 N 
HETATM    3  C   UNL     1       7.775  28.238  56.436  1.00  0.00     0.222 C 
HETATM    4  O   UNL     1       8.381  28.737  55.491  1.00  0.00    -0.273 OA
HETATM    5  H   UNL     1       7.289  28.334  58.455  1.00  0.00     0.162 HD
BRANCH   3   6
HETATM    6  C   UNL     1       6.919  26.999  56.291  1.00  0.00     0.143 C 
BRANCH   6   7
HETATM    7  C   UNL     1       7.640  25.684  56.242  1.00  0.00    -0.022 A 
HETATM    8  C   UNL     1       7.823  24.746  55.167  1.00  0.00    -0.001 A 
HETATM    9  C   UNL     1       7.444  24.687  53.807  1.00  0.00     0.014 A 
HETATM   10  C   UNL     1       8.559  23.669  55.676  1.00  0.00     0.042 A 
HETATM   11  C   UNL     1       7.786  23.574  53.028  1.00  0.00     0.001 A 
HETATM   12  C   UNL     1       8.508  22.520  53.575  1.00  0.00     0.002 A 
HETATM   13  C   UNL     1       8.913  22.550  54.909  1.00  0.00     0.030 A 
HETATM   14  N   UNL     1       8.837  23.948  56.990  1.00  0.00    -0.365 N 
HETATM   15  H   UNL     1       9.373  23.348  57.602  1.00  0.00     0.165 HD
HETATM   16  C   UNL     1       8.289  25.148  57.343  1.00  0.00     0.097 A 
ENDBRANCH   6   7
ENDBRANCH   3   6
ENDBRANCH   1   2
BRANCH   1  17
HETATM   17  C   UNL     1       8.222  30.638  59.208  1.00  0.00    -0.040 A 
HETATM   18  C   UNL     1       7.113  31.486  59.106  1.00  0.00     0.011 A 
HETATM   19  C   UNL     1       6.635  32.176  60.228  1.00  0.00     0.030 A 
HETATM   20  C   UNL     1       7.259  32.030  61.467  1.00  0.00     0.035 A 
HETATM   21  C   UNL     1       8.391  31.212  61.560  1.00  0.00     0.030 A 
HETATM   22  C   UNL     1       8.872  30.527  60.441  1.00  0.00     0.011 A 
BRANCH  20  23
HETATM   23  N   UNL     1       6.807  32.633  62.655  1.00  0.00    -0.321 N 
HETATM   24  C   UNL     1       5.741  32.266  63.457  1.00  0.00     0.279 C 
HETATM   25  O   UNL     1       4.940  31.369  63.213  1.00  0.00    -0.265 OA
HETATM   26  H   UNL     1       7.347  33.417  63.009  1.00  0.00     0.169 HD
BRANCH  24  27
HETATM   27  C   UNL     1       5.659  33.062  64.670  1.00  0.00     0.142 A 
HETATM   28  O   UNL     1       4.442  33.231  65.285  1.00  0.00    -0.317 OA
HETATM   29  C   UNL     1       4.650  34.024  66.367  1.00  0.00     0.143 A 
HETATM   30  C   UNL     1       5.976  34.369  66.468  1.00  0.00     0.027 A 
HETATM   31  C   UNL     1       6.629  33.748  65.376  1.00  0.00     0.045 A 
ENDBRANCH  24  27
ENDBRANCH  20  23
ENDBRANCH   1  17
TORSDOF 6
ENDMDL
MODEL 5
REMARK VINA RESULT:     -10.0      1.899      2.562
REMARK  6 active torsions:
REMARK  status: ('A' for Active; 'I' for Inactive)
REMARK    1  A    between atoms: C_8  and  C_9 
REMARK    2  A    between atoms: C_9  and  C_10 
REMARK       I    between atoms: C_10  and  N_11 
REMARK    3  A    between atoms: N_11  and  C_12 
REMARK    4  A    between atoms: C_12  and  C_13 
REMARK    5  A    between atoms: C_16  and  N_17 
REMARK       I    between atoms: N_17  and  C_18 
REMARK    6  A    between atoms: C_18  and  C_19 
ROOT
HETATM    1  C   UNL     1       4.273  27.631  53.822  1.00  0.00     0.161 C 
ENDROOT
BRANCH   1   2
HETATM    2  N   UNL     1       4.621  26.257  53.564  1.00  0.00    -0.357 N 
HETATM    3  C   UNL     1       5.824  25.937  52.973  1.00  0.00     0.222 C 
HETATM    4  O   UNL     1       6.624  26.790  52.594  1.00  0.00    -0.273 OA
HETATM    5  H   UNL     1       3.966  25.525  53.810  1.00  0.00     0.162 HD
BRANCH   3   6
HETATM    6  C   UNL     1       6.102  24.455  52.862  1.00  0.00     0.143 C 
BRANCH   6   7
HETATM    7  C   UNL     1       6.812  23.814  54.018  1.00  0.00    -0.022 A 
HETATM    8  C   UNL     1       7.513  22.562  54.121  1.00  0.00    -0.001 A 
HETATM    9  C   UNL     1       7.819  21.505  53.235  1.00  0.00     0.014 A 
HETATM   10  C   UNL     1       7.965  22.446  55.440  1.00  0.00     0.042 A 
HETATM   11  C   UNL     1       8.528  20.386  53.691  1.00  0.00     0.001 A 
HETATM   12  C   UNL     1       8.949  20.305  55.013  1.00  0.00     0.002 A 
HETATM   13  C   UNL     1       8.680  21.337  55.912  1.00  0.00     0.030 A 
HETATM   14  N   UNL     1       7.584  23.584  56.106  1.00  0.00    -0.365 N 
HETATM   15  H   UNL     1       7.792  23.777  57.075  1.00  0.00     0.165 HD
HETATM   16  C   UNL     1       6.889  24.408  55.268  1.00  0.00     0.097 A 
ENDBRANCH   6   7
ENDBRANCH   3   6
ENDBRANCH   1   2
BRANCH   1  17
HETATM   17  C   UNL     1       4.974  28.169  55.039  1.00  0.00    -0.040 A 
HETATM   18  C   UNL     1       5.165  27.366  56.170  1.00  0.00     0.011 A 
HETATM   19  C   UNL     1       5.857  27.854  57.286  1.00  0.00     0.030 A 
HETATM   20  C   UNL     1       6.367  29.153  57.290  1.00  0.00     0.035 A 
HETATM   21  C   UNL     1       6.143  29.969  56.174  1.00  0.00     0.030 A 
HETATM   22  C   UNL     1       5.448  29.485  55.062  1.00  0.00     0.011 A 
BRANCH  20  23
HETATM   23  N   UNL     1       7.128  29.699  58.339  1.00  0.00    -0.321 N 
HETATM   24  C   UNL     1       8.503  29.824  58.433  1.00  0.00     0.279 C 
HETATM   25  O   UNL     1       9.316  29.392  57.622  1.00  0.00    -0.265 OA
HETATM   26  H   UNL     1       6.617  30.098  59.120  1.00  0.00     0.169 HD
BRANCH  24  27
HETATM   27  C   UNL     1       8.914  30.552  59.622  1.00  0.00     0.142 A 
HETATM   28  O   UNL     1       8.672  30.013  60.861  1.00  0.00    -0.317 OA
HETATM   29  C   UNL     1       9.132  30.901  61.780  1.00  0.00     0.143 A 
HETATM   30  C   UNL     1       9.671  32.002  61.160  1.00  0.00     0.027 A 
HETATM   31  C   UNL     1       9.534  31.778  59.769  1.00  0.00     0.045 A 
ENDBRANCH  24  27
ENDBRANCH  20  23
ENDBRANCH   1  17
TORSDOF 6
ENDMDL
MODEL 6
REMARK VINA RESULT:      -9.6      1.410      1.591
REMARK  6 active torsions:
REMARK  status: ('A' for Active; 'I' for Inactive)
REMARK    1  A    between atoms: C_8  and  C_9 
REMARK    2  A    between atoms: C_9  and  C_10 
REMARK       I    between atoms: C_10  and  N_11 
REMARK    3  A    between atoms: N_11  and  C_12 
REMARK    4  A    between atoms: C_12  and  C_13 
REMARK    5  A    between atoms: C_16  and  N_17 
REMARK       I    between atoms: N_17  and  C_18 
REMARK    6  A    between atoms: C_18  and  C_19 
ROOT
HETATM    1  C   UNL     1       5.487  28.080  53.898  1.00  0.00     0.161 C 
ENDROOT
BRANCH   1   2
HETATM    2  N   UNL     1       6.329  26.942  53.634  1.00  0.00    -0.357 N 
HETATM    3  C   UNL     1       5.782  25.743  53.231  1.00  0.00     0.222 C 
HETATM    4  O   UNL     1       4.569  25.569  53.129  1.00  0.00    -0.273 OA
HETATM    5  H   UNL     1       7.331  27.025  53.759  1.00  0.00     0.162 HD
BRANCH   3   6
HETATM    6  C   UNL     1       6.790  24.670  52.886  1.00  0.00     0.143 C 
BRANCH   6   7
HETATM    7  C   UNL     1       7.181  23.733  53.991  1.00  0.00    -0.022 A 
HETATM    8  C   UNL     1       7.738  22.407  53.954  1.00  0.00    -0.001 A 
HETATM    9  C   UNL     1       8.137  21.511  52.936  1.00  0.00     0.014 A 
HETATM   10  C   UNL     1       7.887  21.981  55.278  1.00  0.00     0.042 A 
HETATM   11  C   UNL     1       8.637  20.246  53.268  1.00  0.00     0.001 A 
HETATM   12  C   UNL     1       8.759  19.857  54.596  1.00  0.00     0.002 A 
HETATM   13  C   UNL     1       8.390  20.720  55.628  1.00  0.00     0.030 A 
HETATM   14  N   UNL     1       7.467  23.006  56.088  1.00  0.00    -0.365 N 
HETATM   15  H   UNL     1       7.480  22.980  57.098  1.00  0.00     0.165 HD
HETATM   16  C   UNL     1       7.038  24.058  55.331  1.00  0.00     0.097 A 
ENDBRANCH   6   7
ENDBRANCH   3   6
ENDBRANCH   1   2
BRANCH   1  17
HETATM   17  C   UNL     1       5.853  28.764  55.187  1.00  0.00    -0.040 A 
HETATM   18  C   UNL     1       4.862  29.190  56.079  1.00  0.00     0.011 A 
HETATM   19  C   UNL     1       5.206  29.786  57.299  1.00  0.00     0.030 A 
HETATM   20  C   UNL     1       6.545  29.968  57.645  1.00  0.00     0.035 A 
HETATM   21  C   UNL     1       7.536  29.577  56.737  1.00  0.00     0.030 A 
HETATM   22  C   UNL     1       7.194  28.986  55.517  1.00  0.00     0.011 A 
BRANCH  20  23
HETATM   23  N   UNL     1       6.977  30.497  58.875  1.00  0.00    -0.321 N 
HETATM   24  C   UNL     1       6.862  31.793  59.344  1.00  0.00     0.279 C 
HETATM   25  O   UNL     1       6.419  32.745  58.710  1.00  0.00    -0.265 OA
HETATM   26  H   UNL     1       7.392  29.847  59.535  1.00  0.00     0.169 HD
BRANCH  24  27
HETATM   27  C   UNL     1       7.322  31.929  60.716  1.00  0.00     0.142 A 
HETATM   28  O   UNL     1       6.714  32.840  61.544  1.00  0.00    -0.317 OA
HETATM   29  C   UNL     1       7.347  32.774  62.744  1.00  0.00     0.143 A 
HETATM   30  C   UNL     1       8.351  31.837  62.710  1.00  0.00     0.027 A 
HETATM   31  C   UNL     1       8.335  31.289  61.405  1.00  0.00     0.045 A 
ENDBRANCH  24  27
ENDBRANCH  20  23
ENDBRANCH   1  17
TORSDOF 6
ENDMDL
MODEL 7
REMARK VINA RESULT:      -9.5      2.374     11.194
REMARK  6 active torsions:
REMARK  status: ('A' for Active; 'I' for Inactive)
REMARK    1  A    between atoms: C_8  and  C_9 
REMARK    2  A    between atoms: C_9  and  C_10 
REMARK       I    between atoms: C_10  and  N_11 
REMARK    3  A    between atoms: N_11  and  C_12 
REMARK    4  A    between atoms: C_12  and  C_13 
REMARK    5  A    between atoms: C_16  and  N_17 
REMARK       I    between atoms: N_17  and  C_18 
REMARK    6  A    between atoms: C_18  and  C_19 
ROOT
HETATM    1  C   UNL     1       7.163  30.600  58.279  1.00  0.00     0.161 C 
ENDROOT
BRANCH   1   2
HETATM    2  N   UNL     1       7.365  30.641  59.705  1.00  0.00    -0.357 N 
HETATM    3  C   UNL     1       7.921  31.751  60.302  1.00  0.00     0.222 C 
HETATM    4  O   UNL     1       8.316  32.723  59.660  1.00  0.00    -0.273 OA
HETATM    5  H   UNL     1       7.105  29.840  60.267  1.00  0.00     0.162 HD
BRANCH   3   6
HETATM    6  C   UNL     1       7.974  31.700  61.813  1.00  0.00     0.143 C 
BRANCH   6   7
HETATM    7  C   UNL     1       6.759  32.186  62.546  1.00  0.00    -0.022 A 
HETATM    8  C   UNL     1       6.624  32.858  63.811  1.00  0.00    -0.001 A 
HETATM    9  C   UNL     1       7.515  33.323  64.804  1.00  0.00     0.014 A 
HETATM   10  C   UNL     1       5.256  33.060  64.031  1.00  0.00     0.042 A 
HETATM   11  C   UNL     1       7.022  33.937  65.962  1.00  0.00     0.001 A 
HETATM   12  C   UNL     1       5.655  34.108  66.147  1.00  0.00     0.002 A 
HETATM   13  C   UNL     1       4.746  33.677  65.181  1.00  0.00     0.030 A 
HETATM   14  N   UNL     1       4.588  32.561  62.941  1.00  0.00    -0.365 N 
HETATM   15  H   UNL     1       3.585  32.588  62.823  1.00  0.00     0.165 HD
HETATM   16  C   UNL     1       5.475  32.031  62.048  1.00  0.00     0.097 A 
ENDBRANCH   6   7
ENDBRANCH   3   6
ENDBRANCH   1   2
BRANCH   1  17
HETATM   17  C   UNL     1       7.343  29.213  57.726  1.00  0.00    -0.040 A 
HETATM   18  C   UNL     1       8.622  28.704  57.470  1.00  0.00     0.011 A 
HETATM   19  C   UNL     1       8.791  27.397  56.997  1.00  0.00     0.030 A 
HETATM   20  C   UNL     1       7.684  26.578  56.771  1.00  0.00     0.035 A 
HETATM   21  C   UNL     1       6.403  27.099  56.990  1.00  0.00     0.030 A 
HETATM   22  C   UNL     1       6.233  28.405  57.458  1.00  0.00     0.011 A 
BRANCH  20  23
HETATM   23  N   UNL     1       7.767  25.235  56.360  1.00  0.00    -0.321 N 
HETATM   24  C   UNL     1       8.387  24.175  56.996  1.00  0.00     0.279 C 
HETATM   25  O   UNL     1       9.059  24.251  58.020  1.00  0.00    -0.265 OA
HETATM   26  H   UNL     1       7.275  24.983  55.508  1.00  0.00     0.169 HD
BRANCH  24  27
HETATM   27  C   UNL     1       8.154  22.910  56.321  1.00  0.00     0.142 A 
HETATM   28  O   UNL     1       8.380  21.734  56.995  1.00  0.00    -0.317 OA
HETATM   29  C   UNL     1       8.106  20.721  56.132  1.00  0.00     0.143 A 
HETATM   30  C   UNL     1       7.705  21.217  54.915  1.00  0.00     0.027 A 
HETATM   31  C   UNL     1       7.732  22.627  55.036  1.00  0.00     0.045 A 
ENDBRANCH  24  27
ENDBRANCH  20  23
ENDBRANCH   1  17
TORSDOF 6
ENDMDL
MODEL 8
REMARK VINA RESULT:      -9.4      2.175     11.232
REMARK  6 active torsions:
REMARK  status: ('A' for Active; 'I' for Inactive)
REMARK    1  A    between atoms: C_8  and  C_9 
REMARK    2  A    between atoms: C_9  and  C_10 
REMARK       I    between atoms: C_10  and  N_11 
REMARK    3  A    between atoms: N_11  and  C_12 
REMARK    4  A    between atoms: C_12  and  C_13 
REMARK    5  A    between atoms: C_16  and  N_17 
REMARK       I    between atoms: N_17  and  C_18 
REMARK    6  A    between atoms: C_18  and  C_19 
ROOT
HETATM    1  C   UNL     1       5.893  30.272  57.499  1.00  0.00     0.161 C 
ENDROOT
BRANCH   1   2
HETATM    2  N   UNL     1       6.506  30.572  58.767  1.00  0.00    -0.357 N 
HETATM    3  C   UNL     1       6.566  31.869  59.228  1.00  0.00     0.222 C 
HETATM    4  O   UNL     1       6.157  32.825  58.572  1.00  0.00    -0.273 OA
HETATM    5  H   UNL     1       6.906  29.821  59.316  1.00  0.00     0.162 HD
BRANCH   3   6
HETATM    6  C   UNL     1       7.139  32.023  60.619  1.00  0.00     0.143 C 
BRANCH   6   7
HETATM    7  C   UNL     1       6.173  32.388  61.708  1.00  0.00    -0.022 A 
HETATM    8  C   UNL     1       6.394  32.896  63.036  1.00  0.00    -0.001 A 
HETATM    9  C   UNL     1       7.527  33.255  63.801  1.00  0.00     0.014 A 
HETATM   10  C   UNL     1       5.140  33.039  63.640  1.00  0.00     0.042 A 
HETATM   11  C   UNL     1       7.373  33.711  65.116  1.00  0.00     0.001 A 
HETATM   12  C   UNL     1       6.110  33.828  65.682  1.00  0.00     0.002 A 
HETATM   13  C   UNL     1       4.967  33.499  64.953  1.00  0.00     0.030 A 
HETATM   14  N   UNL     1       4.196  32.664  62.717  1.00  0.00    -0.365 N 
HETATM   15  H   UNL     1       3.199  32.683  62.879  1.00  0.00     0.165 HD
HETATM   16  C   UNL     1       4.801  32.267  61.560  1.00  0.00     0.097 A 
ENDBRANCH   6   7
ENDBRANCH   3   6
ENDBRANCH   1   2
BRANCH   1  17
HETATM   17  C   UNL     1       6.186  28.866  57.051  1.00  0.00    -0.040 A 
HETATM   18  C   UNL     1       5.181  27.892  57.044  1.00  0.00     0.011 A 
HETATM   19  C   UNL     1       5.444  26.595  56.585  1.00  0.00     0.030 A 
HETATM   20  C   UNL     1       6.717  26.250  56.130  1.00  0.00     0.035 A 
HETATM   21  C   UNL     1       7.733  27.214  56.174  1.00  0.00     0.030 A 
HETATM   22  C   UNL     1       7.472  28.507  56.635  1.00  0.00     0.011 A 
BRANCH  20  23
HETATM   23  N   UNL     1       7.051  24.994  55.593  1.00  0.00    -0.321 N 
HETATM   24  C   UNL     1       6.551  24.381  54.458  1.00  0.00     0.279 C 
HETATM   25  O   UNL     1       5.647  24.815  53.751  1.00  0.00    -0.265 OA
HETATM   26  H   UNL     1       7.783  24.472  56.063  1.00  0.00     0.169 HD
BRANCH  24  27
HETATM   27  C   UNL     1       7.230  23.131  54.158  1.00  0.00     0.142 A 
HETATM   28  O   UNL     1       7.376  22.188  55.146  1.00  0.00    -0.317 OA
HETATM   29  C   UNL     1       8.055  21.145  54.605  1.00  0.00     0.143 A 
HETATM   30  C   UNL     1       8.349  21.391  53.285  1.00  0.00     0.027 A 
HETATM   31  C   UNL     1       7.815  22.670  52.995  1.00  0.00     0.045 A 
ENDBRANCH  24  27
ENDBRANCH  20  23
ENDBRANCH   1  17
TORSDOF 6
ENDMDL
MODEL 9
REMARK VINA RESULT:      -9.3      2.244     10.340
REMARK  6 active torsions:
REMARK  status: ('A' for Active; 'I' for Inactive)
REMARK    1  A    between atoms: C_8  and  C_9 
REMARK    2  A    between atoms: C_9  and  C_10 
REMARK       I    between atoms: C_10  and  N_11 
REMARK    3  A    between atoms: N_11  and  C_12 
REMARK    4  A    between atoms: C_12  and  C_13 
REMARK    5  A    between atoms: C_16  and  N_17 
REMARK       I    between atoms: N_17  and  C_18 
REMARK    6  A    between atoms: C_18  and  C_19 
ROOT
HETATM    1  C   UNL     1       4.015  29.437  56.175  1.00  0.00     0.161 C 
ENDROOT
BRANCH   1   2
HETATM    2  N   UNL     1       4.977  30.421  56.603  1.00  0.00    -0.357 N 
HETATM    3  C   UNL     1       4.807  31.097  57.791  1.00  0.00     0.222 C 
HETATM    4  O   UNL     1       3.821  30.940  58.509  1.00  0.00    -0.273 OA
HETATM    5  H   UNL     1       5.776  30.621  56.015  1.00  0.00     0.162 HD
BRANCH   3   6
HETATM    6  C   UNL     1       5.947  32.018  58.165  1.00  0.00     0.143 C 
BRANCH   6   7
HETATM    7  C   UNL     1       6.881  31.534  59.235  1.00  0.00    -0.022 A 
HETATM    8  C   UNL     1       7.102  32.000  60.578  1.00  0.00    -0.001 A 
HETATM    9  C   UNL     1       6.557  33.017  61.394  1.00  0.00     0.014 A 
HETATM   10  C   UNL     1       8.109  31.201  61.134  1.00  0.00     0.042 A 
HETATM   11  C   UNL     1       7.039  33.211  62.695  1.00  0.00     0.001 A 
HETATM   12  C   UNL     1       8.048  32.403  63.205  1.00  0.00     0.002 A 
HETATM   13  C   UNL     1       8.599  31.378  62.435  1.00  0.00     0.030 A 
HETATM   14  N   UNL     1       8.466  30.275  60.187  1.00  0.00    -0.365 N 
HETATM   15  H   UNL     1       9.164  29.557  60.324  1.00  0.00     0.165 HD
HETATM   16  C   UNL     1       7.743  30.467  59.045  1.00  0.00     0.097 A 
ENDBRANCH   6   7
ENDBRANCH   3   6
ENDBRANCH   1   2
BRANCH   1  17
HETATM   17  C   UNL     1       4.664  28.120  55.851  1.00  0.00    -0.040 A 
HETATM   18  C   UNL     1       5.165  27.299  56.867  1.00  0.00     0.011 A 
HETATM   19  C   UNL     1       5.730  26.052  56.567  1.00  0.00     0.030 A 
HETATM   20  C   UNL     1       5.804  25.609  55.246  1.00  0.00     0.035 A 
HETATM   21  C   UNL     1       5.338  26.447  54.226  1.00  0.00     0.030 A 
HETATM   22  C   UNL     1       4.779  27.693  54.524  1.00  0.00     0.011 A 
BRANCH  20  23
HETATM   23  N   UNL     1       6.295  24.347  54.864  1.00  0.00    -0.321 N 
HETATM   24  C   UNL     1       7.404  24.051  54.091  1.00  0.00     0.279 C 
HETATM   25  O   UNL     1       8.121  24.872  53.529  1.00  0.00    -0.265 OA
HETATM   26  H   UNL     1       5.809  23.534  55.229  1.00  0.00     0.169 HD
BRANCH  24  27
HETATM   27  C   UNL     1       7.660  22.623  54.013  1.00  0.00     0.142 A 
HETATM   28  O   UNL     1       7.618  21.865  55.158  1.00  0.00    -0.317 OA
HETATM   29  C   UNL     1       7.912  20.588  54.803  1.00  0.00     0.143 A 
HETATM   30  C   UNL     1       8.140  20.502  53.450  1.00  0.00     0.027 A 
HETATM   31  C   UNL     1       7.975  21.812  52.939  1.00  0.00     0.045 A 
ENDBRANCH  24  27
ENDBRANCH  20  23
ENDBRANCH   1  17
TORSDOF 6
ENDMDL
MODEL 10
REMARK VINA RESULT:      -9.0      2.294      2.725
REMARK  6 active torsions:
REMARK  status: ('A' for Active; 'I' for Inactive)
REMARK    1  A    between atoms: C_8  and  C_9 
REMARK    2  A    between atoms: C_9  and  C_10 
REMARK       I    between atoms: C_10  and  N_11 
REMARK    3  A    between atoms: N_11  and  C_12 
REMARK    4  A    between atoms: C_12  and  C_13 
REMARK    5  A    between atoms: C_16  and  N_17 
REMARK       I    between atoms: N_17  and  C_18 
REMARK    6  A    between atoms: C_18  and  C_19 
ROOT
HETATM    1  C   UNL     1       4.526  27.821  53.707  1.00  0.00     0.161 C 
ENDROOT
BRANCH   1   2
HETATM    2  N   UNL     1       5.682  26.971  53.570  1.00  0.00    -0.357 N 
HETATM    3  C   UNL     1       5.539  25.642  53.236  1.00  0.00     0.222 C 
HETATM    4  O   UNL     1       4.440  25.109  53.093  1.00  0.00    -0.273 OA
HETATM    5  H   UNL     1       6.604  27.357  53.734  1.00  0.00     0.162 HD
BRANCH   3   6
HETATM    6  C   UNL     1       6.838  24.899  53.021  1.00  0.00     0.143 C 
BRANCH   6   7
HETATM    7  C   UNL     1       7.268  23.964  54.113  1.00  0.00    -0.022 A 
HETATM    8  C   UNL     1       7.730  22.602  54.064  1.00  0.00    -0.001 A 
HETATM    9  C   UNL     1       7.971  21.657  53.041  1.00  0.00     0.014 A 
HETATM   10  C   UNL     1       7.974  22.198  55.381  1.00  0.00     0.042 A 
HETATM   11  C   UNL     1       8.415  20.368  53.363  1.00  0.00     0.001 A 
HETATM   12  C   UNL     1       8.635  20.004  54.685  1.00  0.00     0.002 A 
HETATM   13  C   UNL     1       8.423  20.914  55.721  1.00  0.00     0.030 A 
HETATM   14  N   UNL     1       7.701  23.269  56.195  1.00  0.00    -0.365 N 
HETATM   15  H   UNL     1       7.807  23.265  57.200  1.00  0.00     0.165 HD
HETATM   16  C   UNL     1       7.274  24.329  55.449  1.00  0.00     0.097 A 
ENDBRANCH   6   7
ENDBRANCH   3   6
ENDBRANCH   1   2
BRANCH   1  17
HETATM   17  C   UNL     1       4.525  28.561  55.017  1.00  0.00    -0.040 A 
HETATM   18  C   UNL     1       5.227  28.064  56.121  1.00  0.00     0.011 A 
HETATM   19  C   UNL     1       5.262  28.777  57.327  1.00  0.00     0.030 A 
HETATM   20  C   UNL     1       4.594  29.996  57.448  1.00  0.00     0.035 A 
HETATM   21  C   UNL     1       3.861  30.474  56.355  1.00  0.00     0.030 A 
HETATM   22  C   UNL     1       3.821  29.762  55.153  1.00  0.00     0.011 A 
BRANCH  20  23
HETATM   23  N   UNL     1       4.631  30.805  58.597  1.00  0.00    -0.321 N 
HETATM   24  C   UNL     1       5.479  31.860  58.883  1.00  0.00     0.279 C 
HETATM   25  O   UNL     1       6.424  32.225  58.189  1.00  0.00    -0.265 OA
HETATM   26  H   UNL     1       3.921  30.636  59.303  1.00  0.00     0.169 HD
BRANCH  24  27
HETATM   27  C   UNL     1       5.131  32.533  60.123  1.00  0.00     0.142 A 
HETATM   28  O   UNL     1       3.816  32.591  60.513  1.00  0.00    -0.317 OA
HETATM   29  C   UNL     1       3.775  33.285  61.679  1.00  0.00     0.143 A 
HETATM   30  C   UNL     1       5.038  33.675  62.054  1.00  0.00     0.027 A 
HETATM   31  C   UNL     1       5.914  33.189  61.053  1.00  0.00     0.045 A 
ENDBRANCH  24  27
ENDBRANCH  20  23
ENDBRANCH   1  17
TORSDOF 6
ENDMDL
