MODEL 1
REMARK VINA RESULT:      -9.5      0.000      0.000
REMARK  6 active torsions:
REMARK  status: ('A' for Active; 'I' for Inactive)
REMARK    1  A    between atoms: C_2  and  N_3 
REMARK    2  A    between atoms: C_2  and  C_16 
REMARK    3  A    between atoms: N_3  and  C_5 
REMARK    4  A    between atoms: C_5  and  C_6 
REMARK       I    between atoms: C_16  and  N_17 
REMARK    5  A    between atoms: N_17  and  C_18 
REMARK    6  A    between atoms: C_19  and  C_20 
ROOT
HETATM    1  C   UNL     1       6.367  24.710  52.710  1.00  0.00     0.253 C 
HETATM    2  N   UNL     1       7.552  24.145  53.129  1.00  0.00    -0.325 N 
HETATM    3  O   UNL     1       5.278  24.148  52.608  1.00  0.00    -0.271 OA
HETATM    4  H   UNL     1       8.411  24.667  52.984  1.00  0.00     0.169 HD
ENDROOT
BRANCH   1   5
HETATM    5  C   UNL     1       6.474  26.208  52.344  1.00  0.00     0.275 C 
HETATM    6  C   UNL     1       5.556  26.480  51.152  1.00  0.00     0.050 C 
BRANCH   5   7
HETATM    7  N   UNL     1       6.081  27.111  53.544  1.00  0.00    -0.059 N 
HETATM    8  H   UNL     1       6.293  26.534  54.371  1.00  0.00     0.280 HD
HETATM    9  C   UNL     1       4.629  27.475  53.598  1.00  0.00     0.271 C 
BRANCH   7  10
HETATM   10  C   UNL     1       6.988  28.326  53.734  1.00  0.00     0.274 C 
BRANCH  10  11
HETATM   11  C   UNL     1       7.165  28.800  55.151  1.00  0.00    -0.030 A 
HETATM   12  C   UNL     1       8.447  29.025  55.680  1.00  0.00     0.048 A 
HETATM   13  C   UNL     1       8.547  29.460  56.985  1.00  0.00     0.105 A 
HETATM   14  C   UNL     1       7.441  29.675  57.767  1.00  0.00     0.105 A 
HETATM   15  O   UNL     1       9.708  29.726  57.641  1.00  0.00    -0.323 OA
HETATM   16  O   UNL     1       7.764  30.104  59.015  1.00  0.00    -0.323 OA
HETATM   17  C   UNL     1       6.167  29.473  57.288  1.00  0.00     0.040 A 
HETATM   18  C   UNL     1       9.203  30.176  58.919  1.00  0.00     0.352 A 
HETATM   19  C   UNL     1       6.029  29.035  55.967  1.00  0.00     0.012 A 
ENDBRANCH  10  11
ENDBRANCH   7  10
ENDBRANCH   5   7
ENDBRANCH   1   5
BRANCH   2  20
HETATM   20  C   UNL     1       7.748  22.847  53.670  1.00  0.00     0.045 A 
HETATM   21  C   UNL     1       7.745  22.699  55.081  1.00  0.00     0.001 A 
HETATM   22  C   UNL     1       7.898  21.415  55.635  1.00  0.00     0.014 A 
HETATM   23  C   UNL     1       8.052  20.297  54.819  1.00  0.00     0.001 A 
HETATM   24  C   UNL     1       8.060  20.448  53.437  1.00  0.00     0.002 A 
HETATM   25  C   UNL     1       7.909  21.714  52.865  1.00  0.00     0.030 A 
BRANCH  21  26
HETATM   26  C   UNL     1       7.632  23.849  55.992  1.00  0.00    -0.024 A 
HETATM   27  C   UNL     1       8.761  24.372  56.640  1.00  0.00     0.012 A 
HETATM   28  C   UNL     1       8.636  25.443  57.527  1.00  0.00     0.001 A 
HETATM   29  C   UNL     1       7.385  26.006  57.773  1.00  0.00     0.000 A 
HETATM   30  C   UNL     1       6.256  25.502  57.129  1.00  0.00     0.001 A 
HETATM   31  C   UNL     1       6.379  24.429  56.244  1.00  0.00     0.012 A 
ENDBRANCH  21  26
ENDBRANCH   2  20
TORSDOF 6
ENDMDL
MODEL 2
REMARK VINA RESULT:      -9.3      0.973      1.721
REMARK  6 active torsions:
REMARK  status: ('A' for Active; 'I' for Inactive)
REMARK    1  A    between atoms: C_2  and  N_3 
REMARK    2  A    between atoms: C_2  and  C_16 
REMARK    3  A    between atoms: N_3  and  C_5 
REMARK    4  A    between atoms: C_5  and  C_6 
REMARK       I    between atoms: C_16  and  N_17 
REMARK    5  A    between atoms: N_17  and  C_18 
REMARK    6  A    between atoms: C_19  and  C_20 
ROOT
HETATM    1  C   UNL     1       7.258  24.909  52.468  1.00  0.00     0.253 C 
HETATM    2  N   UNL     1       6.774  23.891  53.260  1.00  0.00    -0.325 N 
HETATM    3  O   UNL     1       8.421  25.073  52.105  1.00  0.00    -0.271 OA
HETATM    4  H   UNL     1       5.836  23.980  53.639  1.00  0.00     0.169 HD
ENDROOT
BRANCH   1   5
HETATM    5  C   UNL     1       6.183  25.923  52.015  1.00  0.00     0.275 C 
HETATM    6  C   UNL     1       4.979  25.144  51.483  1.00  0.00     0.050 C 
BRANCH   5   7
HETATM    7  N   UNL     1       5.751  26.848  53.185  1.00  0.00    -0.059 N 
HETATM    8  H   UNL     1       6.150  26.396  54.021  1.00  0.00     0.280 HD
HETATM    9  C   UNL     1       4.269  26.950  53.382  1.00  0.00     0.271 C 
BRANCH   7  10
HETATM   10  C   UNL     1       6.428  28.217  53.181  1.00  0.00     0.274 C 
BRANCH  10  11
HETATM   11  C   UNL     1       7.061  28.642  54.479  1.00  0.00    -0.030 A 
HETATM   12  C   UNL     1       6.285  29.199  55.509  1.00  0.00     0.048 A 
HETATM   13  C   UNL     1       6.919  29.568  56.677  1.00  0.00     0.105 A 
HETATM   14  C   UNL     1       8.270  29.405  56.855  1.00  0.00     0.105 A 
HETATM   15  O   UNL     1       6.314  30.116  57.764  1.00  0.00    -0.323 OA
HETATM   16  O   UNL     1       8.687  29.829  58.076  1.00  0.00    -0.323 OA
HETATM   17  C   UNL     1       9.066  28.858  55.875  1.00  0.00     0.040 A 
HETATM   18  C   UNL     1       7.436  30.241  58.668  1.00  0.00     0.352 A 
HETATM   19  C   UNL     1       8.454  28.470  54.679  1.00  0.00     0.012 A 
ENDBRANCH  10  11
ENDBRANCH   7  10
ENDBRANCH   5   7
ENDBRANCH   1   5
BRANCH   2  20
HETATM   20  C   UNL     1       7.470  22.736  53.706  1.00  0.00     0.045 A 
HETATM   21  C   UNL     1       7.889  22.684  55.061  1.00  0.00     0.001 A 
HETATM   22  C   UNL     1       8.545  21.532  55.530  1.00  0.00     0.014 A 
HETATM   23  C   UNL     1       8.786  20.451  54.685  1.00  0.00     0.001 A 
HETATM   24  C   UNL     1       8.380  20.509  53.357  1.00  0.00     0.002 A 
HETATM   25  C   UNL     1       7.726  21.644  52.869  1.00  0.00     0.030 A 
BRANCH  21  26
HETATM   26  C   UNL     1       7.700  23.812  55.985  1.00  0.00    -0.024 A 
HETATM   27  C   UNL     1       6.451  24.435  56.122  1.00  0.00     0.012 A 
HETATM   28  C   UNL     1       6.292  25.526  56.978  1.00  0.00     0.001 A 
HETATM   29  C   UNL     1       7.377  26.003  57.712  1.00  0.00     0.000 A 
HETATM   30  C   UNL     1       8.622  25.389  57.593  1.00  0.00     0.001 A 
HETATM   31  C   UNL     1       8.783  24.300  56.734  1.00  0.00     0.012 A 
ENDBRANCH  21  26
ENDBRANCH   2  20
TORSDOF 6
ENDMDL
MODEL 3
REMARK VINA RESULT:      -9.2      2.558      4.737
REMARK  6 active torsions:
REMARK  status: ('A' for Active; 'I' for Inactive)
REMARK    1  A    between atoms: C_2  and  N_3 
REMARK    2  A    between atoms: C_2  and  C_16 
REMARK    3  A    between atoms: N_3  and  C_5 
REMARK    4  A    between atoms: C_5  and  C_6 
REMARK       I    between atoms: C_16  and  N_17 
REMARK    5  A    between atoms: N_17  and  C_18 
REMARK    6  A    between atoms: C_19  and  C_20 
ROOT
HETATM    1  C   UNL     1       7.973  26.522  57.219  1.00  0.00     0.253 C 
HETATM    2  N   UNL     1       8.038  25.692  56.122  1.00  0.00    -0.325 N 
HETATM    3  O   UNL     1       7.731  26.194  58.379  1.00  0.00    -0.271 OA
HETATM    4  H   UNL     1       8.057  26.115  55.199  1.00  0.00     0.169 HD
ENDROOT
BRANCH   1   5
HETATM    5  C   UNL     1       8.242  28.011  56.903  1.00  0.00     0.275 C 
HETATM    6  C   UNL     1       7.900  28.261  55.433  1.00  0.00     0.050 C 
BRANCH   5   7
HETATM    7  N   UNL     1       7.403  28.943  57.817  1.00  0.00    -0.059 N 
HETATM    8  H   UNL     1       7.513  28.535  58.758  1.00  0.00     0.280 HD
HETATM    9  C   UNL     1       5.939  28.972  57.499  1.00  0.00     0.271 C 
BRANCH   7  10
HETATM   10  C   UNL     1       7.986  30.346  57.982  1.00  0.00     0.274 C 
BRANCH  10  11
HETATM   11  C   UNL     1       8.070  30.861  59.394  1.00  0.00    -0.030 A 
HETATM   12  C   UNL     1       7.066  31.693  59.917  1.00  0.00     0.048 A 
HETATM   13  C   UNL     1       7.196  32.133  61.218  1.00  0.00     0.105 A 
HETATM   14  C   UNL     1       8.266  31.782  62.002  1.00  0.00     0.105 A 
HETATM   15  O   UNL     1       6.315  32.937  61.870  1.00  0.00    -0.323 OA
HETATM   16  O   UNL     1       8.195  32.320  63.247  1.00  0.00    -0.323 OA
HETATM   17  C   UNL     1       9.269  30.965  61.532  1.00  0.00     0.040 A 
HETATM   18  C   UNL     1       6.934  33.019  63.175  1.00  0.00     0.352 A 
HETATM   19  C   UNL     1       9.166  30.498  60.217  1.00  0.00     0.012 A 
ENDBRANCH  10  11
ENDBRANCH   7  10
ENDBRANCH   5   7
ENDBRANCH   1   5
BRANCH   2  20
HETATM   20  C   UNL     1       7.989  24.273  56.106  1.00  0.00     0.045 A 
HETATM   21  C   UNL     1       7.439  23.631  54.967  1.00  0.00     0.001 A 
HETATM   22  C   UNL     1       7.417  22.225  54.917  1.00  0.00     0.014 A 
HETATM   23  C   UNL     1       7.926  21.464  55.966  1.00  0.00     0.001 A 
HETATM   24  C   UNL     1       8.459  22.097  57.083  1.00  0.00     0.002 A 
HETATM   25  C   UNL     1       8.490  23.493  57.154  1.00  0.00     0.030 A 
BRANCH  21  26
HETATM   26  C   UNL     1       6.847  24.383  53.850  1.00  0.00    -0.024 A 
HETATM   27  C   UNL     1       5.512  24.813  53.894  1.00  0.00     0.012 A 
HETATM   28  C   UNL     1       4.952  25.498  52.814  1.00  0.00     0.001 A 
HETATM   29  C   UNL     1       5.719  25.766  51.681  1.00  0.00     0.000 A 
HETATM   30  C   UNL     1       7.049  25.353  51.628  1.00  0.00     0.001 A 
HETATM   31  C   UNL     1       7.610  24.665  52.706  1.00  0.00     0.012 A 
ENDBRANCH  21  26
ENDBRANCH   2  20
TORSDOF 6
ENDMDL
MODEL 4
REMARK VINA RESULT:      -8.9      2.147      2.761
REMARK  6 active torsions:
REMARK  status: ('A' for Active; 'I' for Inactive)
REMARK    1  A    between atoms: C_2  and  N_3 
REMARK    2  A    between atoms: C_2  and  C_16 
REMARK    3  A    between atoms: N_3  and  C_5 
REMARK    4  A    between atoms: C_5  and  C_6 
REMARK       I    between atoms: C_16  and  N_17 
REMARK    5  A    between atoms: N_17  and  C_18 
REMARK    6  A    between atoms: C_19  and  C_20 
ROOT
HETATM    1  C   UNL     1       7.359  24.856  52.388  1.00  0.00     0.253 C 
HETATM    2  N   UNL     1       6.827  23.897  53.222  1.00  0.00    -0.325 N 
HETATM    3  O   UNL     1       8.523  24.930  51.998  1.00  0.00    -0.271 OA
HETATM    4  H   UNL     1       5.905  24.062  53.617  1.00  0.00     0.169 HD
ENDROOT
BRANCH   1   5
HETATM    5  C   UNL     1       6.344  25.925  51.924  1.00  0.00     0.275 C 
HETATM    6  C   UNL     1       4.991  25.244  51.708  1.00  0.00     0.050 C 
BRANCH   5   7
HETATM    7  N   UNL     1       6.210  27.068  52.966  1.00  0.00    -0.059 N 
HETATM    8  H   UNL     1       6.014  27.904  52.395  1.00  0.00     0.280 HD
HETATM    9  C   UNL     1       7.454  27.335  53.758  1.00  0.00     0.271 C 
BRANCH   7  10
HETATM   10  C   UNL     1       4.972  26.962  53.854  1.00  0.00     0.274 C 
BRANCH  10  11
HETATM   11  C   UNL     1       4.481  28.251  54.455  1.00  0.00    -0.030 A 
HETATM   12  C   UNL     1       4.579  28.483  55.837  1.00  0.00     0.048 A 
HETATM   13  C   UNL     1       4.114  29.684  56.332  1.00  0.00     0.105 A 
HETATM   14  C   UNL     1       3.567  30.644  55.518  1.00  0.00     0.105 A 
HETATM   15  O   UNL     1       4.138  30.062  57.637  1.00  0.00    -0.323 OA
HETATM   16  O   UNL     1       3.178  31.748  56.207  1.00  0.00    -0.323 OA
HETATM   17  C   UNL     1       3.457  30.460  54.158  1.00  0.00     0.040 A 
HETATM   18  C   UNL     1       3.581  31.394  57.547  1.00  0.00     0.352 A 
HETATM   19  C   UNL     1       3.923  29.255  53.624  1.00  0.00     0.012 A 
ENDBRANCH  10  11
ENDBRANCH   7  10
ENDBRANCH   5   7
ENDBRANCH   1   5
BRANCH   2  20
HETATM   20  C   UNL     1       7.455  22.714  53.692  1.00  0.00     0.045 A 
HETATM   21  C   UNL     1       7.838  22.651  55.056  1.00  0.00     0.001 A 
HETATM   22  C   UNL     1       8.426  21.471  55.549  1.00  0.00     0.014 A 
HETATM   23  C   UNL     1       8.633  20.374  54.716  1.00  0.00     0.001 A 
HETATM   24  C   UNL     1       8.261  20.442  53.379  1.00  0.00     0.002 A 
HETATM   25  C   UNL     1       7.676  21.604  52.868  1.00  0.00     0.030 A 
BRANCH  21  26
HETATM   26  C   UNL     1       7.684  23.794  55.969  1.00  0.00    -0.024 A 
HETATM   27  C   UNL     1       8.789  24.334  56.645  1.00  0.00     0.012 A 
HETATM   28  C   UNL     1       8.624  25.397  57.534  1.00  0.00     0.001 A 
HETATM   29  C   UNL     1       7.358  25.938  57.754  1.00  0.00     0.000 A 
HETATM   30  C   UNL     1       6.254  25.417  57.083  1.00  0.00     0.001 A 
HETATM   31  C   UNL     1       6.415  24.351  56.196  1.00  0.00     0.012 A 
ENDBRANCH  21  26
ENDBRANCH   2  20
TORSDOF 6
ENDMDL
MODEL 5
REMARK VINA RESULT:      -8.8      2.890      5.832
REMARK  6 active torsions:
REMARK  status: ('A' for Active; 'I' for Inactive)
REMARK    1  A    between atoms: C_2  and  N_3 
REMARK    2  A    between atoms: C_2  and  C_16 
REMARK    3  A    between atoms: N_3  and  C_5 
REMARK    4  A    between atoms: C_5  and  C_6 
REMARK       I    between atoms: C_16  and  N_17 
REMARK    5  A    between atoms: N_17  and  C_18 
REMARK    6  A    between atoms: C_19  and  C_20 
ROOT
HETATM    1  C   UNL     1       7.115  24.715  52.461  1.00  0.00     0.253 C 
HETATM    2  N   UNL     1       6.715  23.648  53.237  1.00  0.00    -0.325 N 
HETATM    3  O   UNL     1       8.270  25.046  52.202  1.00  0.00    -0.271 OA
HETATM    4  H   UNL     1       5.742  23.601  53.525  1.00  0.00     0.169 HD
ENDROOT
BRANCH   1   5
HETATM    5  C   UNL     1       5.949  25.547  51.881  1.00  0.00     0.275 C 
HETATM    6  C   UNL     1       4.632  24.891  52.301  1.00  0.00     0.050 C 
BRANCH   5   7
HETATM    7  N   UNL     1       6.001  27.016  52.378  1.00  0.00    -0.059 N 
HETATM    8  H   UNL     1       6.975  27.138  52.693  1.00  0.00     0.280 HD
HETATM    9  C   UNL     1       5.103  27.311  53.541  1.00  0.00     0.271 C 
BRANCH   7  10
HETATM   10  C   UNL     1       5.868  28.057  51.267  1.00  0.00     0.274 C 
BRANCH  10  11
HETATM   11  C   UNL     1       4.729  27.849  50.305  1.00  0.00    -0.030 A 
HETATM   12  C   UNL     1       4.853  26.959  49.226  1.00  0.00     0.048 A 
HETATM   13  C   UNL     1       3.776  26.809  48.377  1.00  0.00     0.105 A 
HETATM   14  C   UNL     1       2.603  27.498  48.561  1.00  0.00     0.105 A 
HETATM   15  O   UNL     1       3.733  25.989  47.294  1.00  0.00    -0.323 OA
HETATM   16  O   UNL     1       1.673  27.199  47.616  1.00  0.00    -0.323 OA
HETATM   17  C   UNL     1       2.437  28.375  49.608  1.00  0.00     0.040 A 
HETATM   18  C   UNL     1       2.378  26.209  46.837  1.00  0.00     0.352 A 
HETATM   19  C   UNL     1       3.509  28.548  50.489  1.00  0.00     0.012 A 
ENDBRANCH  10  11
ENDBRANCH   7  10
ENDBRANCH   5   7
ENDBRANCH   1   5
BRANCH   2  20
HETATM   20  C   UNL     1       7.530  22.620  53.780  1.00  0.00     0.045 A 
HETATM   21  C   UNL     1       7.958  22.742  55.127  1.00  0.00     0.001 A 
HETATM   22  C   UNL     1       8.733  21.714  55.694  1.00  0.00     0.014 A 
HETATM   23  C   UNL     1       9.082  20.588  54.952  1.00  0.00     0.001 A 
HETATM   24  C   UNL     1       8.665  20.476  53.631  1.00  0.00     0.002 A 
HETATM   25  C   UNL     1       7.894  21.485  53.047  1.00  0.00     0.030 A 
BRANCH  21  26
HETATM   26  C   UNL     1       7.658  23.928  55.943  1.00  0.00    -0.024 A 
HETATM   27  C   UNL     1       8.679  24.631  56.601  1.00  0.00     0.012 A 
HETATM   28  C   UNL     1       8.378  25.736  57.399  1.00  0.00     0.001 A 
HETATM   29  C   UNL     1       7.056  26.155  57.545  1.00  0.00     0.000 A 
HETATM   30  C   UNL     1       6.033  25.472  56.889  1.00  0.00     0.001 A 
HETATM   31  C   UNL     1       6.332  24.365  56.094  1.00  0.00     0.012 A 
ENDBRANCH  21  26
ENDBRANCH   2  20
TORSDOF 6
ENDMDL
MODEL 6
REMARK VINA RESULT:      -8.7      2.534      5.064
REMARK  6 active torsions:
REMARK  status: ('A' for Active; 'I' for Inactive)
REMARK    1  A    between atoms: C_2  and  N_3 
REMARK    2  A    between atoms: C_2  and  C_16 
REMARK    3  A    between atoms: N_3  and  C_5 
REMARK    4  A    between atoms: C_5  and  C_6 
REMARK       I    between atoms: C_16  and  N_17 
REMARK    5  A    between atoms: N_17  and  C_18 
REMARK    6  A    between atoms: C_19  and  C_20 
ROOT
HETATM    1  C   UNL     1       6.642  25.463  56.856  1.00  0.00     0.253 C 
HETATM    2  N   UNL     1       7.735  24.794  56.350  1.00  0.00    -0.325 N 
HETATM    3  O   UNL     1       5.521  24.999  57.057  1.00  0.00    -0.271 OA
HETATM    4  H   UNL     1       8.539  25.340  56.056  1.00  0.00     0.169 HD
ENDROOT
BRANCH   1   5
HETATM    5  C   UNL     1       6.908  26.949  57.190  1.00  0.00     0.275 C 
HETATM    6  C   UNL     1       8.404  27.123  57.453  1.00  0.00     0.050 C 
BRANCH   5   7
HETATM    7  N   UNL     1       6.454  27.877  56.031  1.00  0.00    -0.059 N 
HETATM    8  H   UNL     1       6.372  27.244  55.222  1.00  0.00     0.280 HD
HETATM    9  C   UNL     1       7.434  28.953  55.676  1.00  0.00     0.271 C 
BRANCH   7  10
HETATM   10  C   UNL     1       5.033  28.419  56.186  1.00  0.00     0.274 C 
BRANCH  10  11
HETATM   11  C   UNL     1       4.421  29.022  54.950  1.00  0.00    -0.030 A 
HETATM   12  C   UNL     1       4.393  28.308  53.740  1.00  0.00     0.048 A 
HETATM   13  C   UNL     1       3.818  28.911  52.641  1.00  0.00     0.105 A 
HETATM   14  C   UNL     1       3.280  30.172  52.700  1.00  0.00     0.105 A 
HETATM   15  O   UNL     1       3.709  28.356  51.405  1.00  0.00    -0.323 OA
HETATM   16  O   UNL     1       2.764  30.571  51.509  1.00  0.00    -0.323 OA
HETATM   17  C   UNL     1       3.281  30.903  53.866  1.00  0.00     0.040 A 
HETATM   18  C   UNL     1       2.999  29.401  50.698  1.00  0.00     0.352 A 
HETATM   19  C   UNL     1       3.854  30.320  55.000  1.00  0.00     0.012 A 
ENDBRANCH  10  11
ENDBRANCH   7  10
ENDBRANCH   5   7
ENDBRANCH   1   5
BRANCH   2  20
HETATM   20  C   UNL     1       7.854  23.403  56.091  1.00  0.00     0.045 A 
HETATM   21  C   UNL     1       7.590  22.938  54.777  1.00  0.00     0.001 A 
HETATM   22  C   UNL     1       7.742  21.569  54.492  1.00  0.00     0.014 A 
HETATM   23  C   UNL     1       8.145  20.672  55.480  1.00  0.00     0.001 A 
HETATM   24  C   UNL     1       8.396  21.132  56.767  1.00  0.00     0.002 A 
HETATM   25  C   UNL     1       8.252  22.488  57.072  1.00  0.00     0.030 A 
BRANCH  21  26
HETATM   26  C   UNL     1       7.119  23.831  53.707  1.00  0.00    -0.024 A 
HETATM   27  C   UNL     1       5.771  24.211  53.623  1.00  0.00     0.012 A 
HETATM   28  C   UNL     1       5.330  25.032  52.584  1.00  0.00     0.001 A 
HETATM   29  C   UNL     1       6.229  25.488  51.622  1.00  0.00     0.000 A 
HETATM   30  C   UNL     1       7.573  25.126  51.698  1.00  0.00     0.001 A 
HETATM   31  C   UNL     1       8.015  24.301  52.734  1.00  0.00     0.012 A 
ENDBRANCH  21  26
ENDBRANCH   2  20
TORSDOF 6
ENDMDL
MODEL 7
REMARK VINA RESULT:      -8.3      4.810      9.802
REMARK  6 active torsions:
REMARK  status: ('A' for Active; 'I' for Inactive)
REMARK    1  A    between atoms: C_2  and  N_3 
REMARK    2  A    between atoms: C_2  and  C_16 
REMARK    3  A    between atoms: N_3  and  C_5 
REMARK    4  A    between atoms: C_5  and  C_6 
REMARK       I    between atoms: C_16  and  N_17 
REMARK    5  A    between atoms: N_17  and  C_18 
REMARK    6  A    between atoms: C_19  and  C_20 
ROOT
HETATM    1  C   UNL     1       4.778  32.774  60.795  1.00  0.00     0.253 C 
HETATM    2  N   UNL     1       5.140  32.093  61.937  1.00  0.00    -0.325 N 
HETATM    3  O   UNL     1       4.684  33.993  60.662  1.00  0.00    -0.271 OA
HETATM    4  H   UNL     1       4.994  31.088  61.964  1.00  0.00     0.169 HD
ENDROOT
BRANCH   1   5
HETATM    5  C   UNL     1       4.472  31.863  59.585  1.00  0.00     0.275 C 
HETATM    6  C   UNL     1       3.081  31.255  59.778  1.00  0.00     0.050 C 
BRANCH   5   7
HETATM    7  N   UNL     1       4.532  32.655  58.251  1.00  0.00    -0.059 N 
HETATM    8  H   UNL     1       4.836  33.599  58.536  1.00  0.00     0.280 HD
HETATM    9  C   UNL     1       3.216  32.790  57.548  1.00  0.00     0.271 C 
BRANCH   7  10
HETATM   10  C   UNL     1       5.648  32.207  57.308  1.00  0.00     0.274 C 
BRANCH  10  11
HETATM   11  C   UNL     1       6.042  30.758  57.399  1.00  0.00    -0.030 A 
HETATM   12  C   UNL     1       5.206  29.751  56.888  1.00  0.00     0.048 A 
HETATM   13  C   UNL     1       5.620  28.440  56.998  1.00  0.00     0.105 A 
HETATM   14  C   UNL     1       6.813  28.101  57.586  1.00  0.00     0.105 A 
HETATM   15  O   UNL     1       4.932  27.355  56.553  1.00  0.00    -0.323 OA
HETATM   16  O   UNL     1       7.028  26.759  57.586  1.00  0.00    -0.323 OA
HETATM   17  C   UNL     1       7.665  29.055  58.094  1.00  0.00     0.040 A 
HETATM   18  C   UNL     1       5.852  26.291  56.892  1.00  0.00     0.352 A 
HETATM   19  C   UNL     1       7.276  30.394  57.996  1.00  0.00     0.012 A 
ENDBRANCH  10  11
ENDBRANCH   7  10
ENDBRANCH   5   7
ENDBRANCH   1   5
BRANCH   2  20
HETATM   20  C   UNL     1       5.622  32.640  63.155  1.00  0.00     0.045 A 
HETATM   21  C   UNL     1       7.024  32.672  63.371  1.00  0.00     0.001 A 
HETATM   22  C   UNL     1       7.522  33.247  64.554  1.00  0.00     0.014 A 
HETATM   23  C   UNL     1       6.658  33.780  65.509  1.00  0.00     0.001 A 
HETATM   24  C   UNL     1       5.286  33.742  65.295  1.00  0.00     0.002 A 
HETATM   25  C   UNL     1       4.769  33.176  64.127  1.00  0.00     0.030 A 
BRANCH  21  26
HETATM   26  C   UNL     1       7.979  32.084  62.419  1.00  0.00    -0.024 A 
HETATM   27  C   UNL     1       8.519  30.806  62.633  1.00  0.00     0.012 A 
HETATM   28  C   UNL     1       9.449  30.272  61.739  1.00  0.00     0.001 A 
HETATM   29  C   UNL     1       9.847  31.003  60.621  1.00  0.00     0.000 A 
HETATM   30  C   UNL     1       9.312  32.270  60.392  1.00  0.00     0.001 A 
HETATM   31  C   UNL     1       8.384  32.807  61.286  1.00  0.00     0.012 A 
ENDBRANCH  21  26
ENDBRANCH   2  20
TORSDOF 6
ENDMDL
MODEL 8
REMARK VINA RESULT:      -8.3      3.348      7.277
REMARK  6 active torsions:
REMARK  status: ('A' for Active; 'I' for Inactive)
REMARK    1  A    between atoms: C_2  and  N_3 
REMARK    2  A    between atoms: C_2  and  C_16 
REMARK    3  A    between atoms: N_3  and  C_5 
REMARK    4  A    between atoms: C_5  and  C_6 
REMARK       I    between atoms: C_16  and  N_17 
REMARK    5  A    between atoms: N_17  and  C_18 
REMARK    6  A    between atoms: C_19  and  C_20 
ROOT
HETATM    1  C   UNL     1       6.748  26.442  53.170  1.00  0.00     0.253 C 
HETATM    2  N   UNL     1       6.622  25.446  54.114  1.00  0.00    -0.325 N 
HETATM    3  O   UNL     1       7.337  27.513  53.303  1.00  0.00    -0.271 OA
HETATM    4  H   UNL     1       5.952  24.703  53.941  1.00  0.00     0.169 HD
ENDROOT
BRANCH   1   5
HETATM    5  C   UNL     1       6.060  26.128  51.823  1.00  0.00     0.275 C 
HETATM    6  C   UNL     1       4.959  25.096  52.073  1.00  0.00     0.050 C 
BRANCH   5   7
HETATM    7  N   UNL     1       5.461  27.409  51.182  1.00  0.00    -0.059 N 
HETATM    8  H   UNL     1       6.082  28.165  51.508  1.00  0.00     0.280 HD
HETATM    9  C   UNL     1       4.069  27.736  51.630  1.00  0.00     0.271 C 
BRANCH   7  10
HETATM   10  C   UNL     1       5.609  27.476  49.663  1.00  0.00     0.274 C 
BRANCH  10  11
HETATM   11  C   UNL     1       4.345  27.286  48.870  1.00  0.00    -0.030 A 
HETATM   12  C   UNL     1       3.627  28.392  48.385  1.00  0.00     0.048 A 
HETATM   13  C   UNL     1       2.476  28.157  47.662  1.00  0.00     0.105 A 
HETATM   14  C   UNL     1       2.022  26.887  47.409  1.00  0.00     0.105 A 
HETATM   15  O   UNL     1       1.673  29.113  47.124  1.00  0.00    -0.323 OA
HETATM   16  O   UNL     1       0.876  26.882  46.679  1.00  0.00    -0.323 OA
HETATM   17  C   UNL     1       2.697  25.776  47.860  1.00  0.00     0.040 A 
HETATM   18  C   UNL     1       0.679  28.296  46.463  1.00  0.00     0.352 A 
HETATM   19  C   UNL     1       3.870  25.979  48.593  1.00  0.00     0.012 A 
ENDBRANCH  10  11
ENDBRANCH   7  10
ENDBRANCH   5   7
ENDBRANCH   1   5
BRANCH   2  20
HETATM   20  C   UNL     1       7.259  25.368  55.381  1.00  0.00     0.045 A 
HETATM   21  C   UNL     1       7.948  24.174  55.715  1.00  0.00     0.001 A 
HETATM   22  C   UNL     1       8.619  24.093  56.949  1.00  0.00     0.014 A 
HETATM   23  C   UNL     1       8.613  25.165  57.838  1.00  0.00     0.001 A 
HETATM   24  C   UNL     1       7.932  26.331  57.508  1.00  0.00     0.002 A 
HETATM   25  C   UNL     1       7.258  26.434  56.288  1.00  0.00     0.030 A 
BRANCH  21  26
HETATM   26  C   UNL     1       7.950  22.996  54.835  1.00  0.00    -0.024 A 
HETATM   27  C   UNL     1       8.102  23.129  53.447  1.00  0.00     0.012 A 
HETATM   28  C   UNL     1       8.070  22.006  52.619  1.00  0.00     0.001 A 
HETATM   29  C   UNL     1       7.890  20.737  53.167  1.00  0.00     0.000 A 
HETATM   30  C   UNL     1       7.746  20.588  54.545  1.00  0.00     0.001 A 
HETATM   31  C   UNL     1       7.775  21.711  55.374  1.00  0.00     0.012 A 
ENDBRANCH  21  26
ENDBRANCH   2  20
TORSDOF 6
ENDMDL
MODEL 9
REMARK VINA RESULT:      -8.2      2.386      4.797
REMARK  6 active torsions:
REMARK  status: ('A' for Active; 'I' for Inactive)
REMARK    1  A    between atoms: C_2  and  N_3 
REMARK    2  A    between atoms: C_2  and  C_16 
REMARK    3  A    between atoms: N_3  and  C_5 
REMARK    4  A    between atoms: C_5  and  C_6 
REMARK       I    between atoms: C_16  and  N_17 
REMARK    5  A    between atoms: N_17  and  C_18 
REMARK    6  A    between atoms: C_19  and  C_20 
ROOT
HETATM    1  C   UNL     1       6.868  28.201  55.600  1.00  0.00     0.253 C 
HETATM    2  N   UNL     1       7.193  27.123  54.805  1.00  0.00    -0.325 N 
HETATM    3  O   UNL     1       6.016  29.057  55.370  1.00  0.00    -0.271 OA
HETATM    4  H   UNL     1       8.041  26.607  55.019  1.00  0.00     0.169 HD
ENDROOT
BRANCH   1   5
HETATM    5  C   UNL     1       7.691  28.296  56.905  1.00  0.00     0.275 C 
HETATM    6  C   UNL     1       8.467  26.989  57.081  1.00  0.00     0.050 C 
BRANCH   5   7
HETATM    7  N   UNL     1       8.669  29.501  56.870  1.00  0.00    -0.059 N 
HETATM    8  H   UNL     1       8.053  30.318  56.745  1.00  0.00     0.280 HD
HETATM    9  C   UNL     1       9.641  29.481  55.730  1.00  0.00     0.271 C 
BRANCH   7  10
HETATM   10  C   UNL     1       9.352  29.790  58.206  1.00  0.00     0.274 C 
BRANCH  10  11
HETATM   11  C   UNL     1       8.550  30.594  59.194  1.00  0.00    -0.030 A 
HETATM   12  C   UNL     1       8.868  30.576  60.562  1.00  0.00     0.048 A 
HETATM   13  C   UNL     1       8.099  31.334  61.421  1.00  0.00     0.105 A 
HETATM   14  C   UNL     1       7.048  32.095  60.976  1.00  0.00     0.105 A 
HETATM   15  O   UNL     1       8.277  31.426  62.765  1.00  0.00    -0.323 OA
HETATM   16  O   UNL     1       6.430  32.764  61.984  1.00  0.00    -0.323 OA
HETATM   17  C   UNL     1       6.706  32.147  59.644  1.00  0.00     0.040 A 
HETATM   18  C   UNL     1       7.238  32.371  63.114  1.00  0.00     0.352 A 
HETATM   19  C   UNL     1       7.467  31.392  58.746  1.00  0.00     0.012 A 
ENDBRANCH  10  11
ENDBRANCH   7  10
ENDBRANCH   5   7
ENDBRANCH   1   5
BRANCH   2  20
HETATM   20  C   UNL     1       6.525  26.681  53.633  1.00  0.00     0.045 A 
HETATM   21  C   UNL     1       6.495  25.289  53.360  1.00  0.00     0.001 A 
HETATM   22  C   UNL     1       5.805  24.828  52.225  1.00  0.00     0.014 A 
HETATM   23  C   UNL     1       5.155  25.718  51.372  1.00  0.00     0.001 A 
HETATM   24  C   UNL     1       5.192  27.082  51.641  1.00  0.00     0.002 A 
HETATM   25  C   UNL     1       5.872  27.562  52.763  1.00  0.00     0.030 A 
BRANCH  21  26
HETATM   26  C   UNL     1       7.200  24.309  54.200  1.00  0.00    -0.024 A 
HETATM   27  C   UNL     1       8.227  23.510  53.673  1.00  0.00     0.012 A 
HETATM   28  C   UNL     1       8.867  22.560  54.471  1.00  0.00     0.001 A 
HETATM   29  C   UNL     1       8.493  22.400  55.805  1.00  0.00     0.000 A 
HETATM   30  C   UNL     1       7.481  23.192  56.344  1.00  0.00     0.001 A 
HETATM   31  C   UNL     1       6.838  24.141  55.546  1.00  0.00     0.012 A 
ENDBRANCH  21  26
ENDBRANCH   2  20
TORSDOF 6
ENDMDL
MODEL 10
REMARK VINA RESULT:      -8.1      2.674      8.307
REMARK  6 active torsions:
REMARK  status: ('A' for Active; 'I' for Inactive)
REMARK    1  A    between atoms: C_2  and  N_3 
REMARK    2  A    between atoms: C_2  and  C_16 
REMARK    3  A    between atoms: N_3  and  C_5 
REMARK    4  A    between atoms: C_5  and  C_6 
REMARK       I    between atoms: C_16  and  N_17 
REMARK    5  A    between atoms: N_17  and  C_18 
REMARK    6  A    between atoms: C_19  and  C_20 
ROOT
HETATM    1  C   UNL     1       6.537  28.554  57.447  1.00  0.00     0.253 C 
HETATM    2  N   UNL     1       6.897  29.865  57.673  1.00  0.00    -0.325 N 
HETATM    3  O   UNL     1       5.399  28.090  57.456  1.00  0.00    -0.271 OA
HETATM    4  H   UNL     1       7.880  30.074  57.824  1.00  0.00     0.169 HD
ENDROOT
BRANCH   1   5
HETATM    5  C   UNL     1       7.727  27.612  57.155  1.00  0.00     0.275 C 
HETATM    6  C   UNL     1       7.592  26.374  58.043  1.00  0.00     0.050 C 
BRANCH   5   7
HETATM    7  N   UNL     1       7.767  27.199  55.659  1.00  0.00    -0.059 N 
HETATM    8  H   UNL     1       8.619  26.623  55.582  1.00  0.00     0.280 HD
HETATM    9  C   UNL     1       7.899  28.344  54.701  1.00  0.00     0.271 C 
BRANCH   7  10
HETATM   10  C   UNL     1       6.661  26.228  55.250  1.00  0.00     0.274 C 
BRANCH  10  11
HETATM   11  C   UNL     1       7.117  24.937  54.626  1.00  0.00    -0.030 A 
HETATM   12  C   UNL     1       7.123  23.743  55.366  1.00  0.00     0.048 A 
HETATM   13  C   UNL     1       7.550  22.590  54.742  1.00  0.00     0.105 A 
HETATM   14  C   UNL     1       7.962  22.581  53.433  1.00  0.00     0.105 A 
HETATM   15  O   UNL     1       7.614  21.359  55.315  1.00  0.00    -0.323 OA
HETATM   16  O   UNL     1       8.337  21.344  53.015  1.00  0.00    -0.323 OA
HETATM   17  C   UNL     1       7.966  23.726  52.669  1.00  0.00     0.040 A 
HETATM   18  C   UNL     1       8.075  20.561  54.200  1.00  0.00     0.352 A 
HETATM   19  C   UNL     1       7.536  24.912  53.271  1.00  0.00     0.012 A 
ENDBRANCH  10  11
ENDBRANCH   7  10
ENDBRANCH   5   7
ENDBRANCH   1   5
BRANCH   2  20
HETATM   20  C   UNL     1       6.038  30.986  57.817  1.00  0.00     0.045 A 
HETATM   21  C   UNL     1       6.335  31.936  58.827  1.00  0.00     0.001 A 
HETATM   22  C   UNL     1       5.518  33.073  58.960  1.00  0.00     0.014 A 
HETATM   23  C   UNL     1       4.428  33.273  58.115  1.00  0.00     0.001 A 
HETATM   24  C   UNL     1       4.137  32.336  57.131  1.00  0.00     0.002 A 
HETATM   25  C   UNL     1       4.935  31.199  56.982  1.00  0.00     0.030 A 
BRANCH  21  26
HETATM   26  C   UNL     1       7.445  31.755  59.775  1.00  0.00    -0.024 A 
HETATM   27  C   UNL     1       7.207  31.386  61.108  1.00  0.00     0.012 A 
HETATM   28  C   UNL     1       8.266  31.249  62.006  1.00  0.00     0.001 A 
HETATM   29  C   UNL     1       9.576  31.472  61.583  1.00  0.00     0.000 A 
HETATM   30  C   UNL     1       9.829  31.829  60.260  1.00  0.00     0.001 A 
HETATM   31  C   UNL     1       8.770  31.971  59.361  1.00  0.00     0.012 A 
ENDBRANCH  21  26
ENDBRANCH   2  20
TORSDOF 6
ENDMDL
