MODEL 1
REMARK VINA RESULT:      -9.7      0.000      0.000
REMARK  8 active torsions:
REMARK  status: ('A' for Active; 'I' for Inactive)
REMARK    1  A    between atoms: C_2  and  C_3 
REMARK    2  A    between atoms: C_3  and  C_4 
REMARK       I    between atoms: C_4  and  N_5 
REMARK    3  A    between atoms: N_8  and  C_9 
REMARK    4  A    between atoms: C_12  and  N_13 
REMARK    5  A    between atoms: N_13  and  C_14 
REMARK    6  A    between atoms: C_14  and  N_15 
REMARK       I    between atoms: N_15  and  C_16 
REMARK    7  A    between atoms: C_16  and  C_17 
REMARK    8  A    between atoms: C_21  and  O_22 
ROOT
HETATM    1  C   UNL     1       7.497  30.417  58.336  1.00  0.00     0.030 A 
HETATM    2  C   UNL     1       8.743  29.957  57.878  1.00  0.00     0.031 A 
HETATM    3  C   UNL     1       8.915  29.354  56.623  1.00  0.00     0.032 A 
HETATM    4  C   UNL     1       7.848  29.217  55.747  1.00  0.00     0.034 A 
HETATM    5  C   UNL     1       6.619  29.748  56.131  1.00  0.00     0.032 A 
HETATM    6  C   UNL     1       6.448  30.321  57.407  1.00  0.00     0.031 A 
ENDROOT
BRANCH   4   7
HETATM    7  N   UNL     1       7.962  28.643  54.464  1.00  0.00    -0.333 N 
HETATM    8  H   UNL     1       8.803  28.893  53.943  1.00  0.00     0.168 HD
BRANCH   7   9
HETATM    9  C   UNL     1       7.069  27.872  53.760  1.00  0.00     0.179 C 
HETATM   10  S   UNL     1       5.930  28.345  52.627  1.00  0.00    -0.040 SA
BRANCH   9  11
HETATM   11  N   UNL     1       7.141  26.512  53.991  1.00  0.00    -0.299 N 
HETATM   12  C   UNL     1       7.716  25.511  53.219  1.00  0.00     0.257 C 
HETATM   13  O   UNL     1       8.193  25.676  52.104  1.00  0.00    -0.267 OA
HETATM   14  H   UNL     1       6.801  26.265  54.911  1.00  0.00     0.171 HD
BRANCH  12  15
HETATM   15  C   UNL     1       7.732  24.170  53.858  1.00  0.00     0.034 A 
HETATM   16  C   UNL     1       7.937  23.046  53.057  1.00  0.00     0.044 A 
HETATM   17  C   UNL     1       8.015  21.782  53.649  1.00  0.00     0.068 A 
HETATM   18 CL   UNL     1       8.309  20.426  52.616  1.00  0.00    -0.081 Cl
HETATM   19  C   UNL     1       7.873  21.622  55.039  1.00  0.00     0.089 A 
HETATM   20  C   UNL     1       7.636  22.755  55.826  1.00  0.00     0.039 A 
HETATM   21  C   UNL     1       7.563  24.023  55.240  1.00  0.00     0.020 A 
BRANCH  19  22
HETATM   22  O   UNL     1       7.978  20.348  55.531  1.00  0.00    -0.354 OA
HETATM   23  C   UNL     1       9.171  19.995  56.219  1.00  0.00     0.210 C 
ENDBRANCH  19  22
ENDBRANCH  12  15
ENDBRANCH   9  11
ENDBRANCH   7   9
ENDBRANCH   4   7
BRANCH   1  24
HETATM   24  N   UNL     1       7.361  31.010  59.603  1.00  0.00    -0.378 N 
HETATM   25  C   UNL     1       6.647  32.309  59.662  1.00  0.00     0.143 C 
HETATM   26  C   UNL     1       6.164  32.603  61.092  1.00  0.00     0.145 C 
HETATM   27  N   UNL     1       7.230  32.529  62.092  1.00  0.00    -0.349 N 
HETATM   28  C   UNL     1       7.146  33.108  63.353  1.00  0.00     0.219 C 
HETATM   29  C   UNL     1       8.095  31.349  61.974  1.00  0.00     0.145 C 
HETATM   30  O   UNL     1       7.969  32.860  64.237  1.00  0.00    -0.273 OA
HETATM   31  C   UNL     1       8.514  30.985  60.535  1.00  0.00     0.143 C 
BRANCH  28  32
HETATM   32  C   UNL     1       6.022  34.090  63.649  1.00  0.00     0.103 C 
BRANCH  32  33
HETATM   33  C   UNL     1       5.004  33.535  64.642  1.00  0.00     0.005 C 
HETATM   34  C   UNL     1       5.217  34.023  66.066  1.00  0.00     0.005 C 
ENDBRANCH  32  33
ENDBRANCH  28  32
ENDBRANCH   1  24
TORSDOF 8
ENDMDL
MODEL 2
REMARK VINA RESULT:      -9.5      2.665      3.949
REMARK  8 active torsions:
REMARK  status: ('A' for Active; 'I' for Inactive)
REMARK    1  A    between atoms: C_2  and  C_3 
REMARK    2  A    between atoms: C_3  and  C_4 
REMARK       I    between atoms: C_4  and  N_5 
REMARK    3  A    between atoms: N_8  and  C_9 
REMARK    4  A    between atoms: C_12  and  N_13 
REMARK    5  A    between atoms: N_13  and  C_14 
REMARK    6  A    between atoms: C_14  and  N_15 
REMARK       I    between atoms: N_15  and  C_16 
REMARK    7  A    between atoms: C_16  and  C_17 
REMARK    8  A    between atoms: C_21  and  O_22 
ROOT
HETATM    1  C   UNL     1       7.073  32.042  61.473  1.00  0.00     0.030 A 
HETATM    2  C   UNL     1       8.221  31.242  61.350  1.00  0.00     0.031 A 
HETATM    3  C   UNL     1       8.603  30.643  60.140  1.00  0.00     0.032 A 
HETATM    4  C   UNL     1       7.868  30.851  58.981  1.00  0.00     0.034 A 
HETATM    5  C   UNL     1       6.779  31.717  59.047  1.00  0.00     0.032 A 
HETATM    6  C   UNL     1       6.383  32.285  60.274  1.00  0.00     0.031 A 
ENDROOT
BRANCH   4   7
HETATM    7  N   UNL     1       8.214  30.299  57.730  1.00  0.00    -0.333 N 
HETATM    8  H   UNL     1       7.540  30.452  56.979  1.00  0.00     0.168 HD
BRANCH   7   9
HETATM    9  C   UNL     1       9.276  29.500  57.382  1.00  0.00     0.179 C 
HETATM   10  S   UNL     1      10.894  29.905  57.222  1.00  0.00    -0.040 SA
BRANCH   9  11
HETATM   11  N   UNL     1       8.979  28.167  57.169  1.00  0.00    -0.299 N 
HETATM   12  C   UNL     1       7.746  27.533  57.110  1.00  0.00     0.257 C 
HETATM   13  O   UNL     1       6.671  28.070  57.345  1.00  0.00    -0.267 OA
HETATM   14  H   UNL     1       9.801  27.630  56.929  1.00  0.00     0.171 HD
BRANCH  12  15
HETATM   15  C   UNL     1       7.806  26.102  56.715  1.00  0.00     0.034 A 
HETATM   16  C   UNL     1       7.205  25.709  55.518  1.00  0.00     0.044 A 
HETATM   17  C   UNL     1       7.303  24.379  55.101  1.00  0.00     0.068 A 
HETATM   18 CL   UNL     1       6.574  23.954  53.591  1.00  0.00    -0.081 Cl
HETATM   19  C   UNL     1       7.984  23.424  55.876  1.00  0.00     0.089 A 
HETATM   20  C   UNL     1       8.554  23.825  57.090  1.00  0.00     0.039 A 
HETATM   21  C   UNL     1       8.465  25.157  57.510  1.00  0.00     0.020 A 
BRANCH  19  22
HETATM   22  O   UNL     1       8.040  22.148  55.381  1.00  0.00    -0.354 OA
HETATM   23  C   UNL     1       9.254  21.721  54.776  1.00  0.00     0.210 C 
ENDBRANCH  19  22
ENDBRANCH  12  15
ENDBRANCH   9  11
ENDBRANCH   7   9
ENDBRANCH   4   7
BRANCH   1  24
HETATM   24  N   UNL     1       6.717  32.620  62.704  1.00  0.00    -0.378 N 
HETATM   25  C   UNL     1       7.736  32.585  63.781  1.00  0.00     0.143 C 
HETATM   26  C   UNL     1       7.419  33.626  64.869  1.00  0.00     0.145 C 
HETATM   27  N   UNL     1       6.064  33.507  65.407  1.00  0.00    -0.349 N 
HETATM   28  C   UNL     1       5.667  34.050  66.624  1.00  0.00     0.219 C 
HETATM   29  C   UNL     1       5.016  33.353  64.392  1.00  0.00     0.145 C 
HETATM   30  O   UNL     1       4.480  34.108  66.953  1.00  0.00    -0.273 OA
HETATM   31  C   UNL     1       5.356  32.381  63.242  1.00  0.00     0.143 C 
BRANCH  28  32
HETATM   32  C   UNL     1       6.724  34.574  67.586  1.00  0.00     0.103 C 
BRANCH  32  33
HETATM   33  C   UNL     1       6.357  34.336  69.048  1.00  0.00     0.005 C 
HETATM   34  C   UNL     1       6.983  35.339  70.003  1.00  0.00     0.005 C 
ENDBRANCH  32  33
ENDBRANCH  28  32
ENDBRANCH   1  24
TORSDOF 8
ENDMDL
MODEL 3
REMARK VINA RESULT:      -9.3      1.953      2.982
REMARK  8 active torsions:
REMARK  status: ('A' for Active; 'I' for Inactive)
REMARK    1  A    between atoms: C_2  and  C_3 
REMARK    2  A    between atoms: C_3  and  C_4 
REMARK       I    between atoms: C_4  and  N_5 
REMARK    3  A    between atoms: N_8  and  C_9 
REMARK    4  A    between atoms: C_12  and  N_13 
REMARK    5  A    between atoms: N_13  and  C_14 
REMARK    6  A    between atoms: C_14  and  N_15 
REMARK       I    between atoms: N_15  and  C_16 
REMARK    7  A    between atoms: C_16  and  C_17 
REMARK    8  A    between atoms: C_21  and  O_22 
ROOT
HETATM    1  C   UNL     1       5.339  29.484  56.181  1.00  0.00     0.030 A 
HETATM    2  C   UNL     1       4.768  29.975  54.995  1.00  0.00     0.031 A 
HETATM    3  C   UNL     1       4.398  29.141  53.929  1.00  0.00     0.032 A 
HETATM    4  C   UNL     1       4.549  27.764  54.017  1.00  0.00     0.034 A 
HETATM    5  C   UNL     1       5.023  27.238  55.216  1.00  0.00     0.032 A 
HETATM    6  C   UNL     1       5.425  28.085  56.268  1.00  0.00     0.031 A 
ENDROOT
BRANCH   4   7
HETATM    7  N   UNL     1       4.173  26.872  52.992  1.00  0.00    -0.333 N 
HETATM    8  H   UNL     1       3.182  26.629  52.960  1.00  0.00     0.168 HD
BRANCH   7   9
HETATM    9  C   UNL     1       4.950  26.198  52.081  1.00  0.00     0.179 C 
HETATM   10  S   UNL     1       5.061  26.415  50.424  1.00  0.00    -0.040 SA
BRANCH   9  11
HETATM   11  N   UNL     1       5.784  25.229  52.606  1.00  0.00    -0.299 N 
HETATM   12  C   UNL     1       7.120  25.312  52.969  1.00  0.00     0.257 C 
HETATM   13  O   UNL     1       7.836  26.288  52.782  1.00  0.00    -0.267 OA
HETATM   14  H   UNL     1       5.281  24.381  52.834  1.00  0.00     0.171 HD
BRANCH  12  15
HETATM   15  C   UNL     1       7.655  24.100  53.641  1.00  0.00     0.034 A 
HETATM   16  C   UNL     1       7.739  22.911  52.915  1.00  0.00     0.044 A 
HETATM   17  C   UNL     1       8.295  21.776  53.512  1.00  0.00     0.068 A 
HETATM   18 CL   UNL     1       8.411  20.339  52.556  1.00  0.00    -0.081 Cl
HETATM   19  C   UNL     1       8.757  21.807  54.840  1.00  0.00     0.089 A 
HETATM   20  C   UNL     1       8.636  22.998  55.566  1.00  0.00     0.039 A 
HETATM   21  C   UNL     1       8.087  24.139  54.972  1.00  0.00     0.020 A 
BRANCH  19  22
HETATM   22  O   UNL     1       9.299  20.651  55.337  1.00  0.00    -0.354 OA
HETATM   23  C   UNL     1       8.984  20.290  56.675  1.00  0.00     0.210 C 
ENDBRANCH  19  22
ENDBRANCH  12  15
ENDBRANCH   9  11
ENDBRANCH   7   9
ENDBRANCH   4   7
BRANCH   1  24
HETATM   24  N   UNL     1       5.704  30.350  57.225  1.00  0.00    -0.378 N 
HETATM   25  C   UNL     1       6.869  29.950  58.052  1.00  0.00     0.143 C 
HETATM   26  C   UNL     1       7.438  31.158  58.816  1.00  0.00     0.145 C 
HETATM   27  N   UNL     1       6.435  31.867  59.610  1.00  0.00    -0.349 N 
HETATM   28  C   UNL     1       6.746  32.724  60.659  1.00  0.00     0.219 C 
HETATM   29  C   UNL     1       5.177  32.135  58.903  1.00  0.00     0.145 C 
HETATM   30  O   UNL     1       5.897  33.457  61.173  1.00  0.00    -0.273 OA
HETATM   31  C   UNL     1       4.640  30.963  58.056  1.00  0.00     0.143 C 
BRANCH  28  32
HETATM   32  C   UNL     1       8.167  32.750  61.204  1.00  0.00     0.103 C 
BRANCH  32  33
HETATM   33  C   UNL     1       8.307  31.986  62.518  1.00  0.00     0.005 C 
HETATM   34  C   UNL     1       7.924  32.804  63.740  1.00  0.00     0.005 C 
ENDBRANCH  32  33
ENDBRANCH  28  32
ENDBRANCH   1  24
TORSDOF 8
ENDMDL
MODEL 4
REMARK VINA RESULT:      -9.3      4.204     11.939
REMARK  8 active torsions:
REMARK  status: ('A' for Active; 'I' for Inactive)
REMARK    1  A    between atoms: C_2  and  C_3 
REMARK    2  A    between atoms: C_3  and  C_4 
REMARK       I    between atoms: C_4  and  N_5 
REMARK    3  A    between atoms: N_8  and  C_9 
REMARK    4  A    between atoms: C_12  and  N_13 
REMARK    5  A    between atoms: N_13  and  C_14 
REMARK    6  A    between atoms: C_14  and  N_15 
REMARK       I    between atoms: N_15  and  C_16 
REMARK    7  A    between atoms: C_16  and  C_17 
REMARK    8  A    between atoms: C_21  and  O_22 
ROOT
HETATM    1  C   UNL     1       7.385  28.200  57.375  1.00  0.00     0.030 A 
HETATM    2  C   UNL     1       6.146  28.841  57.211  1.00  0.00     0.031 A 
HETATM    3  C   UNL     1       5.875  30.115  57.734  1.00  0.00     0.032 A 
HETATM    4  C   UNL     1       6.852  30.825  58.417  1.00  0.00     0.034 A 
HETATM    5  C   UNL     1       8.120  30.258  58.515  1.00  0.00     0.032 A 
HETATM    6  C   UNL     1       8.373  28.964  58.017  1.00  0.00     0.031 A 
ENDROOT
BRANCH   4   7
HETATM    7  N   UNL     1       6.650  32.118  58.944  1.00  0.00    -0.333 N 
HETATM    8  H   UNL     1       7.481  32.708  58.993  1.00  0.00     0.168 HD
BRANCH   7   9
HETATM    9  C   UNL     1       5.523  32.680  59.493  1.00  0.00     0.179 C 
HETATM   10  S   UNL     1       4.075  33.078  58.753  1.00  0.00    -0.040 SA
BRANCH   9  11
HETATM   11  N   UNL     1       5.575  32.918  60.853  1.00  0.00    -0.299 N 
HETATM   12  C   UNL     1       6.452  32.422  61.807  1.00  0.00     0.257 C 
HETATM   13  O   UNL     1       7.308  31.572  61.595  1.00  0.00    -0.267 OA
HETATM   14  H   UNL     1       4.925  33.640  61.136  1.00  0.00     0.171 HD
BRANCH  12  15
HETATM   15  C   UNL     1       6.295  33.017  63.159  1.00  0.00     0.034 A 
HETATM   16  C   UNL     1       5.049  33.523  63.532  1.00  0.00     0.044 A 
HETATM   17  C   UNL     1       4.868  34.032  64.821  1.00  0.00     0.068 A 
HETATM   18 CL   UNL     1       3.294  34.611  65.244  1.00  0.00    -0.081 Cl
HETATM   19  C   UNL     1       5.927  34.057  65.746  1.00  0.00     0.089 A 
HETATM   20  C   UNL     1       7.180  33.576  65.348  1.00  0.00     0.039 A 
HETATM   21  C   UNL     1       7.365  33.060  64.061  1.00  0.00     0.020 A 
BRANCH  19  22
HETATM   22  O   UNL     1       5.653  34.562  66.990  1.00  0.00    -0.354 OA
HETATM   23  C   UNL     1       6.634  34.397  68.006  1.00  0.00     0.210 C 
ENDBRANCH  19  22
ENDBRANCH  12  15
ENDBRANCH   9  11
ENDBRANCH   7   9
ENDBRANCH   4   7
BRANCH   1  24
HETATM   24  N   UNL     1       7.618  26.920  56.844  1.00  0.00    -0.378 N 
HETATM   25  C   UNL     1       6.744  26.489  55.725  1.00  0.00     0.143 C 
HETATM   26  C   UNL     1       7.382  25.323  54.950  1.00  0.00     0.145 C 
HETATM   27  N   UNL     1       7.757  24.195  55.804  1.00  0.00    -0.349 N 
HETATM   28  C   UNL     1       7.987  22.910  55.328  1.00  0.00     0.219 C 
HETATM   29  C   UNL     1       8.470  24.571  57.031  1.00  0.00     0.145 C 
HETATM   30  O   UNL     1       8.494  22.036  56.035  1.00  0.00    -0.273 OA
HETATM   31  C   UNL     1       7.898  25.797  57.771  1.00  0.00     0.143 C 
BRANCH  28  32
HETATM   32  C   UNL     1       7.587  22.562  53.901  1.00  0.00     0.103 C 
BRANCH  32  33
HETATM   33  C   UNL     1       8.665  21.772  53.165  1.00  0.00     0.005 C 
HETATM   34  C   UNL     1       8.273  20.332  52.875  1.00  0.00     0.005 C 
ENDBRANCH  32  33
ENDBRANCH  28  32
ENDBRANCH   1  24
TORSDOF 8
ENDMDL
MODEL 5
REMARK VINA RESULT:      -9.1      3.947     11.990
REMARK  8 active torsions:
REMARK  status: ('A' for Active; 'I' for Inactive)
REMARK    1  A    between atoms: C_2  and  C_3 
REMARK    2  A    between atoms: C_3  and  C_4 
REMARK       I    between atoms: C_4  and  N_5 
REMARK    3  A    between atoms: N_8  and  C_9 
REMARK    4  A    between atoms: C_12  and  N_13 
REMARK    5  A    between atoms: N_13  and  C_14 
REMARK    6  A    between atoms: C_14  and  N_15 
REMARK       I    between atoms: N_15  and  C_16 
REMARK    7  A    between atoms: C_16  and  C_17 
REMARK    8  A    between atoms: C_21  and  O_22 
ROOT
HETATM    1  C   UNL     1       7.001  27.326  56.602  1.00  0.00     0.030 A 
HETATM    2  C   UNL     1       8.056  27.750  57.426  1.00  0.00     0.031 A 
HETATM    3  C   UNL     1       8.018  28.951  58.151  1.00  0.00     0.032 A 
HETATM    4  C   UNL     1       6.898  29.769  58.112  1.00  0.00     0.034 A 
HETATM    5  C   UNL     1       5.797  29.331  57.380  1.00  0.00     0.032 A 
HETATM    6  C   UNL     1       5.858  28.141  56.628  1.00  0.00     0.031 A 
ENDROOT
BRANCH   4   7
HETATM    7  N   UNL     1       6.788  30.974  58.837  1.00  0.00    -0.333 N 
HETATM    8  H   UNL     1       5.920  31.493  58.700  1.00  0.00     0.168 HD
BRANCH   7   9
HETATM    9  C   UNL     1       7.710  31.613  59.629  1.00  0.00     0.179 C 
HETATM   10  S   UNL     1       9.329  31.922  59.326  1.00  0.00    -0.040 SA
BRANCH   9  11
HETATM   11  N   UNL     1       7.231  32.103  60.829  1.00  0.00    -0.299 N 
HETATM   12  C   UNL     1       7.537  31.723  62.128  1.00  0.00     0.257 C 
HETATM   13  O   UNL     1       8.251  30.774  62.428  1.00  0.00    -0.267 OA
HETATM   14  H   UNL     1       6.651  32.922  60.699  1.00  0.00     0.171 HD
BRANCH  12  15
HETATM   15  C   UNL     1       6.934  32.578  63.181  1.00  0.00     0.034 A 
HETATM   16  C   UNL     1       5.607  32.986  63.038  1.00  0.00     0.044 A 
HETATM   17  C   UNL     1       5.005  33.741  64.049  1.00  0.00     0.068 A 
HETATM   18 CL   UNL     1       3.347  34.188  63.840  1.00  0.00    -0.081 Cl
HETATM   19  C   UNL     1       5.720  34.112  65.202  1.00  0.00     0.089 A 
HETATM   20  C   UNL     1       7.060  33.723  65.317  1.00  0.00     0.039 A 
HETATM   21  C   UNL     1       7.666  32.961  64.312  1.00  0.00     0.020 A 
BRANCH  19  22
HETATM   22  O   UNL     1       5.044  34.840  66.145  1.00  0.00    -0.354 OA
HETATM   23  C   UNL     1       5.410  34.669  67.507  1.00  0.00     0.210 C 
ENDBRANCH  19  22
ENDBRANCH  12  15
ENDBRANCH   9  11
ENDBRANCH   7   9
ENDBRANCH   4   7
BRANCH   1  24
HETATM   24  N   UNL     1       7.078  26.119  55.885  1.00  0.00    -0.378 N 
HETATM   25  C   UNL     1       7.571  24.931  56.622  1.00  0.00     0.143 C 
HETATM   26  C   UNL     1       7.170  23.633  55.899  1.00  0.00     0.145 C 
HETATM   27  N   UNL     1       7.579  23.602  54.494  1.00  0.00    -0.349 N 
HETATM   28  C   UNL     1       7.681  22.434  53.747  1.00  0.00     0.219 C 
HETATM   29  C   UNL     1       7.283  24.829  53.746  1.00  0.00     0.145 C 
HETATM   30  O   UNL     1       7.830  22.458  52.522  1.00  0.00    -0.273 OA
HETATM   31  C   UNL     1       7.593  26.143  54.494  1.00  0.00     0.143 C 
BRANCH  28  32
HETATM   32  C   UNL     1       7.625  21.089  54.455  1.00  0.00     0.103 C 
BRANCH  32  33
HETATM   33  C   UNL     1       9.006  20.577  54.855  1.00  0.00     0.005 C 
HETATM   34  C   UNL     1       9.173  20.381  56.353  1.00  0.00     0.005 C 
ENDBRANCH  32  33
ENDBRANCH  28  32
ENDBRANCH   1  24
TORSDOF 8
ENDMDL
MODEL 6
REMARK VINA RESULT:      -8.9      5.090     11.938
REMARK  8 active torsions:
REMARK  status: ('A' for Active; 'I' for Inactive)
REMARK    1  A    between atoms: C_2  and  C_3 
REMARK    2  A    between atoms: C_3  and  C_4 
REMARK       I    between atoms: C_4  and  N_5 
REMARK    3  A    between atoms: N_8  and  C_9 
REMARK    4  A    between atoms: C_12  and  N_13 
REMARK    5  A    between atoms: N_13  and  C_14 
REMARK    6  A    between atoms: C_14  and  N_15 
REMARK       I    between atoms: N_15  and  C_16 
REMARK    7  A    between atoms: C_16  and  C_17 
REMARK    8  A    between atoms: C_21  and  O_22 
ROOT
HETATM    1  C   UNL     1       5.854  28.512  54.861  1.00  0.00     0.030 A 
HETATM    2  C   UNL     1       7.227  28.327  55.089  1.00  0.00     0.031 A 
HETATM    3  C   UNL     1       7.829  28.568  56.334  1.00  0.00     0.032 A 
HETATM    4  C   UNL     1       7.071  28.972  57.424  1.00  0.00     0.034 A 
HETATM    5  C   UNL     1       5.692  29.073  57.256  1.00  0.00     0.032 A 
HETATM    6  C   UNL     1       5.102  28.863  55.994  1.00  0.00     0.031 A 
ENDROOT
BRANCH   4   7
HETATM    7  N   UNL     1       7.612  29.205  58.705  1.00  0.00    -0.333 N 
HETATM    8  H   UNL     1       7.428  28.481  59.400  1.00  0.00     0.168 HD
BRANCH   7   9
HETATM    9  C   UNL     1       8.272  30.305  59.197  1.00  0.00     0.179 C 
HETATM   10  S   UNL     1       9.654  31.053  58.617  1.00  0.00    -0.040 SA
BRANCH   9  11
HETATM   11  N   UNL     1       7.698  30.903  60.302  1.00  0.00    -0.299 N 
HETATM   12  C   UNL     1       8.231  31.134  61.562  1.00  0.00     0.257 C 
HETATM   13  O   UNL     1       9.325  30.736  61.941  1.00  0.00    -0.267 OA
HETATM   14  H   UNL     1       6.794  31.303  60.089  1.00  0.00     0.171 HD
BRANCH  12  15
HETATM   15  C   UNL     1       7.366  31.940  62.461  1.00  0.00     0.034 A 
HETATM   16  C   UNL     1       6.033  32.149  62.104  1.00  0.00     0.044 A 
HETATM   17  C   UNL     1       5.189  32.853  62.967  1.00  0.00     0.068 A 
HETATM   18 CL   UNL     1       3.537  33.049  62.494  1.00  0.00    -0.081 Cl
HETATM   19  C   UNL     1       5.666  33.372  64.184  1.00  0.00     0.089 A 
HETATM   20  C   UNL     1       7.013  33.183  64.514  1.00  0.00     0.039 A 
HETATM   21  C   UNL     1       7.861  32.473  63.658  1.00  0.00     0.020 A 
BRANCH  19  22
HETATM   22  O   UNL     1       4.763  34.037  64.972  1.00  0.00    -0.354 OA
HETATM   23  C   UNL     1       4.930  33.965  66.381  1.00  0.00     0.210 C 
ENDBRANCH  19  22
ENDBRANCH  12  15
ENDBRANCH   9  11
ENDBRANCH   7   9
ENDBRANCH   4   7
BRANCH   1  24
HETATM   24  N   UNL     1       5.287  28.268  53.598  1.00  0.00    -0.378 N 
HETATM   25  C   UNL     1       6.174  27.675  52.568  1.00  0.00     0.143 C 
HETATM   26  C   UNL     1       5.349  27.040  51.435  1.00  0.00     0.145 C 
HETATM   27  N   UNL     1       4.376  27.957  50.842  1.00  0.00    -0.349 N 
HETATM   28  C   UNL     1       3.796  27.765  49.593  1.00  0.00     0.219 C 
HETATM   29  C   UNL     1       3.584  28.718  51.816  1.00  0.00     0.145 C 
HETATM   30  O   UNL     1       2.838  28.441  49.211  1.00  0.00    -0.273 OA
HETATM   31  C   UNL     1       4.382  29.284  53.009  1.00  0.00     0.143 C 
BRANCH  28  32
HETATM   32  C   UNL     1       4.368  26.706  48.662  1.00  0.00     0.103 C 
BRANCH  32  33
HETATM   33  C   UNL     1       3.368  25.595  48.351  1.00  0.00     0.005 C 
HETATM   34  C   UNL     1       2.761  25.695  46.961  1.00  0.00     0.005 C 
ENDBRANCH  32  33
ENDBRANCH  28  32
ENDBRANCH   1  24
TORSDOF 8
ENDMDL
MODEL 7
REMARK VINA RESULT:      -8.4      4.156     11.653
REMARK  8 active torsions:
REMARK  status: ('A' for Active; 'I' for Inactive)
REMARK    1  A    between atoms: C_2  and  C_3 
REMARK    2  A    between atoms: C_3  and  C_4 
REMARK       I    between atoms: C_4  and  N_5 
REMARK    3  A    between atoms: N_8  and  C_9 
REMARK    4  A    between atoms: C_12  and  N_13 
REMARK    5  A    between atoms: N_13  and  C_14 
REMARK    6  A    between atoms: C_14  and  N_15 
REMARK       I    between atoms: N_15  and  C_16 
REMARK    7  A    between atoms: C_16  and  C_17 
REMARK    8  A    between atoms: C_21  and  O_22 
ROOT
HETATM    1  C   UNL     1       5.720  28.724  56.723  1.00  0.00     0.030 A 
HETATM    2  C   UNL     1       4.388  28.948  56.338  1.00  0.00     0.031 A 
HETATM    3  C   UNL     1       3.665  30.086  56.730  1.00  0.00     0.032 A 
HETATM    4  C   UNL     1       4.260  31.076  57.499  1.00  0.00     0.034 A 
HETATM    5  C   UNL     1       5.608  30.930  57.817  1.00  0.00     0.032 A 
HETATM    6  C   UNL     1       6.315  29.768  57.450  1.00  0.00     0.031 A 
ENDROOT
BRANCH   4   7
HETATM    7  N   UNL     1       3.596  32.253  57.903  1.00  0.00    -0.333 N 
HETATM    8  H   UNL     1       2.579  32.237  57.817  1.00  0.00     0.168 HD
BRANCH   7   9
HETATM    9  C   UNL     1       4.110  33.461  58.308  1.00  0.00     0.179 C 
HETATM   10  S   UNL     1       4.565  34.778  57.379  1.00  0.00    -0.040 SA
BRANCH   9  11
HETATM   11  N   UNL     1       4.238  33.630  59.673  1.00  0.00    -0.299 N 
HETATM   12  C   UNL     1       3.269  33.593  60.666  1.00  0.00     0.257 C 
HETATM   13  O   UNL     1       2.066  33.492  60.464  1.00  0.00    -0.267 OA
HETATM   14  H   UNL     1       5.207  33.689  59.957  1.00  0.00     0.171 HD
BRANCH  12  15
HETATM   15  C   UNL     1       3.800  33.672  62.051  1.00  0.00     0.034 A 
HETATM   16  C   UNL     1       5.093  33.213  62.303  1.00  0.00     0.044 A 
HETATM   17  C   UNL     1       5.631  33.335  63.588  1.00  0.00     0.068 A 
HETATM   18 CL   UNL     1       7.252  32.785  63.837  1.00  0.00    -0.081 Cl
HETATM   19  C   UNL     1       4.883  33.899  64.637  1.00  0.00     0.089 A 
HETATM   20  C   UNL     1       3.575  34.325  64.377  1.00  0.00     0.039 A 
HETATM   21  C   UNL     1       3.034  34.212  63.091  1.00  0.00     0.020 A 
BRANCH  19  22
HETATM   22  O   UNL     1       5.496  33.989  65.858  1.00  0.00    -0.354 OA
HETATM   23  C   UNL     1       4.671  34.100  67.011  1.00  0.00     0.210 C 
ENDBRANCH  19  22
ENDBRANCH  12  15
ENDBRANCH   9  11
ENDBRANCH   7   9
ENDBRANCH   4   7
BRANCH   1  24
HETATM   24  N   UNL     1       6.410  27.569  56.318  1.00  0.00    -0.378 N 
HETATM   25  C   UNL     1       5.740  26.704  55.316  1.00  0.00     0.143 C 
HETATM   26  C   UNL     1       6.755  25.775  54.629  1.00  0.00     0.145 C 
HETATM   27  N   UNL     1       7.551  24.988  55.572  1.00  0.00    -0.349 N 
HETATM   28  C   UNL     1       8.242  23.833  55.222  1.00  0.00     0.219 C 
HETATM   29  C   UNL     1       8.096  25.755  56.697  1.00  0.00     0.145 C 
HETATM   30  O   UNL     1       9.060  23.310  55.982  1.00  0.00    -0.273 OA
HETATM   31  C   UNL     1       7.118  26.760  57.340  1.00  0.00     0.143 C 
BRANCH  28  32
HETATM   32  C   UNL     1       7.971  23.184  53.872  1.00  0.00     0.103 C 
BRANCH  32  33
HETATM   33  C   UNL     1       8.858  21.969  53.616  1.00  0.00     0.005 C 
HETATM   34  C   UNL     1       8.103  20.768  53.069  1.00  0.00     0.005 C 
ENDBRANCH  32  33
ENDBRANCH  28  32
ENDBRANCH   1  24
TORSDOF 8
ENDMDL
MODEL 8
REMARK VINA RESULT:      -8.3      3.877     11.270
REMARK  8 active torsions:
REMARK  status: ('A' for Active; 'I' for Inactive)
REMARK    1  A    between atoms: C_2  and  C_3 
REMARK    2  A    between atoms: C_3  and  C_4 
REMARK       I    between atoms: C_4  and  N_5 
REMARK    3  A    between atoms: N_8  and  C_9 
REMARK    4  A    between atoms: C_12  and  N_13 
REMARK    5  A    between atoms: N_13  and  C_14 
REMARK    6  A    between atoms: C_14  and  N_15 
REMARK       I    between atoms: N_15  and  C_16 
REMARK    7  A    between atoms: C_16  and  C_17 
REMARK    8  A    between atoms: C_21  and  O_22 
ROOT
HETATM    1  C   UNL     1       5.582  27.399  55.709  1.00  0.00     0.030 A 
HETATM    2  C   UNL     1       5.765  27.952  56.986  1.00  0.00     0.031 A 
HETATM    3  C   UNL     1       5.196  29.175  57.373  1.00  0.00     0.032 A 
HETATM    4  C   UNL     1       4.380  29.886  56.505  1.00  0.00     0.034 A 
HETATM    5  C   UNL     1       4.100  29.318  55.264  1.00  0.00     0.032 A 
HETATM    6  C   UNL     1       4.705  28.108  54.871  1.00  0.00     0.031 A 
ENDROOT
BRANCH   4   7
HETATM    7  N   UNL     1       3.759  31.106  56.843  1.00  0.00    -0.333 N 
HETATM    8  H   UNL     1       2.740  31.115  56.777  1.00  0.00     0.168 HD
BRANCH   7   9
HETATM    9  C   UNL     1       4.316  32.322  57.157  1.00  0.00     0.179 C 
HETATM   10  S   UNL     1       4.685  33.606  56.147  1.00  0.00    -0.040 SA
BRANCH   9  11
HETATM   11  N   UNL     1       4.576  32.532  58.497  1.00  0.00    -0.299 N 
HETATM   12  C   UNL     1       5.786  32.531  59.176  1.00  0.00     0.257 C 
HETATM   13  O   UNL     1       6.865  32.233  58.680  1.00  0.00    -0.267 OA
HETATM   14  H   UNL     1       3.749  32.822  59.002  1.00  0.00     0.171 HD
BRANCH  12  15
HETATM   15  C   UNL     1       5.697  32.944  60.600  1.00  0.00     0.034 A 
HETATM   16  C   UNL     1       6.784  32.701  61.441  1.00  0.00     0.044 A 
HETATM   17  C   UNL     1       6.741  33.136  62.768  1.00  0.00     0.068 A 
HETATM   18 CL   UNL     1       8.131  32.845  63.756  1.00  0.00    -0.081 Cl
HETATM   19  C   UNL     1       5.611  33.802  63.277  1.00  0.00     0.089 A 
HETATM   20  C   UNL     1       4.515  34.010  62.431  1.00  0.00     0.039 A 
HETATM   21  C   UNL     1       4.556  33.582  61.100  1.00  0.00     0.020 A 
BRANCH  19  22
HETATM   22  O   UNL     1       5.665  34.204  64.586  1.00  0.00    -0.354 OA
HETATM   23  C   UNL     1       4.614  33.795  65.451  1.00  0.00     0.210 C 
ENDBRANCH  19  22
ENDBRANCH  12  15
ENDBRANCH   9  11
ENDBRANCH   7   9
ENDBRANCH   4   7
BRANCH   1  24
HETATM   24  N   UNL     1       6.175  26.175  55.353  1.00  0.00    -0.378 N 
HETATM   25  C   UNL     1       7.575  25.956  55.791  1.00  0.00     0.143 C 
HETATM   26  C   UNL     1       7.930  24.459  55.760  1.00  0.00     0.145 C 
HETATM   27  N   UNL     1       7.666  23.827  54.467  1.00  0.00    -0.349 N 
HETATM   28  C   UNL     1       8.236  22.624  54.066  1.00  0.00     0.219 C 
HETATM   29  C   UNL     1       6.358  24.152  53.886  1.00  0.00     0.145 C 
HETATM   30  O   UNL     1       7.842  22.020  53.066  1.00  0.00    -0.273 OA
HETATM   31  C   UNL     1       5.945  25.635  53.991  1.00  0.00     0.143 C 
BRANCH  28  32
HETATM   32  C   UNL     1       9.389  22.042  54.870  1.00  0.00     0.103 C 
BRANCH  32  33
HETATM   33  C   UNL     1       8.918  21.144  56.010  1.00  0.00     0.005 C 
HETATM   34  C   UNL     1       7.521  20.580  55.802  1.00  0.00     0.005 C 
ENDBRANCH  32  33
ENDBRANCH  28  32
ENDBRANCH   1  24
TORSDOF 8
ENDMDL
MODEL 9
REMARK VINA RESULT:      -8.2      4.246     10.639
REMARK  8 active torsions:
REMARK  status: ('A' for Active; 'I' for Inactive)
REMARK    1  A    between atoms: C_2  and  C_3 
REMARK    2  A    between atoms: C_3  and  C_4 
REMARK       I    between atoms: C_4  and  N_5 
REMARK    3  A    between atoms: N_8  and  C_9 
REMARK    4  A    between atoms: C_12  and  N_13 
REMARK    5  A    between atoms: N_13  and  C_14 
REMARK    6  A    between atoms: C_14  and  N_15 
REMARK       I    between atoms: N_15  and  C_16 
REMARK    7  A    between atoms: C_16  and  C_17 
REMARK    8  A    between atoms: C_21  and  O_22 
ROOT
HETATM    1  C   UNL     1       4.914  28.109  55.160  1.00  0.00     0.030 A 
HETATM    2  C   UNL     1       4.318  28.483  56.375  1.00  0.00     0.031 A 
HETATM    3  C   UNL     1       3.627  29.693  56.541  1.00  0.00     0.032 A 
HETATM    4  C   UNL     1       3.468  30.572  55.479  1.00  0.00     0.034 A 
HETATM    5  C   UNL     1       3.965  30.188  54.236  1.00  0.00     0.032 A 
HETATM    6  C   UNL     1       4.687  28.988  54.088  1.00  0.00     0.031 A 
ENDROOT
BRANCH   4   7
HETATM    7  N   UNL     1       2.764  31.791  55.575  1.00  0.00    -0.333 N 
HETATM    8  H   UNL     1       1.915  31.854  55.013  1.00  0.00     0.168 HD
BRANCH   7   9
HETATM    9  C   UNL     1       3.091  32.949  56.238  1.00  0.00     0.179 C 
HETATM   10  S   UNL     1       2.383  34.462  56.130  1.00  0.00    -0.040 SA
BRANCH   9  11
HETATM   11  N   UNL     1       4.127  32.846  57.147  1.00  0.00    -0.299 N 
HETATM   12  C   UNL     1       4.085  32.637  58.518  1.00  0.00     0.257 C 
HETATM   13  O   UNL     1       3.061  32.603  59.189  1.00  0.00    -0.267 OA
HETATM   14  H   UNL     1       5.030  32.828  56.691  1.00  0.00     0.171 HD
BRANCH  12  15
HETATM   15  C   UNL     1       5.412  32.434  59.153  1.00  0.00     0.034 A 
HETATM   16  C   UNL     1       5.637  32.962  60.425  1.00  0.00     0.044 A 
HETATM   17  C   UNL     1       6.858  32.729  61.063  1.00  0.00     0.068 A 
HETATM   18 CL   UNL     1       7.071  33.373  62.655  1.00  0.00    -0.081 Cl
HETATM   19  C   UNL     1       7.874  31.984  60.436  1.00  0.00     0.089 A 
HETATM   20  C   UNL     1       7.646  31.489  59.147  1.00  0.00     0.039 A 
HETATM   21  C   UNL     1       6.423  31.713  58.507  1.00  0.00     0.020 A 
BRANCH  19  22
HETATM   22  O   UNL     1       9.032  31.796  61.143  1.00  0.00    -0.354 OA
HETATM   23  C   UNL     1       9.234  30.535  61.766  1.00  0.00     0.210 C 
ENDBRANCH  19  22
ENDBRANCH  12  15
ENDBRANCH   9  11
ENDBRANCH   7   9
ENDBRANCH   4   7
BRANCH   1  24
HETATM   24  N   UNL     1       5.605  26.892  55.032  1.00  0.00    -0.378 N 
HETATM   25  C   UNL     1       5.607  26.259  53.691  1.00  0.00     0.143 C 
HETATM   26  C   UNL     1       6.746  25.231  53.572  1.00  0.00     0.145 C 
HETATM   27  N   UNL     1       6.736  24.229  54.639  1.00  0.00    -0.349 N 
HETATM   28  C   UNL     1       7.394  23.008  54.556  1.00  0.00     0.219 C 
HETATM   29  C   UNL     1       6.552  24.778  55.988  1.00  0.00     0.145 C 
HETATM   30  O   UNL     1       7.536  22.277  55.539  1.00  0.00    -0.273 OA
HETATM   31  C   UNL     1       5.477  25.877  56.106  1.00  0.00     0.143 C 
BRANCH  28  32
HETATM   32  C   UNL     1       7.941  22.546  53.212  1.00  0.00     0.103 C 
BRANCH  32  33
HETATM   33  C   UNL     1       7.685  21.065  52.951  1.00  0.00     0.005 C 
HETATM   34  C   UNL     1       8.905  20.187  53.177  1.00  0.00     0.005 C 
ENDBRANCH  32  33
ENDBRANCH  28  32
ENDBRANCH   1  24
TORSDOF 8
ENDMDL
MODEL 10
REMARK VINA RESULT:      -8.2      2.537      3.255
REMARK  8 active torsions:
REMARK  status: ('A' for Active; 'I' for Inactive)
REMARK    1  A    between atoms: C_2  and  C_3 
REMARK    2  A    between atoms: C_3  and  C_4 
REMARK       I    between atoms: C_4  and  N_5 
REMARK    3  A    between atoms: N_8  and  C_9 
REMARK    4  A    between atoms: C_12  and  N_13 
REMARK    5  A    between atoms: N_13  and  C_14 
REMARK    6  A    between atoms: C_14  and  N_15 
REMARK       I    between atoms: N_15  and  C_16 
REMARK    7  A    between atoms: C_16  and  C_17 
REMARK    8  A    between atoms: C_21  and  O_22 
ROOT
HETATM    1  C   UNL     1       4.350  30.829  56.910  1.00  0.00     0.030 A 
HETATM    2  C   UNL     1       4.093  31.560  55.739  1.00  0.00     0.031 A 
HETATM    3  C   UNL     1       4.002  30.959  54.473  1.00  0.00     0.032 A 
HETATM    4  C   UNL     1       4.127  29.585  54.328  1.00  0.00     0.034 A 
HETATM    5  C   UNL     1       4.286  28.821  55.482  1.00  0.00     0.032 A 
HETATM    6  C   UNL     1       4.412  29.435  56.743  1.00  0.00     0.031 A 
ENDROOT
BRANCH   4   7
HETATM    7  N   UNL     1       4.020  28.920  53.089  1.00  0.00    -0.333 N 
HETATM    8  H   UNL     1       3.087  28.580  52.850  1.00  0.00     0.168 HD
BRANCH   7   9
HETATM    9  C   UNL     1       4.997  28.570  52.189  1.00  0.00     0.179 C 
HETATM   10  S   UNL     1       5.479  29.362  50.794  1.00  0.00    -0.040 SA
BRANCH   9  11
HETATM   11  N   UNL     1       5.707  27.424  52.492  1.00  0.00    -0.299 N 
HETATM   12  C   UNL     1       6.860  27.270  53.248  1.00  0.00     0.257 C 
HETATM   13  O   UNL     1       7.519  28.192  53.714  1.00  0.00    -0.267 OA
HETATM   14  H   UNL     1       5.229  26.589  52.180  1.00  0.00     0.171 HD
BRANCH  12  15
HETATM   15  C   UNL     1       7.262  25.859  53.483  1.00  0.00     0.034 A 
HETATM   16  C   UNL     1       7.413  25.413  54.797  1.00  0.00     0.044 A 
HETATM   17  C   UNL     1       7.732  24.074  55.039  1.00  0.00     0.068 A 
HETATM   18 CL   UNL     1       7.869  23.564  56.686  1.00  0.00    -0.081 Cl
HETATM   19  C   UNL     1       7.919  23.170  53.977  1.00  0.00     0.089 A 
HETATM   20  C   UNL     1       7.796  23.639  52.664  1.00  0.00     0.039 A 
HETATM   21  C   UNL     1       7.471  24.977  52.417  1.00  0.00     0.020 A 
BRANCH  19  22
HETATM   22  O   UNL     1       8.216  21.874  54.310  1.00  0.00    -0.354 OA
HETATM   23  C   UNL     1       8.663  21.008  53.276  1.00  0.00     0.210 C 
ENDBRANCH  19  22
ENDBRANCH  12  15
ENDBRANCH   9  11
ENDBRANCH   7   9
ENDBRANCH   4   7
BRANCH   1  24
HETATM   24  N   UNL     1       4.442  31.465  58.160  1.00  0.00    -0.378 N 
HETATM   25  C   UNL     1       5.805  31.696  58.696  1.00  0.00     0.143 C 
HETATM   26  C   UNL     1       5.788  32.779  59.788  1.00  0.00     0.145 C 
HETATM   27  N   UNL     1       4.829  32.507  60.859  1.00  0.00    -0.349 N 
HETATM   28  C   UNL     1       4.885  33.102  62.114  1.00  0.00     0.219 C 
HETATM   29  C   UNL     1       3.500  32.091  60.396  1.00  0.00     0.145 C 
HETATM   30  O   UNL     1       3.956  33.008  62.920  1.00  0.00    -0.273 OA
HETATM   31  C   UNL     1       3.500  31.074  59.236  1.00  0.00     0.143 C 
BRANCH  28  32
HETATM   32  C   UNL     1       6.132  33.876  62.516  1.00  0.00     0.103 C 
BRANCH  32  33
HETATM   33  C   UNL     1       6.221  34.107  64.022  1.00  0.00     0.005 C 
HETATM   34  C   UNL     1       7.377  33.374  64.682  1.00  0.00     0.005 C 
ENDBRANCH  32  33
ENDBRANCH  28  32
ENDBRANCH   1  24
TORSDOF 8
ENDMDL
