MODEL 1
REMARK VINA RESULT:      -9.5      0.000      0.000
REMARK  3 active torsions:
REMARK  status: ('A' for Active; 'I' for Inactive)
REMARK    1  A    between atoms: O_2  and  C_3 
REMARK    2  A    between atoms: C_5  and  C_26 
REMARK    3  A    between atoms: C_11  and  C_15 
ROOT
HETATM    1  C   UNL     1       5.762  32.836  60.242  1.00  0.00     0.096 A 
HETATM    2  C   UNL     1       5.605  33.231  61.576  1.00  0.00     0.051 A 
HETATM    3  C   UNL     1       6.459  32.737  62.580  1.00  0.00    -0.019 A 
HETATM    4  C   UNL     1       7.478  31.843  62.230  1.00  0.00     0.031 A 
HETATM    5  C   UNL     1       7.621  31.453  60.896  1.00  0.00     0.062 A 
HETATM    6  C   UNL     1       8.660  30.514  60.480  1.00  0.00     0.259 A 
HETATM    7  O   UNL     1       9.491  30.012  61.209  1.00  0.00    -0.267 OA
HETATM    8  N   UNL     1       8.681  30.174  59.110  1.00  0.00    -0.312 N 
HETATM    9  C   UNL     1       7.830  30.667  58.233  1.00  0.00     0.091 A 
HETATM   10  N   UNL     1       6.897  31.534  58.591  1.00  0.00    -0.342 N 
HETATM   11  H   UNL     1       6.233  31.921  57.920  1.00  0.00     0.167 HD
HETATM   12  C   UNL     1       6.777  31.929  59.896  1.00  0.00     0.083 A 
HETATM   13  H   UNL     1       9.390  29.504  58.814  1.00  0.00     0.170 HD
ENDROOT
BRANCH   9  14
HETATM   14  C   UNL     1       7.875  30.248  56.795  1.00  0.00     0.082 C 
HETATM   15  C   UNL     1       9.094  29.393  56.464  1.00  0.00     0.188 C 
HETATM   16  O   UNL     1       9.102  28.165  57.205  1.00  0.00    -0.350 OA
HETATM   17  C   UNL     1       7.934  27.450  57.137  1.00  0.00     0.075 A 
HETATM   18  C   UNL     1       8.013  26.108  57.514  1.00  0.00     0.040 A 
HETATM   19  C   UNL     1       6.704  28.031  56.806  1.00  0.00    -0.021 A 
HETATM   20  C   UNL     1       6.860  25.323  57.531  1.00  0.00     0.045 A 
HETATM   21  C   UNL     1       5.643  25.891  57.178  1.00  0.00     0.117 A 
HETATM   22  F   UNL     1       4.534  25.142  57.196  1.00  0.00    -0.206 F 
HETATM   23  C   UNL     1       5.555  27.232  56.813  1.00  0.00     0.052 A 
HETATM   24  C   UNL     1       6.610  29.478  56.413  1.00  0.00     0.056 C 
ENDBRANCH   9  14
BRANCH   1  25
HETATM   25  O   UNL     1       4.988  33.255  59.186  1.00  0.00    -0.354 OA
HETATM   26  C   UNL     1       3.601  32.919  59.226  1.00  0.00     0.210 C 
ENDBRANCH   1  25
BRANCH   3  27
HETATM   27  C   UNL     1       6.265  33.139  63.961  1.00  0.00     0.010 A 
HETATM   28  C   UNL     1       5.082  33.425  64.683  1.00  0.00     0.152 A 
HETATM   29  N   UNL     1       5.322  33.774  65.947  1.00  0.00    -0.187 NA
HETATM   30  N   UNL     1       6.658  33.713  66.049  1.00  0.00    -0.289 N 
HETATM   31  H   UNL     1       7.085  33.943  66.941  1.00  0.00     0.188 HD
HETATM   32  C   UNL     1       7.270  33.338  64.884  1.00  0.00     0.123 A 
ENDBRANCH   3  27
TORSDOF 3
ENDMDL
MODEL 2
REMARK VINA RESULT:      -9.0      7.250     10.759
REMARK  3 active torsions:
REMARK  status: ('A' for Active; 'I' for Inactive)
REMARK    1  A    between atoms: O_2  and  C_3 
REMARK    2  A    between atoms: C_5  and  C_26 
REMARK    3  A    between atoms: C_11  and  C_15 
ROOT
HETATM    1  C   UNL     1       7.321  25.380  55.194  1.00  0.00     0.096 A 
HETATM    2  C   UNL     1       7.915  24.113  55.253  1.00  0.00     0.051 A 
HETATM    3  C   UNL     1       7.538  23.097  54.355  1.00  0.00    -0.019 A 
HETATM    4  C   UNL     1       6.560  23.366  53.392  1.00  0.00     0.031 A 
HETATM    5  C   UNL     1       5.972  24.632  53.346  1.00  0.00     0.062 A 
HETATM    6  C   UNL     1       4.937  24.961  52.368  1.00  0.00     0.259 A 
HETATM    7  O   UNL     1       4.512  24.214  51.510  1.00  0.00    -0.267 OA
HETATM    8  N   UNL     1       4.398  26.264  52.445  1.00  0.00    -0.312 N 
HETATM    9  C   UNL     1       4.792  27.155  53.331  1.00  0.00     0.091 A 
HETATM   10  N   UNL     1       5.743  26.878  54.210  1.00  0.00    -0.342 N 
HETATM   11  H   UNL     1       6.054  27.561  54.901  1.00  0.00     0.167 HD
HETATM   12  C   UNL     1       6.330  25.642  54.234  1.00  0.00     0.083 A 
HETATM   13  H   UNL     1       3.662  26.495  51.779  1.00  0.00     0.170 HD
ENDROOT
BRANCH   9  14
HETATM   14  C   UNL     1       4.164  28.513  53.391  1.00  0.00     0.082 C 
HETATM   15  C   UNL     1       5.174  29.643  53.212  1.00  0.00     0.188 C 
HETATM   16  O   UNL     1       5.813  29.589  51.930  1.00  0.00    -0.350 OA
HETATM   17  C   UNL     1       4.953  29.492  50.867  1.00  0.00     0.075 A 
HETATM   18  C   UNL     1       5.484  29.809  49.615  1.00  0.00     0.040 A 
HETATM   19  C   UNL     1       3.643  29.012  50.989  1.00  0.00    -0.021 A 
HETATM   20  C   UNL     1       4.695  29.680  48.473  1.00  0.00     0.045 A 
HETATM   21  C   UNL     1       3.387  29.229  48.595  1.00  0.00     0.117 A 
HETATM   22  F   UNL     1       2.628  29.100  47.500  1.00  0.00    -0.206 F 
HETATM   23  C   UNL     1       2.855  28.898  49.838  1.00  0.00     0.052 A 
HETATM   24  C   UNL     1       3.070  28.654  52.330  1.00  0.00     0.056 C 
ENDBRANCH   9  14
BRANCH   1  25
HETATM   25  O   UNL     1       7.614  26.441  56.017  1.00  0.00    -0.354 OA
HETATM   26  C   UNL     1       8.122  26.131  57.315  1.00  0.00     0.210 C 
ENDBRANCH   1  25
BRANCH   3  27
HETATM   27  C   UNL     1       8.148  21.783  54.448  1.00  0.00     0.010 A 
HETATM   28  C   UNL     1       8.262  20.746  53.492  1.00  0.00     0.152 A 
HETATM   29  N   UNL     1       8.891  19.672  53.968  1.00  0.00    -0.187 NA
HETATM   30  N   UNL     1       9.190  20.009  55.231  1.00  0.00    -0.289 N 
HETATM   31  H   UNL     1       9.683  19.333  55.807  1.00  0.00     0.188 HD
HETATM   32  C   UNL     1       8.764  21.265  55.568  1.00  0.00     0.123 A 
ENDBRANCH   3  27
TORSDOF 3
ENDMDL
MODEL 3
REMARK VINA RESULT:      -8.9      6.868     10.331
REMARK  3 active torsions:
REMARK  status: ('A' for Active; 'I' for Inactive)
REMARK    1  A    between atoms: O_2  and  C_3 
REMARK    2  A    between atoms: C_5  and  C_26 
REMARK    3  A    between atoms: C_11  and  C_15 
ROOT
HETATM    1  C   UNL     1       7.255  26.519  54.974  1.00  0.00     0.096 A 
HETATM    2  C   UNL     1       7.681  25.302  55.522  1.00  0.00     0.051 A 
HETATM    3  C   UNL     1       7.242  24.077  54.987  1.00  0.00    -0.019 A 
HETATM    4  C   UNL     1       6.372  24.084  53.891  1.00  0.00     0.031 A 
HETATM    5  C   UNL     1       5.950  25.304  53.357  1.00  0.00     0.062 A 
HETATM    6  C   UNL     1       5.033  25.366  52.221  1.00  0.00     0.259 A 
HETATM    7  O   UNL     1       4.577  24.410  51.627  1.00  0.00    -0.267 OA
HETATM    8  N   UNL     1       4.657  26.658  51.793  1.00  0.00    -0.312 N 
HETATM    9  C   UNL     1       5.099  27.762  52.362  1.00  0.00     0.091 A 
HETATM   10  N   UNL     1       5.946  27.721  53.378  1.00  0.00    -0.342 N 
HETATM   11  H   UNL     1       6.293  28.570  53.826  1.00  0.00     0.167 HD
HETATM   12  C   UNL     1       6.372  26.522  53.882  1.00  0.00     0.083 A 
HETATM   13  H   UNL     1       4.002  26.711  51.015  1.00  0.00     0.170 HD
ENDROOT
BRANCH   9  14
HETATM   14  C   UNL     1       4.643  29.108  51.890  1.00  0.00     0.082 C 
HETATM   15  C   UNL     1       5.511  29.671  50.770  1.00  0.00     0.188 C 
HETATM   16  O   UNL     1       5.478  28.841  49.601  1.00  0.00    -0.350 OA
HETATM   17  C   UNL     1       4.218  28.518  49.166  1.00  0.00     0.075 A 
HETATM   18  C   UNL     1       4.122  28.044  47.856  1.00  0.00     0.040 A 
HETATM   19  C   UNL     1       3.092  28.560  49.998  1.00  0.00    -0.021 A 
HETATM   20  C   UNL     1       2.887  27.637  47.354  1.00  0.00     0.045 A 
HETATM   21  C   UNL     1       1.764  27.702  48.169  1.00  0.00     0.117 A 
HETATM   22  F   UNL     1       0.577  27.309  47.691  1.00  0.00    -0.206 F 
HETATM   23  C   UNL     1       1.854  28.161  49.480  1.00  0.00     0.052 A 
HETATM   24  C   UNL     1       3.190  29.054  51.413  1.00  0.00     0.056 C 
ENDBRANCH   9  14
BRANCH   1  25
HETATM   25  O   UNL     1       7.622  27.768  55.415  1.00  0.00    -0.354 OA
HETATM   26  C   UNL     1       8.171  27.854  56.731  1.00  0.00     0.210 C 
ENDBRANCH   1  25
BRANCH   3  27
HETATM   27  C   UNL     1       7.675  22.827  55.584  1.00  0.00     0.010 A 
HETATM   28  C   UNL     1       7.595  21.497  55.107  1.00  0.00     0.152 A 
HETATM   29  N   UNL     1       8.102  20.611  55.963  1.00  0.00    -0.187 NA
HETATM   30  N   UNL     1       8.514  21.361  56.996  1.00  0.00    -0.289 N 
HETATM   31  H   UNL     1       8.944  20.896  57.789  1.00  0.00     0.188 HD
HETATM   32  C   UNL     1       8.279  22.697  56.817  1.00  0.00     0.123 A 
ENDBRANCH   3  27
TORSDOF 3
ENDMDL
MODEL 4
REMARK VINA RESULT:      -8.6      4.163      8.720
REMARK  3 active torsions:
REMARK  status: ('A' for Active; 'I' for Inactive)
REMARK    1  A    between atoms: O_2  and  C_3 
REMARK    2  A    between atoms: C_5  and  C_26 
REMARK    3  A    between atoms: C_11  and  C_15 
ROOT
HETATM    1  C   UNL     1       5.562  32.232  59.583  1.00  0.00     0.096 A 
HETATM    2  C   UNL     1       6.604  31.668  58.836  1.00  0.00     0.051 A 
HETATM    3  C   UNL     1       7.880  31.485  59.403  1.00  0.00    -0.019 A 
HETATM    4  C   UNL     1       8.099  31.870  60.730  1.00  0.00     0.031 A 
HETATM    5  C   UNL     1       7.053  32.436  61.462  1.00  0.00     0.062 A 
HETATM    6  C   UNL     1       7.232  32.867  62.847  1.00  0.00     0.259 A 
HETATM    7  O   UNL     1       8.255  32.761  63.493  1.00  0.00    -0.267 OA
HETATM    8  N   UNL     1       6.108  33.453  63.468  1.00  0.00    -0.312 N 
HETATM    9  C   UNL     1       4.949  33.608  62.862  1.00  0.00     0.091 A 
HETATM   10  N   UNL     1       4.766  33.204  61.614  1.00  0.00    -0.342 N 
HETATM   11  H   UNL     1       3.872  33.320  61.135  1.00  0.00     0.167 HD
HETATM   12  C   UNL     1       5.789  32.630  60.911  1.00  0.00     0.083 A 
HETATM   13  H   UNL     1       6.230  33.774  64.428  1.00  0.00     0.170 HD
ENDROOT
BRANCH   9  14
HETATM   14  C   UNL     1       3.797  34.266  63.556  1.00  0.00     0.082 C 
HETATM   15  C   UNL     1       4.179  34.862  64.907  1.00  0.00     0.188 C 
HETATM   16  O   UNL     1       5.167  35.892  64.775  1.00  0.00    -0.350 OA
HETATM   17  C   UNL     1       4.863  36.859  63.852  1.00  0.00     0.075 A 
HETATM   18  C   UNL     1       5.583  38.052  63.950  1.00  0.00     0.040 A 
HETATM   19  C   UNL     1       3.959  36.652  62.803  1.00  0.00    -0.021 A 
HETATM   20  C   UNL     1       5.380  39.065  63.014  1.00  0.00     0.045 A 
HETATM   21  C   UNL     1       4.463  38.871  61.988  1.00  0.00     0.117 A 
HETATM   22  F   UNL     1       4.268  39.841  61.086  1.00  0.00    -0.206 F 
HETATM   23  C   UNL     1       3.752  37.680  61.875  1.00  0.00     0.052 A 
HETATM   24  C   UNL     1       3.192  35.366  62.682  1.00  0.00     0.056 C 
ENDBRANCH   9  14
BRANCH   1  25
HETATM   25  O   UNL     1       4.283  32.454  59.132  1.00  0.00    -0.354 OA
HETATM   26  C   UNL     1       3.587  31.335  58.581  1.00  0.00     0.210 C 
ENDBRANCH   1  25
BRANCH   3  27
HETATM   27  C   UNL     1       8.954  30.921  58.606  1.00  0.00     0.010 A 
HETATM   28  C   UNL     1      10.230  31.436  58.277  1.00  0.00     0.152 A 
HETATM   29  N   UNL     1      10.935  30.610  57.504  1.00  0.00    -0.187 NA
HETATM   30  N   UNL     1      10.122  29.558  57.331  1.00  0.00    -0.289 N 
HETATM   31  H   UNL     1      10.450  28.783  56.763  1.00  0.00     0.188 HD
HETATM   32  C   UNL     1       8.920  29.697  57.971  1.00  0.00     0.123 A 
ENDBRANCH   3  27
TORSDOF 3
ENDMDL
MODEL 5
REMARK VINA RESULT:      -8.5      5.765     10.442
REMARK  3 active torsions:
REMARK  status: ('A' for Active; 'I' for Inactive)
REMARK    1  A    between atoms: O_2  and  C_3 
REMARK    2  A    between atoms: C_5  and  C_26 
REMARK    3  A    between atoms: C_11  and  C_15 
ROOT
HETATM    1  C   UNL     1       5.648  25.742  52.320  1.00  0.00     0.096 A 
HETATM    2  C   UNL     1       5.373  25.929  50.959  1.00  0.00     0.051 A 
HETATM    3  C   UNL     1       4.694  27.078  50.513  1.00  0.00    -0.019 A 
HETATM    4  C   UNL     1       4.295  28.041  51.446  1.00  0.00     0.031 A 
HETATM    5  C   UNL     1       4.571  27.841  52.800  1.00  0.00     0.062 A 
HETATM    6  C   UNL     1       4.166  28.809  53.817  1.00  0.00     0.259 A 
HETATM    7  O   UNL     1       3.595  29.860  53.604  1.00  0.00    -0.267 OA
HETATM    8  N   UNL     1       4.475  28.477  55.154  1.00  0.00    -0.312 N 
HETATM    9  C   UNL     1       5.099  27.367  55.494  1.00  0.00     0.091 A 
HETATM   10  N   UNL     1       5.490  26.490  54.583  1.00  0.00    -0.342 N 
HETATM   11  H   UNL     1       5.973  25.628  54.836  1.00  0.00     0.167 HD
HETATM   12  C   UNL     1       5.235  26.705  53.255  1.00  0.00     0.083 A 
HETATM   13  H   UNL     1       4.179  29.137  55.871  1.00  0.00     0.170 HD
ENDROOT
BRANCH   9  14
HETATM   14  C   UNL     1       5.373  27.046  56.931  1.00  0.00     0.082 C 
HETATM   15  C   UNL     1       6.526  26.063  57.111  1.00  0.00     0.188 C 
HETATM   16  O   UNL     1       7.761  26.592  56.609  1.00  0.00    -0.350 OA
HETATM   17  C   UNL     1       8.073  27.846  57.069  1.00  0.00     0.075 A 
HETATM   18  C   UNL     1       9.404  28.241  56.920  1.00  0.00     0.040 A 
HETATM   19  C   UNL     1       7.114  28.732  57.574  1.00  0.00    -0.021 A 
HETATM   20  C   UNL     1       9.795  29.522  57.306  1.00  0.00     0.045 A 
HETATM   21  C   UNL     1       8.850  30.394  57.832  1.00  0.00     0.117 A 
HETATM   22  F   UNL     1       9.222  31.626  58.201  1.00  0.00    -0.206 F 
HETATM   23  C   UNL     1       7.519  30.012  57.971  1.00  0.00     0.052 A 
HETATM   24  C   UNL     1       5.678  28.319  57.724  1.00  0.00     0.056 C 
ENDBRANCH   9  14
BRANCH   1  25
HETATM   25  O   UNL     1       6.304  24.663  52.863  1.00  0.00    -0.354 OA
HETATM   26  C   UNL     1       7.655  24.452  52.452  1.00  0.00     0.210 C 
ENDBRANCH   1  25
BRANCH   3  27
HETATM   27  C   UNL     1       4.396  27.243  49.101  1.00  0.00     0.010 A 
HETATM   28  C   UNL     1       4.167  26.284  48.087  1.00  0.00     0.152 A 
HETATM   29  N   UNL     1       3.933  26.838  46.898  1.00  0.00    -0.187 NA
HETATM   30  N   UNL     1       4.006  28.155  47.137  1.00  0.00    -0.289 N 
HETATM   31  H   UNL     1       3.859  28.796  46.362  1.00  0.00     0.188 HD
HETATM   32  C   UNL     1       4.284  28.450  48.444  1.00  0.00     0.123 A 
ENDBRANCH   3  27
TORSDOF 3
ENDMDL
MODEL 6
REMARK VINA RESULT:      -8.4      3.297      4.634
REMARK  3 active torsions:
REMARK  status: ('A' for Active; 'I' for Inactive)
REMARK    1  A    between atoms: O_2  and  C_3 
REMARK    2  A    between atoms: C_5  and  C_26 
REMARK    3  A    between atoms: C_11  and  C_15 
ROOT
HETATM    1  C   UNL     1       5.939  30.902  57.354  1.00  0.00     0.096 A 
HETATM    2  C   UNL     1       6.624  31.439  58.452  1.00  0.00     0.051 A 
HETATM    3  C   UNL     1       7.621  30.696  59.113  1.00  0.00    -0.019 A 
HETATM    4  C   UNL     1       7.928  29.409  58.658  1.00  0.00     0.031 A 
HETATM    5  C   UNL     1       7.234  28.884  57.565  1.00  0.00     0.062 A 
HETATM    6  C   UNL     1       7.507  27.541  57.058  1.00  0.00     0.259 A 
HETATM    7  O   UNL     1       8.346  26.778  57.493  1.00  0.00    -0.267 OA
HETATM    8  N   UNL     1       6.717  27.113  55.969  1.00  0.00    -0.312 N 
HETATM    9  C   UNL     1       5.786  27.862  55.417  1.00  0.00     0.091 A 
HETATM   10  N   UNL     1       5.541  29.089  55.852  1.00  0.00    -0.342 N 
HETATM   11  H   UNL     1       4.822  29.677  55.431  1.00  0.00     0.167 HD
HETATM   12  C   UNL     1       6.241  29.605  56.909  1.00  0.00     0.083 A 
HETATM   13  H   UNL     1       6.888  26.170  55.622  1.00  0.00     0.170 HD
ENDROOT
BRANCH   9  14
HETATM   14  C   UNL     1       4.953  27.347  54.283  1.00  0.00     0.082 C 
HETATM   15  C   UNL     1       5.476  27.779  52.917  1.00  0.00     0.188 C 
HETATM   16  O   UNL     1       6.794  27.271  52.666  1.00  0.00    -0.350 OA
HETATM   17  C   UNL     1       6.934  25.922  52.871  1.00  0.00     0.075 A 
HETATM   18  C   UNL     1       8.058  25.327  52.295  1.00  0.00     0.040 A 
HETATM   19  C   UNL     1       6.069  25.183  53.687  1.00  0.00    -0.021 A 
HETATM   20  C   UNL     1       8.309  23.971  52.505  1.00  0.00     0.045 A 
HETATM   21  C   UNL     1       7.437  23.230  53.292  1.00  0.00     0.117 A 
HETATM   22  F   UNL     1       7.677  21.929  53.498  1.00  0.00    -0.206 F 
HETATM   23  C   UNL     1       6.322  23.820  53.880  1.00  0.00     0.052 A 
HETATM   24  C   UNL     1       4.867  25.821  54.322  1.00  0.00     0.056 C 
ENDBRANCH   9  14
BRANCH   1  25
HETATM   25  O   UNL     1       4.953  31.537  56.638  1.00  0.00    -0.354 OA
HETATM   26  C   UNL     1       4.072  32.393  57.367  1.00  0.00     0.210 C 
ENDBRANCH   1  25
BRANCH   3  27
HETATM   27  C   UNL     1       8.303  31.260  60.264  1.00  0.00     0.010 A 
HETATM   28  C   UNL     1       7.898  31.371  61.615  1.00  0.00     0.152 A 
HETATM   29  N   UNL     1       8.813  31.968  62.379  1.00  0.00    -0.187 NA
HETATM   30  N   UNL     1       9.812  32.243  61.528  1.00  0.00    -0.289 N 
HETATM   31  H   UNL     1      10.639  32.709  61.889  1.00  0.00     0.188 HD
HETATM   32  C   UNL     1       9.554  31.840  60.246  1.00  0.00     0.123 A 
ENDBRANCH   3  27
TORSDOF 3
ENDMDL
MODEL 7
REMARK VINA RESULT:      -8.3      3.585      6.098
REMARK  3 active torsions:
REMARK  status: ('A' for Active; 'I' for Inactive)
REMARK    1  A    between atoms: O_2  and  C_3 
REMARK    2  A    between atoms: C_5  and  C_26 
REMARK    3  A    between atoms: C_11  and  C_15 
ROOT
HETATM    1  C   UNL     1       7.162  27.731  56.981  1.00  0.00     0.096 A 
HETATM    2  C   UNL     1       7.822  28.534  57.920  1.00  0.00     0.051 A 
HETATM    3  C   UNL     1       7.605  29.924  57.958  1.00  0.00    -0.019 A 
HETATM    4  C   UNL     1       6.714  30.501  57.046  1.00  0.00     0.031 A 
HETATM    5  C   UNL     1       6.066  29.690  56.112  1.00  0.00     0.062 A 
HETATM    6  C   UNL     1       5.136  30.244  55.131  1.00  0.00     0.259 A 
HETATM    7  O   UNL     1       4.818  31.412  55.039  1.00  0.00    -0.267 OA
HETATM    8  N   UNL     1       4.570  29.325  54.220  1.00  0.00    -0.312 N 
HETATM    9  C   UNL     1       4.840  28.036  54.237  1.00  0.00     0.091 A 
HETATM   10  N   UNL     1       5.664  27.516  55.133  1.00  0.00    -0.342 N 
HETATM   11  H   UNL     1       5.881  26.519  55.153  1.00  0.00     0.167 HD
HETATM   12  C   UNL     1       6.278  28.315  56.059  1.00  0.00     0.083 A 
HETATM   13  H   UNL     1       3.935  29.706  53.520  1.00  0.00     0.170 HD
ENDROOT
BRANCH   9  14
HETATM   14  C   UNL     1       4.237  27.109  53.227  1.00  0.00     0.082 C 
HETATM   15  C   UNL     1       4.841  27.271  51.835  1.00  0.00     0.188 C 
HETATM   16  O   UNL     1       6.242  26.968  51.823  1.00  0.00    -0.350 OA
HETATM   17  C   UNL     1       6.570  25.764  52.392  1.00  0.00     0.075 A 
HETATM   18  C   UNL     1       7.834  25.259  52.077  1.00  0.00     0.040 A 
HETATM   19  C   UNL     1       5.744  25.107  53.312  1.00  0.00    -0.021 A 
HETATM   20  C   UNL     1       8.271  24.070  52.659  1.00  0.00     0.045 A 
HETATM   21  C   UNL     1       7.442  23.403  53.553  1.00  0.00     0.117 A 
HETATM   22  F   UNL     1       7.860  22.263  54.115  1.00  0.00    -0.206 F 
HETATM   23  C   UNL     1       6.187  23.906  53.881  1.00  0.00     0.052 A 
HETATM   24  C   UNL     1       4.391  25.651  53.666  1.00  0.00     0.056 C 
ENDBRANCH   9  14
BRANCH   1  25
HETATM   25  O   UNL     1       7.298  26.368  56.856  1.00  0.00    -0.354 OA
HETATM   26  C   UNL     1       8.515  25.793  57.335  1.00  0.00     0.210 C 
ENDBRANCH   1  25
BRANCH   3  27
HETATM   27  C   UNL     1       8.316  30.744  58.922  1.00  0.00     0.010 A 
HETATM   28  C   UNL     1       9.465  31.557  58.775  1.00  0.00     0.152 A 
HETATM   29  N   UNL     1       9.824  32.152  59.913  1.00  0.00    -0.187 NA
HETATM   30  N   UNL     1       8.909  31.730  60.798  1.00  0.00    -0.289 N 
HETATM   31  H   UNL     1       8.979  32.058  61.757  1.00  0.00     0.188 HD
HETATM   32  C   UNL     1       7.984  30.881  60.254  1.00  0.00     0.123 A 
ENDBRANCH   3  27
TORSDOF 3
ENDMDL
MODEL 8
REMARK VINA RESULT:      -8.2      4.137      8.795
REMARK  3 active torsions:
REMARK  status: ('A' for Active; 'I' for Inactive)
REMARK    1  A    between atoms: O_2  and  C_3 
REMARK    2  A    between atoms: C_5  and  C_26 
REMARK    3  A    between atoms: C_11  and  C_15 
ROOT
HETATM    1  C   UNL     1       7.263  31.653  61.471  1.00  0.00     0.096 A 
HETATM    2  C   UNL     1       8.202  31.061  60.617  1.00  0.00     0.051 A 
HETATM    3  C   UNL     1       8.063  31.149  59.219  1.00  0.00    -0.019 A 
HETATM    4  C   UNL     1       6.971  31.843  58.685  1.00  0.00     0.031 A 
HETATM    5  C   UNL     1       6.039  32.425  59.547  1.00  0.00     0.062 A 
HETATM    6  C   UNL     1       4.875  33.149  59.040  1.00  0.00     0.259 A 
HETATM    7  O   UNL     1       4.616  33.339  57.869  1.00  0.00    -0.267 OA
HETATM    8  N   UNL     1       3.989  33.664  60.012  1.00  0.00    -0.312 N 
HETATM    9  C   UNL     1       4.180  33.521  61.307  1.00  0.00     0.091 A 
HETATM   10  N   UNL     1       5.240  32.885  61.782  1.00  0.00    -0.342 N 
HETATM   11  H   UNL     1       5.397  32.769  62.783  1.00  0.00     0.167 HD
HETATM   12  C   UNL     1       6.161  32.337  60.931  1.00  0.00     0.083 A 
HETATM   13  H   UNL     1       3.165  34.153  59.667  1.00  0.00     0.170 HD
ENDROOT
BRANCH   9  14
HETATM   14  C   UNL     1       3.192  34.059  62.296  1.00  0.00     0.082 C 
HETATM   15  C   UNL     1       3.749  34.129  63.715  1.00  0.00     0.188 C 
HETATM   16  O   UNL     1       4.875  35.012  63.803  1.00  0.00    -0.350 OA
HETATM   17  C   UNL     1       4.667  36.257  63.267  1.00  0.00     0.075 A 
HETATM   18  C   UNL     1       5.569  37.251  63.652  1.00  0.00     0.040 A 
HETATM   19  C   UNL     1       3.675  36.519  62.313  1.00  0.00    -0.021 A 
HETATM   20  C   UNL     1       5.466  38.530  63.108  1.00  0.00     0.045 A 
HETATM   21  C   UNL     1       4.467  38.799  62.181  1.00  0.00     0.117 A 
HETATM   22  F   UNL     1       4.367  40.026  61.655  1.00  0.00    -0.206 F 
HETATM   23  C   UNL     1       3.572  37.810  61.782  1.00  0.00     0.052 A 
HETATM   24  C   UNL     1       2.711  35.451  61.883  1.00  0.00     0.056 C 
ENDBRANCH   9  14
BRANCH   1  25
HETATM   25  O   UNL     1       7.302  31.629  62.844  1.00  0.00    -0.354 OA
HETATM   26  C   UNL     1       8.076  32.643  63.488  1.00  0.00     0.210 C 
ENDBRANCH   1  25
BRANCH   3  27
HETATM   27  C   UNL     1       9.034  30.508  58.351  1.00  0.00     0.010 A 
HETATM   28  C   UNL     1      10.328  30.916  57.952  1.00  0.00     0.152 A 
HETATM   29  N   UNL     1      10.911  30.046  57.127  1.00  0.00    -0.187 NA
HETATM   30  N   UNL     1       9.999  29.072  56.991  1.00  0.00    -0.289 N 
HETATM   31  H   UNL     1      10.223  28.281  56.394  1.00  0.00     0.188 HD
HETATM   32  C   UNL     1       8.854  29.303  57.704  1.00  0.00     0.123 A 
ENDBRANCH   3  27
TORSDOF 3
ENDMDL
MODEL 9
REMARK VINA RESULT:      -8.1      7.401     10.935
REMARK  3 active torsions:
REMARK  status: ('A' for Active; 'I' for Inactive)
REMARK    1  A    between atoms: O_2  and  C_3 
REMARK    2  A    between atoms: C_5  and  C_26 
REMARK    3  A    between atoms: C_11  and  C_15 
ROOT
HETATM    1  C   UNL     1       5.172  26.963  54.234  1.00  0.00     0.096 A 
HETATM    2  C   UNL     1       5.929  25.817  54.504  1.00  0.00     0.051 A 
HETATM    3  C   UNL     1       6.293  24.933  53.471  1.00  0.00    -0.019 A 
HETATM    4  C   UNL     1       5.891  25.213  52.160  1.00  0.00     0.031 A 
HETATM    5  C   UNL     1       5.132  26.357  51.904  1.00  0.00     0.062 A 
HETATM    6  C   UNL     1       4.677  26.689  50.556  1.00  0.00     0.259 A 
HETATM    7  O   UNL     1       4.919  26.051  49.551  1.00  0.00    -0.267 OA
HETATM    8  N   UNL     1       3.889  27.854  50.433  1.00  0.00    -0.312 N 
HETATM    9  C   UNL     1       3.574  28.622  51.456  1.00  0.00     0.091 A 
HETATM   10  N   UNL     1       3.996  28.345  52.680  1.00  0.00    -0.342 N 
HETATM   11  H   UNL     1       3.757  28.933  53.479  1.00  0.00     0.167 HD
HETATM   12  C   UNL     1       4.759  27.234  52.919  1.00  0.00     0.083 A 
HETATM   13  H   UNL     1       3.551  28.082  49.499  1.00  0.00     0.170 HD
ENDROOT
BRANCH   9  14
HETATM   14  C   UNL     1       2.708  29.830  51.276  1.00  0.00     0.082 C 
HETATM   15  C   UNL     1       3.108  30.989  52.183  1.00  0.00     0.188 C 
HETATM   16  O   UNL     1       4.440  31.446  51.909  1.00  0.00    -0.350 OA
HETATM   17  C   UNL     1       4.690  31.714  50.587  1.00  0.00     0.075 A 
HETATM   18  C   UNL     1       5.814  32.499  50.321  1.00  0.00     0.040 A 
HETATM   19  C   UNL     1       3.936  31.164  49.544  1.00  0.00    -0.021 A 
HETATM   20  C   UNL     1       6.175  32.769  49.002  1.00  0.00     0.045 A 
HETATM   21  C   UNL     1       5.413  32.246  47.965  1.00  0.00     0.117 A 
HETATM   22  F   UNL     1       5.759  32.502  46.698  1.00  0.00    -0.206 F 
HETATM   23  C   UNL     1       4.299  31.452  48.222  1.00  0.00     0.052 A 
HETATM   24  C   UNL     1       2.735  30.306  49.822  1.00  0.00     0.056 C 
ENDBRANCH   9  14
BRANCH   1  25
HETATM   25  O   UNL     1       4.764  27.891  55.162  1.00  0.00    -0.354 OA
HETATM   26  C   UNL     1       5.155  27.665  56.517  1.00  0.00     0.210 C 
ENDBRANCH   1  25
BRANCH   3  27
HETATM   27  C   UNL     1       7.058  23.737  53.774  1.00  0.00     0.010 A 
HETATM   28  C   UNL     1       7.292  23.076  55.003  1.00  0.00     0.152 A 
HETATM   29  N   UNL     1       8.065  21.999  54.870  1.00  0.00    -0.187 NA
HETATM   30  N   UNL     1       8.333  21.956  53.557  1.00  0.00    -0.289 N 
HETATM   31  H   UNL     1       8.920  21.204  53.208  1.00  0.00     0.188 HD
HETATM   32  C   UNL     1       7.752  22.978  52.856  1.00  0.00     0.123 A 
ENDBRANCH   3  27
TORSDOF 3
ENDMDL
MODEL 10
REMARK VINA RESULT:      -8.1      3.365      8.111
REMARK  3 active torsions:
REMARK  status: ('A' for Active; 'I' for Inactive)
REMARK    1  A    between atoms: O_2  and  C_3 
REMARK    2  A    between atoms: C_5  and  C_26 
REMARK    3  A    between atoms: C_11  and  C_15 
ROOT
HETATM    1  C   UNL     1       8.099  28.765  57.691  1.00  0.00     0.096 A 
HETATM    2  C   UNL     1       8.348  27.416  57.410  1.00  0.00     0.051 A 
HETATM    3  C   UNL     1       7.334  26.590  56.890  1.00  0.00    -0.019 A 
HETATM    4  C   UNL     1       6.066  27.132  56.651  1.00  0.00     0.031 A 
HETATM    5  C   UNL     1       5.830  28.478  56.941  1.00  0.00     0.062 A 
HETATM    6  C   UNL     1       4.521  29.090  56.722  1.00  0.00     0.259 A 
HETATM    7  O   UNL     1       3.548  28.530  56.261  1.00  0.00    -0.267 OA
HETATM    8  N   UNL     1       4.400  30.449  57.084  1.00  0.00    -0.312 N 
HETATM    9  C   UNL     1       5.396  31.152  57.585  1.00  0.00     0.091 A 
HETATM   10  N   UNL     1       6.592  30.617  57.770  1.00  0.00    -0.342 N 
HETATM   11  H   UNL     1       7.369  31.153  58.158  1.00  0.00     0.167 HD
HETATM   12  C   UNL     1       6.822  29.303  57.463  1.00  0.00     0.083 A 
HETATM   13  H   UNL     1       3.486  30.879  56.953  1.00  0.00     0.170 HD
ENDROOT
BRANCH   9  14
HETATM   14  C   UNL     1       5.205  32.584  57.984  1.00  0.00     0.082 C 
HETATM   15  C   UNL     1       3.813  32.865  58.541  1.00  0.00     0.188 C 
HETATM   16  O   UNL     1       3.554  32.113  59.734  1.00  0.00    -0.350 OA
HETATM   17  C   UNL     1       4.526  32.216  60.696  1.00  0.00     0.075 A 
HETATM   18  C   UNL     1       4.159  31.825  61.985  1.00  0.00     0.040 A 
HETATM   19  C   UNL     1       5.843  32.595  60.408  1.00  0.00    -0.021 A 
HETATM   20  C   UNL     1       5.104  31.841  63.010  1.00  0.00     0.045 A 
HETATM   21  C   UNL     1       6.405  32.242  62.733  1.00  0.00     0.117 A 
HETATM   22  F   UNL     1       7.315  32.255  63.715  1.00  0.00    -0.206 F 
HETATM   23  C   UNL     1       6.781  32.620  61.448  1.00  0.00     0.052 A 
HETATM   24  C   UNL     1       6.248  33.003  59.021  1.00  0.00     0.056 C 
ENDBRANCH   9  14
BRANCH   1  25
HETATM   25  O   UNL     1       9.013  29.659  58.197  1.00  0.00    -0.354 OA
HETATM   26  C   UNL     1      10.202  29.871  57.435  1.00  0.00     0.210 C 
ENDBRANCH   1  25
BRANCH   3  27
HETATM   27  C   UNL     1       7.604  25.188  56.627  1.00  0.00     0.010 A 
HETATM   28  C   UNL     1       8.556  24.307  57.194  1.00  0.00     0.152 A 
HETATM   29  N   UNL     1       8.497  23.082  56.674  1.00  0.00    -0.187 NA
HETATM   30  N   UNL     1       7.507  23.161  55.773  1.00  0.00    -0.289 N 
HETATM   31  H   UNL     1       7.274  22.331  55.238  1.00  0.00     0.188 HD
HETATM   32  C   UNL     1       6.940  24.405  55.706  1.00  0.00     0.123 A 
ENDBRANCH   3  27
TORSDOF 3
ENDMDL
