MODEL 1
REMARK VINA RESULT:      -9.6      0.000      0.000
REMARK  6 active torsions:
REMARK  status: ('A' for Active; 'I' for Inactive)
REMARK    1  A    between atoms: O_2  and  C_3 
REMARK    2  A    between atoms: C_6  and  C_7 
REMARK    3  A    between atoms: C_13  and  C_14 
REMARK       I    between atoms: C_14  and  N_15 
REMARK    4  A    between atoms: N_15  and  C_16 
REMARK    5  A    between atoms: C_16  and  C_17 
REMARK    6  A    between atoms: C_24  and  C_25 
ROOT
HETATM    1  C   UNL     1       6.903  26.041  54.860  1.00  0.00     0.118 C 
HETATM    2  N   UNL     1       6.460  26.729  53.640  1.00  0.00    -0.365 N 
HETATM    3  C   UNL     1       5.645  27.819  53.731  1.00  0.00     0.138 A 
HETATM    4  N   UNL     1       5.080  28.175  54.935  1.00  0.00    -0.240 N 
HETATM    5  N   UNL     1       4.263  29.234  54.871  1.00  0.00    -0.181 NA
HETATM    6  C   UNL     1       4.360  29.612  53.596  1.00  0.00     0.160 A 
HETATM    7  C   UNL     1       5.192  28.762  52.821  1.00  0.00     0.096 A 
HETATM    8  C   UNL     1       5.309  27.491  56.192  1.00  0.00     0.221 C 
HETATM    9  C   UNL     1       5.784  26.059  55.917  1.00  0.00     0.066 C 
HETATM   10  H   UNL     1       7.181  26.717  52.915  1.00  0.00     0.161 HD
ENDROOT
BRANCH   7  11
HETATM   11  C   UNL     1       5.438  28.918  51.400  1.00  0.00     0.257 C 
HETATM   12  N   UNL     1       5.094  27.844  50.613  1.00  0.00    -0.352 N 
HETATM   13  H   UNL     1       4.496  27.143  51.027  1.00  0.00     0.163 HD
HETATM   14  O   UNL     1       5.887  29.961  50.938  1.00  0.00    -0.267 OA
BRANCH  12  15
HETATM   15  C   UNL     1       5.124  27.963  49.175  1.00  0.00     0.161 C 
BRANCH  15  16
HETATM   16  C   UNL     1       3.830  27.508  48.559  1.00  0.00    -0.041 A 
HETATM   17  C   UNL     1       2.616  28.110  48.917  1.00  0.00     0.009 A 
HETATM   18  C   UNL     1       1.421  27.688  48.334  1.00  0.00     0.001 A 
HETATM   19  C   UNL     1       1.425  26.659  47.394  1.00  0.00     0.000 A 
HETATM   20  C   UNL     1       2.625  26.045  47.040  1.00  0.00     0.001 A 
HETATM   21  C   UNL     1       3.822  26.463  47.624  1.00  0.00     0.009 A 
ENDBRANCH  15  16
ENDBRANCH  12  15
ENDBRANCH   7  11
BRANCH   1  22
HETATM   22  C   UNL     1       7.300  24.610  54.547  1.00  0.00    -0.035 A 
HETATM   23  C   UNL     1       7.383  23.666  55.580  1.00  0.00     0.012 A 
HETATM   24  C   UNL     1       7.652  22.324  55.295  1.00  0.00     0.037 A 
HETATM   25  C   UNL     1       7.828  21.898  53.979  1.00  0.00     0.068 A 
HETATM   26  C   UNL     1       7.783  22.833  52.947  1.00  0.00     0.037 A 
HETATM   27  C   UNL     1       7.523  24.179  53.229  1.00  0.00     0.012 A 
BRANCH  25  28
HETATM   28  O   UNL     1       8.048  20.556  53.832  1.00  0.00    -0.356 OA
HETATM   29  C   UNL     1       8.796  19.927  54.868  1.00  0.00     0.210 C 
ENDBRANCH  25  28
ENDBRANCH   1  22
BRANCH   8  30
HETATM   30  C   UNL     1       6.293  28.272  57.037  1.00  0.00     0.409 C 
HETATM   31  F   UNL     1       7.010  27.490  57.872  1.00  0.00    -0.169 F 
HETATM   32  F   UNL     1       7.160  29.000  56.304  1.00  0.00    -0.169 F 
HETATM   33  F   UNL     1       5.621  29.155  57.822  1.00  0.00    -0.169 F 
ENDBRANCH   8  30
TORSDOF 6
ENDMDL
MODEL 2
REMARK VINA RESULT:      -9.6      4.858      8.529
REMARK  6 active torsions:
REMARK  status: ('A' for Active; 'I' for Inactive)
REMARK    1  A    between atoms: O_2  and  C_3 
REMARK    2  A    between atoms: C_6  and  C_7 
REMARK    3  A    between atoms: C_13  and  C_14 
REMARK       I    between atoms: C_14  and  N_15 
REMARK    4  A    between atoms: N_15  and  C_16 
REMARK    5  A    between atoms: C_16  and  C_17 
REMARK    6  A    between atoms: C_24  and  C_25 
ROOT
HETATM    1  C   UNL     1       6.843  30.340  58.167  1.00  0.00     0.118 C 
HETATM    2  N   UNL     1       7.149  28.905  58.099  1.00  0.00    -0.365 N 
HETATM    3  C   UNL     1       6.370  28.078  57.343  1.00  0.00     0.138 A 
HETATM    4  N   UNL     1       5.193  28.532  56.792  1.00  0.00    -0.240 N 
HETATM    5  N   UNL     1       4.505  27.604  56.116  1.00  0.00    -0.181 NA
HETATM    6  C   UNL     1       5.299  26.534  56.180  1.00  0.00     0.160 A 
HETATM    7  C   UNL     1       6.473  26.753  56.948  1.00  0.00     0.096 A 
HETATM    8  C   UNL     1       4.692  29.888  56.908  1.00  0.00     0.221 C 
HETATM    9  C   UNL     1       5.320  30.562  58.132  1.00  0.00     0.066 C 
HETATM   10  H   UNL     1       8.155  28.730  58.136  1.00  0.00     0.161 HD
ENDROOT
BRANCH   7  11
HETATM   11  C   UNL     1       7.486  25.750  57.213  1.00  0.00     0.257 C 
HETATM   12  N   UNL     1       7.132  24.453  56.924  1.00  0.00    -0.352 N 
HETATM   13  H   UNL     1       6.315  24.317  56.346  1.00  0.00     0.163 HD
HETATM   14  O   UNL     1       8.598  26.056  57.631  1.00  0.00    -0.267 OA
BRANCH  12  15
HETATM   15  C   UNL     1       8.123  23.405  56.975  1.00  0.00     0.161 C 
BRANCH  15  16
HETATM   16  C   UNL     1       8.076  22.544  55.744  1.00  0.00    -0.041 A 
HETATM   17  C   UNL     1       7.870  23.113  54.479  1.00  0.00     0.009 A 
HETATM   18  C   UNL     1       7.837  22.307  53.340  1.00  0.00     0.001 A 
HETATM   19  C   UNL     1       8.002  20.928  53.454  1.00  0.00     0.000 A 
HETATM   20  C   UNL     1       8.194  20.351  54.707  1.00  0.00     0.001 A 
HETATM   21  C   UNL     1       8.225  21.154  55.848  1.00  0.00     0.009 A 
ENDBRANCH  15  16
ENDBRANCH  12  15
ENDBRANCH   7  11
BRANCH   1  22
HETATM   22  C   UNL     1       7.430  30.948  59.427  1.00  0.00    -0.035 A 
HETATM   23  C   UNL     1       6.743  31.971  60.096  1.00  0.00     0.012 A 
HETATM   24  C   UNL     1       7.221  32.473  61.309  1.00  0.00     0.037 A 
HETATM   25  C   UNL     1       8.382  31.956  61.884  1.00  0.00     0.068 A 
HETATM   26  C   UNL     1       9.093  30.964  61.212  1.00  0.00     0.037 A 
HETATM   27  C   UNL     1       8.622  30.465  59.992  1.00  0.00     0.012 A 
BRANCH  25  28
HETATM   28  O   UNL     1       8.723  32.506  63.089  1.00  0.00    -0.356 OA
HETATM   29  C   UNL     1       7.649  33.024  63.868  1.00  0.00     0.210 C 
ENDBRANCH  25  28
ENDBRANCH   1  22
BRANCH   8  30
HETATM   30  C   UNL     1       4.959  30.651  55.628  1.00  0.00     0.409 C 
HETATM   31  F   UNL     1       3.922  30.612  54.763  1.00  0.00    -0.169 F 
HETATM   32  F   UNL     1       5.273  31.946  55.839  1.00  0.00    -0.169 F 
HETATM   33  F   UNL     1       6.020  30.101  54.980  1.00  0.00    -0.169 F 
ENDBRANCH   8  30
TORSDOF 6
ENDMDL
MODEL 3
REMARK VINA RESULT:      -9.5      3.705      8.679
REMARK  6 active torsions:
REMARK  status: ('A' for Active; 'I' for Inactive)
REMARK    1  A    between atoms: O_2  and  C_3 
REMARK    2  A    between atoms: C_6  and  C_7 
REMARK    3  A    between atoms: C_13  and  C_14 
REMARK       I    between atoms: C_14  and  N_15 
REMARK    4  A    between atoms: N_15  and  C_16 
REMARK    5  A    between atoms: C_16  and  C_17 
REMARK    6  A    between atoms: C_24  and  C_25 
ROOT
HETATM    1  C   UNL     1       6.620  26.066  53.246  1.00  0.00     0.118 C 
HETATM    2  N   UNL     1       7.021  27.082  54.228  1.00  0.00    -0.365 N 
HETATM    3  C   UNL     1       7.211  26.730  55.533  1.00  0.00     0.138 A 
HETATM    4  N   UNL     1       6.854  25.479  55.981  1.00  0.00    -0.240 N 
HETATM    5  N   UNL     1       7.050  25.285  57.291  1.00  0.00    -0.181 NA
HETATM    6  C   UNL     1       7.614  26.428  57.684  1.00  0.00     0.160 A 
HETATM    7  C   UNL     1       7.728  27.384  56.641  1.00  0.00     0.096 A 
HETATM    8  C   UNL     1       6.303  24.427  55.150  1.00  0.00     0.221 C 
HETATM    9  C   UNL     1       5.672  25.042  53.896  1.00  0.00     0.066 C 
HETATM   10  H   UNL     1       7.640  27.784  53.815  1.00  0.00     0.161 HD
ENDROOT
BRANCH   7  11
HETATM   11  C   UNL     1       8.265  28.721  56.800  1.00  0.00     0.257 C 
HETATM   12  N   UNL     1       8.255  29.220  58.082  1.00  0.00    -0.352 N 
HETATM   13  H   UNL     1       8.103  28.559  58.831  1.00  0.00     0.163 HD
HETATM   14  O   UNL     1       8.733  29.342  55.852  1.00  0.00    -0.267 OA
BRANCH  12  15
HETATM   15  C   UNL     1       8.931  30.459  58.381  1.00  0.00     0.161 C 
BRANCH  15  16
HETATM   16  C   UNL     1       8.531  30.991  59.729  1.00  0.00    -0.041 A 
HETATM   17  C   UNL     1       9.202  30.579  60.889  1.00  0.00     0.009 A 
HETATM   18  C   UNL     1       8.829  31.085  62.136  1.00  0.00     0.001 A 
HETATM   19  C   UNL     1       7.784  32.001  62.236  1.00  0.00     0.000 A 
HETATM   20  C   UNL     1       7.103  32.408  61.091  1.00  0.00     0.001 A 
HETATM   21  C   UNL     1       7.471  31.901  59.843  1.00  0.00     0.009 A 
ENDBRANCH  15  16
ENDBRANCH  12  15
ENDBRANCH   7  11
BRANCH   1  22
HETATM   22  C   UNL     1       5.944  26.719  52.054  1.00  0.00    -0.035 A 
HETATM   23  C   UNL     1       5.434  25.924  51.018  1.00  0.00     0.012 A 
HETATM   24  C   UNL     1       4.723  26.503  49.963  1.00  0.00     0.037 A 
HETATM   25  C   UNL     1       4.495  27.878  49.929  1.00  0.00     0.068 A 
HETATM   26  C   UNL     1       5.027  28.683  50.934  1.00  0.00     0.037 A 
HETATM   27  C   UNL     1       5.747  28.108  51.988  1.00  0.00     0.012 A 
BRANCH  25  28
HETATM   28  O   UNL     1       3.756  28.314  48.865  1.00  0.00    -0.356 OA
HETATM   29  C   UNL     1       2.819  27.385  48.329  1.00  0.00     0.210 C 
ENDBRANCH  25  28
ENDBRANCH   1  22
BRANCH   8  30
HETATM   30  C   UNL     1       7.375  23.411  54.818  1.00  0.00     0.409 C 
HETATM   31  F   UNL     1       7.204  22.840  53.605  1.00  0.00    -0.169 F 
HETATM   32  F   UNL     1       8.622  23.923  54.863  1.00  0.00    -0.169 F 
HETATM   33  F   UNL     1       7.343  22.400  55.725  1.00  0.00    -0.169 F 
ENDBRANCH   8  30
TORSDOF 6
ENDMDL
MODEL 4
REMARK VINA RESULT:      -9.3      1.669      2.365
REMARK  6 active torsions:
REMARK  status: ('A' for Active; 'I' for Inactive)
REMARK    1  A    between atoms: O_2  and  C_3 
REMARK    2  A    between atoms: C_6  and  C_7 
REMARK    3  A    between atoms: C_13  and  C_14 
REMARK       I    between atoms: C_14  and  N_15 
REMARK    4  A    between atoms: N_15  and  C_16 
REMARK    5  A    between atoms: C_16  and  C_17 
REMARK    6  A    between atoms: C_24  and  C_25 
ROOT
HETATM    1  C   UNL     1       7.284  26.579  55.090  1.00  0.00     0.118 C 
HETATM    2  N   UNL     1       6.312  27.391  54.346  1.00  0.00    -0.365 N 
HETATM    3  C   UNL     1       5.717  28.462  54.948  1.00  0.00     0.138 A 
HETATM    4  N   UNL     1       5.873  28.685  56.297  1.00  0.00    -0.240 N 
HETATM    5  N   UNL     1       5.196  29.741  56.765  1.00  0.00    -0.181 NA
HETATM    6  C   UNL     1       4.640  30.253  55.666  1.00  0.00     0.160 A 
HETATM    7  C   UNL     1       4.909  29.494  54.497  1.00  0.00     0.096 A 
HETATM    8  C   UNL     1       6.683  27.872  57.184  1.00  0.00     0.221 C 
HETATM    9  C   UNL     1       6.873  26.480  56.570  1.00  0.00     0.066 C 
HETATM   10  H   UNL     1       6.554  27.459  53.355  1.00  0.00     0.161 HD
ENDROOT
BRANCH   7  11
HETATM   11  C   UNL     1       4.395  29.801  53.176  1.00  0.00     0.257 C 
HETATM   12  N   UNL     1       5.331  29.862  52.170  1.00  0.00    -0.352 N 
HETATM   13  H   UNL     1       6.241  29.469  52.365  1.00  0.00     0.163 HD
HETATM   14  O   UNL     1       3.195  29.954  52.974  1.00  0.00    -0.267 OA
BRANCH  12  15
HETATM   15  C   UNL     1       4.909  29.977  50.796  1.00  0.00     0.161 C 
BRANCH  15  16
HETATM   16  C   UNL     1       4.787  28.628  50.144  1.00  0.00    -0.041 A 
HETATM   17  C   UNL     1       4.420  28.513  48.795  1.00  0.00     0.009 A 
HETATM   18  C   UNL     1       4.318  27.257  48.196  1.00  0.00     0.001 A 
HETATM   19  C   UNL     1       4.577  26.105  48.937  1.00  0.00     0.000 A 
HETATM   20  C   UNL     1       4.930  26.206  50.281  1.00  0.00     0.001 A 
HETATM   21  C   UNL     1       5.030  27.461  50.883  1.00  0.00     0.009 A 
ENDBRANCH  15  16
ENDBRANCH  12  15
ENDBRANCH   7  11
BRANCH   1  22
HETATM   22  C   UNL     1       7.389  25.192  54.484  1.00  0.00    -0.035 A 
HETATM   23  C   UNL     1       7.669  25.044  53.119  1.00  0.00     0.012 A 
HETATM   24  C   UNL     1       7.866  23.775  52.567  1.00  0.00     0.037 A 
HETATM   25  C   UNL     1       7.803  22.635  53.367  1.00  0.00     0.068 A 
HETATM   26  C   UNL     1       7.490  22.766  54.719  1.00  0.00     0.037 A 
HETATM   27  C   UNL     1       7.284  24.034  55.273  1.00  0.00     0.012 A 
BRANCH  25  28
HETATM   28  O   UNL     1       8.050  21.459  52.715  1.00  0.00    -0.356 OA
HETATM   29  C   UNL     1       8.614  20.413  53.499  1.00  0.00     0.210 C 
ENDBRANCH  25  28
ENDBRANCH   1  22
BRANCH   8  30
HETATM   30  C   UNL     1       7.999  28.564  57.465  1.00  0.00     0.409 C 
HETATM   31  F   UNL     1       8.309  29.503  56.545  1.00  0.00    -0.169 F 
HETATM   32  F   UNL     1       8.043  29.145  58.681  1.00  0.00    -0.169 F 
HETATM   33  F   UNL     1       9.009  27.654  57.438  1.00  0.00    -0.169 F 
ENDBRANCH   8  30
TORSDOF 6
ENDMDL
MODEL 5
REMARK VINA RESULT:      -9.2      5.729      9.986
REMARK  6 active torsions:
REMARK  status: ('A' for Active; 'I' for Inactive)
REMARK    1  A    between atoms: O_2  and  C_3 
REMARK    2  A    between atoms: C_6  and  C_7 
REMARK    3  A    between atoms: C_13  and  C_14 
REMARK       I    between atoms: C_14  and  N_15 
REMARK    4  A    between atoms: N_15  and  C_16 
REMARK    5  A    between atoms: C_16  and  C_17 
REMARK    6  A    between atoms: C_24  and  C_25 
ROOT
HETATM    1  C   UNL     1       6.430  32.075  60.748  1.00  0.00     0.118 C 
HETATM    2  N   UNL     1       6.370  31.183  59.583  1.00  0.00    -0.365 N 
HETATM    3  C   UNL     1       7.523  30.787  58.968  1.00  0.00     0.138 A 
HETATM    4  N   UNL     1       8.729  31.357  59.306  1.00  0.00    -0.240 N 
HETATM    5  N   UNL     1       9.770  30.912  58.592  1.00  0.00    -0.181 NA
HETATM    6  C   UNL     1       9.224  29.975  57.815  1.00  0.00     0.160 A 
HETATM    7  C   UNL     1       7.819  29.857  57.984  1.00  0.00     0.096 A 
HETATM    8  C   UNL     1       8.912  32.362  60.334  1.00  0.00     0.221 C 
HETATM    9  C   UNL     1       7.583  33.082  60.589  1.00  0.00     0.066 C 
HETATM   10  H   UNL     1       5.601  30.513  59.657  1.00  0.00     0.161 HD
ENDROOT
BRANCH   7  11
HETATM   11  C   UNL     1       6.970  28.949  57.237  1.00  0.00     0.257 C 
HETATM   12  N   UNL     1       7.611  28.151  56.319  1.00  0.00    -0.352 N 
HETATM   13  H   UNL     1       8.617  28.082  56.392  1.00  0.00     0.163 HD
HETATM   14  O   UNL     1       5.764  28.877  57.449  1.00  0.00    -0.267 OA
BRANCH  12  15
HETATM   15  C   UNL     1       6.893  27.088  55.658  1.00  0.00     0.161 C 
BRANCH  15  16
HETATM   16  C   UNL     1       7.498  25.746  55.961  1.00  0.00    -0.041 A 
HETATM   17  C   UNL     1       8.296  25.560  57.099  1.00  0.00     0.009 A 
HETATM   18  C   UNL     1       8.847  24.308  57.377  1.00  0.00     0.001 A 
HETATM   19  C   UNL     1       8.610  23.233  56.522  1.00  0.00     0.000 A 
HETATM   20  C   UNL     1       7.829  23.410  55.382  1.00  0.00     0.001 A 
HETATM   21  C   UNL     1       7.280  24.662  55.099  1.00  0.00     0.009 A 
ENDBRANCH  15  16
ENDBRANCH  12  15
ENDBRANCH   7  11
BRANCH   1  22
HETATM   22  C   UNL     1       5.114  32.812  60.920  1.00  0.00    -0.035 A 
HETATM   23  C   UNL     1       4.381  33.206  59.792  1.00  0.00     0.012 A 
HETATM   24  C   UNL     1       3.123  33.797  59.933  1.00  0.00     0.037 A 
HETATM   25  C   UNL     1       2.568  33.993  61.198  1.00  0.00     0.068 A 
HETATM   26  C   UNL     1       3.301  33.638  62.327  1.00  0.00     0.037 A 
HETATM   27  C   UNL     1       4.566  33.053  62.190  1.00  0.00     0.012 A 
BRANCH  25  28
HETATM   28  O   UNL     1       1.317  34.546  61.199  1.00  0.00    -0.356 OA
HETATM   29  C   UNL     1       0.966  35.304  60.046  1.00  0.00     0.210 C 
ENDBRANCH  25  28
ENDBRANCH   1  22
BRANCH   8  30
HETATM   30  C   UNL     1       9.474  31.727  61.588  1.00  0.00     0.409 C 
HETATM   31  F   UNL     1       8.907  32.201  62.720  1.00  0.00    -0.169 F 
HETATM   32  F   UNL     1       9.358  30.383  61.599  1.00  0.00    -0.169 F 
HETATM   33  F   UNL     1      10.802  31.998  61.683  1.00  0.00    -0.169 F 
ENDBRANCH   8  30
TORSDOF 6
ENDMDL
MODEL 6
REMARK VINA RESULT:      -9.0      3.366      8.423
REMARK  6 active torsions:
REMARK  status: ('A' for Active; 'I' for Inactive)
REMARK    1  A    between atoms: O_2  and  C_3 
REMARK    2  A    between atoms: C_6  and  C_7 
REMARK    3  A    between atoms: C_13  and  C_14 
REMARK       I    between atoms: C_14  and  N_15 
REMARK    4  A    between atoms: N_15  and  C_16 
REMARK    5  A    between atoms: C_16  and  C_17 
REMARK    6  A    between atoms: C_24  and  C_25 
ROOT
HETATM    1  C   UNL     1       5.626  26.558  52.712  1.00  0.00     0.118 C 
HETATM    2  N   UNL     1       5.516  27.595  53.746  1.00  0.00    -0.365 N 
HETATM    3  C   UNL     1       5.601  27.253  55.065  1.00  0.00     0.138 A 
HETATM    4  N   UNL     1       5.602  25.931  55.448  1.00  0.00    -0.240 N 
HETATM    5  N   UNL     1       5.640  25.740  56.773  1.00  0.00    -0.181 NA
HETATM    6  C   UNL     1       5.735  26.981  57.253  1.00  0.00     0.160 A 
HETATM    7  C   UNL     1       5.697  27.977  56.243  1.00  0.00     0.096 A 
HETATM    8  C   UNL     1       5.559  24.804  54.538  1.00  0.00     0.221 C 
HETATM    9  C   UNL     1       4.970  25.252  53.195  1.00  0.00     0.066 C 
HETATM   10  H   UNL     1       5.931  28.479  53.442  1.00  0.00     0.161 HD
ENDROOT
BRANCH   7  11
HETATM   11  C   UNL     1       5.740  29.406  56.489  1.00  0.00     0.257 C 
HETATM   12  N   UNL     1       6.056  29.781  57.774  1.00  0.00    -0.352 N 
HETATM   13  H   UNL     1       6.455  29.074  58.374  1.00  0.00     0.163 HD
HETATM   14  O   UNL     1       5.545  30.218  55.590  1.00  0.00    -0.267 OA
BRANCH  12  15
HETATM   15  C   UNL     1       6.306  31.169  58.080  1.00  0.00     0.161 C 
BRANCH  15  16
HETATM   16  C   UNL     1       7.216  31.313  59.268  1.00  0.00    -0.041 A 
HETATM   17  C   UNL     1       7.025  32.348  60.195  1.00  0.00     0.009 A 
HETATM   18  C   UNL     1       7.869  32.470  61.300  1.00  0.00     0.001 A 
HETATM   19  C   UNL     1       8.912  31.565  61.487  1.00  0.00     0.000 A 
HETATM   20  C   UNL     1       9.119  30.541  60.566  1.00  0.00     0.001 A 
HETATM   21  C   UNL     1       8.278  30.418  59.458  1.00  0.00     0.009 A 
ENDBRANCH  15  16
ENDBRANCH  12  15
ENDBRANCH   7  11
BRANCH   1  22
HETATM   22  C   UNL     1       4.972  27.023  51.423  1.00  0.00    -0.035 A 
HETATM   23  C   UNL     1       4.996  26.198  50.290  1.00  0.00     0.012 A 
HETATM   24  C   UNL     1       4.315  26.569  49.128  1.00  0.00     0.037 A 
HETATM   25  C   UNL     1       3.588  27.759  49.078  1.00  0.00     0.068 A 
HETATM   26  C   UNL     1       3.587  28.604  50.186  1.00  0.00     0.037 A 
HETATM   27  C   UNL     1       4.274  28.240  51.349  1.00  0.00     0.012 A 
BRANCH  25  28
HETATM   28  O   UNL     1       2.938  27.988  47.897  1.00  0.00    -0.356 OA
HETATM   29  C   UNL     1       2.517  26.833  47.178  1.00  0.00     0.210 C 
ENDBRANCH  25  28
ENDBRANCH   1  22
BRANCH   8  30
HETATM   30  C   UNL     1       6.941  24.203  54.390  1.00  0.00     0.409 C 
HETATM   31  F   UNL     1       7.144  23.638  53.179  1.00  0.00    -0.169 F 
HETATM   32  F   UNL     1       7.931  25.093  54.603  1.00  0.00    -0.169 F 
HETATM   33  F   UNL     1       7.110  23.214  55.307  1.00  0.00    -0.169 F 
ENDBRANCH   8  30
TORSDOF 6
ENDMDL
MODEL 7
REMARK VINA RESULT:      -8.8      2.836      5.466
REMARK  6 active torsions:
REMARK  status: ('A' for Active; 'I' for Inactive)
REMARK    1  A    between atoms: O_2  and  C_3 
REMARK    2  A    between atoms: C_6  and  C_7 
REMARK    3  A    between atoms: C_13  and  C_14 
REMARK       I    between atoms: C_14  and  N_15 
REMARK    4  A    between atoms: N_15  and  C_16 
REMARK    5  A    between atoms: C_16  and  C_17 
REMARK    6  A    between atoms: C_24  and  C_25 
ROOT
HETATM    1  C   UNL     1       7.272  27.361  56.268  1.00  0.00     0.118 C 
HETATM    2  N   UNL     1       6.888  27.746  54.904  1.00  0.00    -0.365 N 
HETATM    3  C   UNL     1       6.855  26.806  53.915  1.00  0.00     0.138 A 
HETATM    4  N   UNL     1       7.352  25.541  54.132  1.00  0.00    -0.240 N 
HETATM    5  N   UNL     1       7.301  24.736  53.063  1.00  0.00    -0.181 NA
HETATM    6  C   UNL     1       6.688  25.488  52.148  1.00  0.00     0.160 A 
HETATM    7  C   UNL     1       6.397  26.800  52.606  1.00  0.00     0.096 A 
HETATM    8  C   UNL     1       7.903  25.071  55.388  1.00  0.00     0.221 C 
HETATM    9  C   UNL     1       8.358  26.270  56.228  1.00  0.00     0.066 C 
HETATM   10  H   UNL     1       6.179  28.482  54.903  1.00  0.00     0.161 HD
ENDROOT
BRANCH   7  11
HETATM   11  C   UNL     1       5.773  27.836  51.805  1.00  0.00     0.257 C 
HETATM   12  N   UNL     1       5.701  27.584  50.455  1.00  0.00    -0.352 N 
HETATM   13  H   UNL     1       5.862  26.633  50.155  1.00  0.00     0.163 HD
HETATM   14  O   UNL     1       5.307  28.849  52.316  1.00  0.00    -0.267 OA
BRANCH  12  15
HETATM   15  C   UNL     1       4.939  28.458  49.597  1.00  0.00     0.161 C 
BRANCH  15  16
HETATM   16  C   UNL     1       4.033  27.679  48.684  1.00  0.00    -0.041 A 
HETATM   17  C   UNL     1       4.229  26.305  48.482  1.00  0.00     0.009 A 
HETATM   18  C   UNL     1       3.379  25.588  47.640  1.00  0.00     0.001 A 
HETATM   19  C   UNL     1       2.331  26.234  46.988  1.00  0.00     0.000 A 
HETATM   20  C   UNL     1       2.135  27.602  47.170  1.00  0.00     0.001 A 
HETATM   21  C   UNL     1       2.985  28.322  48.010  1.00  0.00     0.009 A 
ENDBRANCH  15  16
ENDBRANCH  12  15
ENDBRANCH   7  11
BRANCH   1  22
HETATM   22  C   UNL     1       7.775  28.568  57.038  1.00  0.00    -0.035 A 
HETATM   23  C   UNL     1       9.142  28.882  57.031  1.00  0.00     0.012 A 
HETATM   24  C   UNL     1       9.606  30.044  57.653  1.00  0.00     0.037 A 
HETATM   25  C   UNL     1       8.718  30.919  58.279  1.00  0.00     0.068 A 
HETATM   26  C   UNL     1       7.363  30.600  58.324  1.00  0.00     0.037 A 
HETATM   27  C   UNL     1       6.895  29.432  57.709  1.00  0.00     0.012 A 
BRANCH  25  28
HETATM   28  O   UNL     1       9.294  32.037  58.817  1.00  0.00    -0.356 OA
HETATM   29  C   UNL     1       9.313  32.110  60.239  1.00  0.00     0.210 C 
ENDBRANCH  25  28
ENDBRANCH   1  22
BRANCH   8  30
HETATM   30  C   UNL     1       6.888  24.211  56.111  1.00  0.00     0.409 C 
HETATM   31  F   UNL     1       5.617  24.635  55.936  1.00  0.00    -0.169 F 
HETATM   32  F   UNL     1       6.945  22.912  55.755  1.00  0.00    -0.169 F 
HETATM   33  F   UNL     1       7.125  24.252  57.449  1.00  0.00    -0.169 F 
ENDBRANCH   8  30
TORSDOF 6
ENDMDL
MODEL 8
REMARK VINA RESULT:      -8.7      1.334      1.839
REMARK  6 active torsions:
REMARK  status: ('A' for Active; 'I' for Inactive)
REMARK    1  A    between atoms: O_2  and  C_3 
REMARK    2  A    between atoms: C_6  and  C_7 
REMARK    3  A    between atoms: C_13  and  C_14 
REMARK       I    between atoms: C_14  and  N_15 
REMARK    4  A    between atoms: N_15  and  C_16 
REMARK    5  A    between atoms: C_16  and  C_17 
REMARK    6  A    between atoms: C_24  and  C_25 
ROOT
HETATM    1  C   UNL     1       6.653  27.031  54.855  1.00  0.00     0.118 C 
HETATM    2  N   UNL     1       5.651  27.666  53.989  1.00  0.00    -0.365 N 
HETATM    3  C   UNL     1       4.804  28.605  54.502  1.00  0.00     0.138 A 
HETATM    4  N   UNL     1       4.748  28.833  55.859  1.00  0.00    -0.240 N 
HETATM    5  N   UNL     1       3.841  29.744  56.229  1.00  0.00    -0.181 NA
HETATM    6  C   UNL     1       3.343  30.164  55.065  1.00  0.00     0.160 A 
HETATM    7  C   UNL     1       3.886  29.481  53.945  1.00  0.00     0.096 A 
HETATM    8  C   UNL     1       5.574  28.166  56.846  1.00  0.00     0.221 C 
HETATM    9  C   UNL     1       6.086  26.839  56.273  1.00  0.00     0.066 C 
HETATM   10  H   UNL     1       5.998  27.790  53.035  1.00  0.00     0.161 HD
ENDROOT
BRANCH   7  11
HETATM   11  C   UNL     1       3.494  29.710  52.568  1.00  0.00     0.257 C 
HETATM   12  N   UNL     1       2.577  28.823  52.053  1.00  0.00    -0.352 N 
HETATM   13  H   UNL     1       2.079  28.242  52.712  1.00  0.00     0.163 HD
HETATM   14  O   UNL     1       3.927  30.662  51.927  1.00  0.00    -0.267 OA
BRANCH  12  15
HETATM   15  C   UNL     1       1.983  29.067  50.761  1.00  0.00     0.161 C 
BRANCH  15  16
HETATM   16  C   UNL     1       2.685  28.295  49.679  1.00  0.00    -0.041 A 
HETATM   17  C   UNL     1       4.036  27.944  49.810  1.00  0.00     0.009 A 
HETATM   18  C   UNL     1       4.678  27.220  48.804  1.00  0.00     0.001 A 
HETATM   19  C   UNL     1       3.980  26.845  47.658  1.00  0.00     0.000 A 
HETATM   20  C   UNL     1       2.641  27.200  47.511  1.00  0.00     0.001 A 
HETATM   21  C   UNL     1       1.997  27.926  48.514  1.00  0.00     0.009 A 
ENDBRANCH  15  16
ENDBRANCH  12  15
ENDBRANCH   7  11
BRANCH   1  22
HETATM   22  C   UNL     1       7.079  25.693  54.279  1.00  0.00    -0.035 A 
HETATM   23  C   UNL     1       6.801  24.510  54.978  1.00  0.00     0.012 A 
HETATM   24  C   UNL     1       7.100  23.266  54.416  1.00  0.00     0.037 A 
HETATM   25  C   UNL     1       7.666  23.178  53.145  1.00  0.00     0.068 A 
HETATM   26  C   UNL     1       7.980  24.346  52.455  1.00  0.00     0.037 A 
HETATM   27  C   UNL     1       7.690  25.595  53.018  1.00  0.00     0.012 A 
BRANCH  25  28
HETATM   28  O   UNL     1       7.875  21.903  52.694  1.00  0.00    -0.356 OA
HETATM   29  C   UNL     1       8.753  21.099  53.474  1.00  0.00     0.210 C 
ENDBRANCH  25  28
ENDBRANCH   1  22
BRANCH   8  30
HETATM   30  C   UNL     1       6.701  29.078  57.283  1.00  0.00     0.409 C 
HETATM   31  F   UNL     1       7.716  28.415  57.879  1.00  0.00    -0.169 F 
HETATM   32  F   UNL     1       7.217  29.804  56.271  1.00  0.00    -0.169 F 
HETATM   33  F   UNL     1       6.237  29.971  58.197  1.00  0.00    -0.169 F 
ENDBRANCH   8  30
TORSDOF 6
ENDMDL
MODEL 9
REMARK VINA RESULT:      -8.5      5.507      9.511
REMARK  6 active torsions:
REMARK  status: ('A' for Active; 'I' for Inactive)
REMARK    1  A    between atoms: O_2  and  C_3 
REMARK    2  A    between atoms: C_6  and  C_7 
REMARK    3  A    between atoms: C_13  and  C_14 
REMARK       I    between atoms: C_14  and  N_15 
REMARK    4  A    between atoms: N_15  and  C_16 
REMARK    5  A    between atoms: C_16  and  C_17 
REMARK    6  A    between atoms: C_24  and  C_25 
ROOT
HETATM    1  C   UNL     1       7.732  29.248  56.058  1.00  0.00     0.118 C 
HETATM    2  N   UNL     1       6.897  30.001  57.003  1.00  0.00    -0.365 N 
HETATM    3  C   UNL     1       7.450  30.513  58.141  1.00  0.00     0.138 A 
HETATM    4  N   UNL     1       8.733  30.178  58.511  1.00  0.00    -0.240 N 
HETATM    5  N   UNL     1       9.131  30.712  59.672  1.00  0.00    -0.181 NA
HETATM    6  C   UNL     1       8.092  31.469  60.027  1.00  0.00     0.160 A 
HETATM    7  C   UNL     1       6.998  31.378  59.126  1.00  0.00     0.096 A 
HETATM    8  C   UNL     1       9.618  29.320  57.748  1.00  0.00     0.221 C 
HETATM    9  C   UNL     1       8.788  28.426  56.819  1.00  0.00     0.066 C 
HETATM   10  H   UNL     1       6.176  30.544  56.523  1.00  0.00     0.161 HD
ENDROOT
BRANCH   7  11
HETATM   11  C   UNL     1       5.731  32.062  59.293  1.00  0.00     0.257 C 
HETATM   12  N   UNL     1       5.236  32.100  60.576  1.00  0.00    -0.352 N 
HETATM   13  H   UNL     1       5.877  31.870  61.322  1.00  0.00     0.163 HD
HETATM   14  O   UNL     1       5.165  32.604  58.349  1.00  0.00    -0.267 OA
BRANCH  12  15
HETATM   15  C   UNL     1       4.083  32.911  60.882  1.00  0.00     0.161 C 
BRANCH  15  16
HETATM   16  C   UNL     1       4.353  33.837  62.035  1.00  0.00    -0.041 A 
HETATM   17  C   UNL     1       3.413  33.993  63.064  1.00  0.00     0.009 A 
HETATM   18  C   UNL     1       3.675  34.849  64.135  1.00  0.00     0.001 A 
HETATM   19  C   UNL     1       4.873  35.559  64.187  1.00  0.00     0.000 A 
HETATM   20  C   UNL     1       5.808  35.421  63.163  1.00  0.00     0.001 A 
HETATM   21  C   UNL     1       5.548  34.569  62.089  1.00  0.00     0.009 A 
ENDBRANCH  15  16
ENDBRANCH  12  15
ENDBRANCH   7  11
BRANCH   1  22
HETATM   22  C   UNL     1       6.873  28.331  55.206  1.00  0.00    -0.035 A 
HETATM   23  C   UNL     1       7.350  27.063  54.845  1.00  0.00     0.012 A 
HETATM   24  C   UNL     1       6.533  26.171  54.145  1.00  0.00     0.037 A 
HETATM   25  C   UNL     1       5.226  26.519  53.806  1.00  0.00     0.068 A 
HETATM   26  C   UNL     1       4.753  27.790  54.128  1.00  0.00     0.037 A 
HETATM   27  C   UNL     1       5.571  28.689  54.822  1.00  0.00     0.012 A 
BRANCH  25  28
HETATM   28  O   UNL     1       4.520  25.546  53.155  1.00  0.00    -0.356 OA
HETATM   29  C   UNL     1       5.081  25.074  51.935  1.00  0.00     0.210 C 
ENDBRANCH  25  28
ENDBRANCH   1  22
BRANCH   8  30
HETATM   30  C   UNL     1      10.629  30.156  56.993  1.00  0.00     0.409 C 
HETATM   31  F   UNL     1      10.541  30.009  55.653  1.00  0.00    -0.169 F 
HETATM   32  F   UNL     1      10.542  31.472  57.271  1.00  0.00    -0.169 F 
HETATM   33  F   UNL     1      11.887  29.774  57.338  1.00  0.00    -0.169 F 
ENDBRANCH   8  30
TORSDOF 6
ENDMDL
MODEL 10
REMARK VINA RESULT:      -8.4      7.077      9.341
REMARK  6 active torsions:
REMARK  status: ('A' for Active; 'I' for Inactive)
REMARK    1  A    between atoms: O_2  and  C_3 
REMARK    2  A    between atoms: C_6  and  C_7 
REMARK    3  A    between atoms: C_13  and  C_14 
REMARK       I    between atoms: C_14  and  N_15 
REMARK    4  A    between atoms: N_15  and  C_16 
REMARK    5  A    between atoms: C_16  and  C_17 
REMARK    6  A    between atoms: C_24  and  C_25 
ROOT
HETATM    1  C   UNL     1       7.582  32.244  60.867  1.00  0.00     0.118 C 
HETATM    2  N   UNL     1       6.250  32.590  60.355  1.00  0.00    -0.365 N 
HETATM    3  C   UNL     1       5.214  32.779  61.223  1.00  0.00     0.138 A 
HETATM    4  N   UNL     1       5.352  32.470  62.557  1.00  0.00    -0.240 N 
HETATM    5  N   UNL     1       4.244  32.657  63.286  1.00  0.00    -0.181 NA
HETATM    6  C   UNL     1       3.386  33.168  62.402  1.00  0.00     0.160 A 
HETATM    7  C   UNL     1       3.919  33.255  61.089  1.00  0.00     0.096 A 
HETATM    8  C   UNL     1       6.567  31.972  63.172  1.00  0.00     0.221 C 
HETATM    9  C   UNL     1       7.457  31.332  62.101  1.00  0.00     0.066 C 
HETATM   10  H   UNL     1       6.306  33.184  59.524  1.00  0.00     0.161 HD
ENDROOT
BRANCH   7  11
HETATM   11  C   UNL     1       3.190  33.733  59.930  1.00  0.00     0.257 C 
HETATM   12  N   UNL     1       3.960  34.201  58.891  1.00  0.00    -0.352 N 
HETATM   13  H   UNL     1       4.942  33.967  58.905  1.00  0.00     0.163 HD
HETATM   14  O   UNL     1       1.965  33.682  59.876  1.00  0.00    -0.267 OA
BRANCH  12  15
HETATM   15  C   UNL     1       3.346  34.526  57.626  1.00  0.00     0.161 C 
BRANCH  15  16
HETATM   16  C   UNL     1       3.530  33.419  56.626  1.00  0.00    -0.041 A 
HETATM   17  C   UNL     1       4.697  32.642  56.623  1.00  0.00     0.009 A 
HETATM   18  C   UNL     1       4.856  31.611  55.696  1.00  0.00     0.001 A 
HETATM   19  C   UNL     1       3.855  31.349  54.763  1.00  0.00     0.000 A 
HETATM   20  C   UNL     1       2.697  32.122  54.748  1.00  0.00     0.001 A 
HETATM   21  C   UNL     1       2.536  33.156  55.672  1.00  0.00     0.009 A 
ENDBRANCH  15  16
ENDBRANCH  12  15
ENDBRANCH   7  11
BRANCH   1  22
HETATM   22  C   UNL     1       8.401  31.555  59.791  1.00  0.00    -0.035 A 
HETATM   23  C   UNL     1       7.859  30.472  59.085  1.00  0.00     0.012 A 
HETATM   24  C   UNL     1       8.563  29.892  58.027  1.00  0.00     0.037 A 
HETATM   25  C   UNL     1       9.809  30.387  57.644  1.00  0.00     0.068 A 
HETATM   26  C   UNL     1      10.373  31.440  58.360  1.00  0.00     0.037 A 
HETATM   27  C   UNL     1       9.676  32.019  59.427  1.00  0.00     0.012 A 
BRANCH  25  28
HETATM   28  O   UNL     1      10.376  29.756  56.571  1.00  0.00    -0.356 OA
HETATM   29  C   UNL     1       9.477  29.293  55.569  1.00  0.00     0.210 C 
ENDBRANCH  25  28
ENDBRANCH   1  22
BRANCH   8  30
HETATM   30  C   UNL     1       7.269  33.090  63.913  1.00  0.00     0.409 C 
HETATM   31  F   UNL     1       6.919  34.318  63.471  1.00  0.00    -0.169 F 
HETATM   32  F   UNL     1       7.062  33.055  65.245  1.00  0.00    -0.169 F 
HETATM   33  F   UNL     1       8.612  32.986  63.731  1.00  0.00    -0.169 F 
ENDBRANCH   8  30
TORSDOF 6
ENDMDL
