MODEL 1
REMARK VINA RESULT:     -10.8      0.000      0.000
REMARK  7 active torsions:
REMARK  status: ('A' for Active; 'I' for Inactive)
REMARK    1  A    between atoms: N_6  and  C_7 
REMARK    2  A    between atoms: C_9  and  N_10 
REMARK    3  A    between atoms: N_10  and  N_11 
REMARK    4  A    between atoms: C_12  and  C_13 
REMARK    5  A    between atoms: C_24  and  N_25 
REMARK    6  A    between atoms: N_25  and  C_26 
REMARK    7  A    between atoms: C_29  and  N_30 
ROOT
HETATM    1  C   UNL     1       7.122  28.423  55.719  1.00  0.00     0.756 A 
HETATM    2  N   UNL     1       7.109  27.210  56.236  1.00  0.00     0.133 NA
HETATM    3  C   UNL     1       7.657  27.058  57.440  1.00  0.00     0.774 A 
HETATM    4  N   UNL     1       8.161  28.059  58.148  1.00  0.00     0.133 NA
HETATM    5  C   UNL     1       8.056  29.260  57.600  1.00  0.00     0.758 A 
HETATM    6  N   UNL     1       7.522  29.485  56.401  1.00  0.00     0.131 NA
ENDROOT
BRANCH   3   7
HETATM    7  N   UNL     1       7.700  25.786  58.038  1.00  0.00    -0.105 N 
HETATM    8  H   UNL     1       8.422  25.790  58.755  1.00  0.00     0.208 HD
BRANCH   7   9
HETATM    9  N   UNL     1       7.554  24.698  57.226  1.00  0.00    -0.171 NA
HETATM   10  C   UNL     1       8.323  23.696  57.507  1.00  0.00     0.153 C 
BRANCH  10  11
HETATM   11  C   UNL     1       8.279  22.503  56.687  1.00  0.00     0.011 A 
HETATM   12  C   UNL     1       8.153  22.376  55.264  1.00  0.00     0.004 A 
HETATM   13  C   UNL     1       8.172  21.012  54.964  1.00  0.00     0.043 A 
HETATM   14  C   UNL     1       8.038  23.290  54.194  1.00  0.00     0.014 A 
HETATM   15  C   UNL     1       8.077  20.519  53.657  1.00  0.00     0.030 A 
HETATM   16  N   UNL     1       8.305  20.335  56.154  1.00  0.00    -0.364 N 
HETATM   17  C   UNL     1       7.964  21.448  52.619  1.00  0.00     0.002 A 
HETATM   18  C   UNL     1       7.946  22.815  52.880  1.00  0.00     0.001 A 
HETATM   19  H   UNL     1       8.353  19.328  56.236  1.00  0.00     0.165 HD
HETATM   20  C   UNL     1       8.376  21.220  57.197  1.00  0.00     0.102 A 
ENDBRANCH  10  11
ENDBRANCH   7   9
ENDBRANCH   3   7
BRANCH   1  21
HETATM   21  N   UNL     1       6.671  28.587  54.407  1.00  0.00    -0.210 N 
HETATM   22  C   UNL     1       5.217  28.646  54.222  1.00  0.00     0.169 C 
HETATM   23  C   UNL     1       4.619  27.224  54.185  1.00  0.00     0.254 C 
HETATM   24  N   UNL     1       5.338  26.374  53.126  1.00  0.00    -0.072 N 
HETATM   25  C   UNL     1       4.768  24.993  53.038  1.00  0.00     0.269 C 
HETATM   26  H   UNL     1       5.180  26.832  52.220  1.00  0.00     0.279 HD
HETATM   27  C   UNL     1       6.861  26.359  53.351  1.00  0.00     0.254 C 
HETATM   28  C   UNL     1       7.399  27.807  53.396  1.00  0.00     0.169 C 
ENDBRANCH   1  21
BRANCH   5  29
HETATM   29  N   UNL     1       8.585  30.314  58.344  1.00  0.00    -0.187 N 
HETATM   30  H   UNL     1       9.494  30.577  57.987  1.00  0.00     0.184 HD
BRANCH  29  31
HETATM   31  C   UNL     1       8.235  30.843  59.591  1.00  0.00     0.049 A 
HETATM   32  C   UNL     1       8.942  30.553  60.765  1.00  0.00     0.032 A 
HETATM   33  C   UNL     1       8.546  31.078  61.999  1.00  0.00     0.038 A 
HETATM   34  C   UNL     1       7.406  31.885  62.071  1.00  0.00     0.103 A 
HETATM   35  C   UNL     1       6.670  32.170  60.917  1.00  0.00     0.038 A 
HETATM   36  C   UNL     1       7.088  31.647  59.689  1.00  0.00     0.032 A 
BRANCH  34  37
HETATM   37  N   UNL     1       6.985  32.431  63.367  1.00  0.00    -0.116 N 
HETATM   38  O   UNL     1       7.872  32.864  64.118  1.00  0.00    -0.532 OA
HETATM   39  O   UNL     1       5.777  32.422  63.633  1.00  0.00    -0.532 OA
ENDBRANCH  34  37
ENDBRANCH  29  31
ENDBRANCH   5  29
TORSDOF 7
ENDMDL
MODEL 2
REMARK VINA RESULT:     -10.4      4.492      8.793
REMARK  7 active torsions:
REMARK  status: ('A' for Active; 'I' for Inactive)
REMARK    1  A    between atoms: N_6  and  C_7 
REMARK    2  A    between atoms: C_9  and  N_10 
REMARK    3  A    between atoms: N_10  and  N_11 
REMARK    4  A    between atoms: C_12  and  C_13 
REMARK    5  A    between atoms: C_24  and  N_25 
REMARK    6  A    between atoms: N_25  and  C_26 
REMARK    7  A    between atoms: C_29  and  N_30 
ROOT
HETATM    1  C   UNL     1       4.788  27.525  51.762  1.00  0.00     0.756 A 
HETATM    2  N   UNL     1       4.239  27.937  52.887  1.00  0.00     0.133 NA
HETATM    3  C   UNL     1       4.785  27.506  54.022  1.00  0.00     0.774 A 
HETATM    4  N   UNL     1       5.863  26.737  54.072  1.00  0.00     0.133 NA
HETATM    5  C   UNL     1       6.410  26.439  52.903  1.00  0.00     0.758 A 
HETATM    6  N   UNL     1       5.917  26.835  51.730  1.00  0.00     0.131 NA
ENDROOT
BRANCH   3   7
HETATM    7  N   UNL     1       4.231  27.886  55.258  1.00  0.00    -0.105 N 
HETATM    8  H   UNL     1       3.370  28.400  55.083  1.00  0.00     0.208 HD
BRANCH   7   9
HETATM    9  N   UNL     1       5.088  28.308  56.233  1.00  0.00    -0.171 NA
HETATM   10  C   UNL     1       5.702  29.419  55.982  1.00  0.00     0.153 C 
BRANCH  10  11
HETATM   11  C   UNL     1       6.662  29.941  56.932  1.00  0.00     0.011 A 
HETATM   12  C   UNL     1       8.095  29.883  56.910  1.00  0.00     0.004 A 
HETATM   13  C   UNL     1       8.558  30.545  58.049  1.00  0.00     0.043 A 
HETATM   14  C   UNL     1       9.051  29.340  56.022  1.00  0.00     0.014 A 
HETATM   15  C   UNL     1       9.919  30.686  58.346  1.00  0.00     0.030 A 
HETATM   16  N   UNL     1       7.454  30.990  58.737  1.00  0.00    -0.364 N 
HETATM   17  C   UNL     1      10.840  30.139  57.449  1.00  0.00     0.002 A 
HETATM   18  C   UNL     1      10.416  29.476  56.301  1.00  0.00     0.001 A 
HETATM   19  H   UNL     1       7.493  31.512  59.603  1.00  0.00     0.165 HD
HETATM   20  C   UNL     1       6.309  30.639  58.074  1.00  0.00     0.102 A 
ENDBRANCH  10  11
ENDBRANCH   7   9
ENDBRANCH   3   7
BRANCH   1  21
HETATM   21  N   UNL     1       4.161  27.857  50.559  1.00  0.00    -0.210 N 
HETATM   22  C   UNL     1       4.997  27.814  49.355  1.00  0.00     0.169 C 
HETATM   23  C   UNL     1       5.814  29.115  49.217  1.00  0.00     0.254 C 
HETATM   24  N   UNL     1       4.882  30.335  49.272  1.00  0.00    -0.072 N 
HETATM   25  C   UNL     1       5.633  31.620  49.113  1.00  0.00     0.269 C 
HETATM   26  H   UNL     1       4.237  30.253  48.475  1.00  0.00     0.279 HD
HETATM   27  C   UNL     1       4.012  30.325  50.543  1.00  0.00     0.254 C 
HETATM   28  C   UNL     1       3.233  28.995  50.635  1.00  0.00     0.169 C 
ENDBRANCH   1  21
BRANCH   5  29
HETATM   29  N   UNL     1       7.544  25.631  52.953  1.00  0.00    -0.187 N 
HETATM   30  H   UNL     1       8.248  25.966  52.308  1.00  0.00     0.184 HD
BRANCH  29  31
HETATM   31  C   UNL     1       7.758  24.356  53.489  1.00  0.00     0.049 A 
HETATM   32  C   UNL     1       7.989  24.135  54.854  1.00  0.00     0.032 A 
HETATM   33  C   UNL     1       8.228  22.849  55.350  1.00  0.00     0.038 A 
HETATM   34  C   UNL     1       8.265  21.765  54.467  1.00  0.00     0.103 A 
HETATM   35  C   UNL     1       8.060  21.963  53.098  1.00  0.00     0.038 A 
HETATM   36  C   UNL     1       7.810  23.255  52.621  1.00  0.00     0.032 A 
BRANCH  34  37
HETATM   37  N   UNL     1       8.521  20.416  54.986  1.00  0.00    -0.116 N 
HETATM   38  O   UNL     1       8.408  20.244  56.208  1.00  0.00    -0.532 OA
HETATM   39  O   UNL     1       8.838  19.537  54.175  1.00  0.00    -0.532 OA
ENDBRANCH  34  37
ENDBRANCH  29  31
ENDBRANCH   5  29
TORSDOF 7
ENDMDL
MODEL 3
REMARK VINA RESULT:     -10.4      4.284      9.529
REMARK  7 active torsions:
REMARK  status: ('A' for Active; 'I' for Inactive)
REMARK    1  A    between atoms: N_6  and  C_7 
REMARK    2  A    between atoms: C_9  and  N_10 
REMARK    3  A    between atoms: N_10  and  N_11 
REMARK    4  A    between atoms: C_12  and  C_13 
REMARK    5  A    between atoms: C_24  and  N_25 
REMARK    6  A    between atoms: N_25  and  C_26 
REMARK    7  A    between atoms: C_29  and  N_30 
ROOT
HETATM    1  C   UNL     1       5.302  27.572  54.162  1.00  0.00     0.756 A 
HETATM    2  N   UNL     1       5.464  28.748  54.737  1.00  0.00     0.133 NA
HETATM    3  C   UNL     1       6.306  28.810  55.766  1.00  0.00     0.774 A 
HETATM    4  N   UNL     1       7.010  27.774  56.200  1.00  0.00     0.133 NA
HETATM    5  C   UNL     1       6.861  26.651  55.515  1.00  0.00     0.758 A 
HETATM    6  N   UNL     1       6.037  26.518  54.478  1.00  0.00     0.131 NA
ENDROOT
BRANCH   3   7
HETATM    7  N   UNL     1       6.504  30.027  56.441  1.00  0.00    -0.105 N 
HETATM    8  H   UNL     1       6.769  30.736  55.760  1.00  0.00     0.208 HD
BRANCH   7   9
HETATM    9  N   UNL     1       7.126  29.986  57.656  1.00  0.00    -0.171 NA
HETATM   10  C   UNL     1       7.012  31.060  58.368  1.00  0.00     0.153 C 
BRANCH  10  11
HETATM   11  C   UNL     1       7.664  31.140  59.659  1.00  0.00     0.011 A 
HETATM   12  C   UNL     1       7.333  31.940  60.802  1.00  0.00     0.004 A 
HETATM   13  C   UNL     1       8.263  31.645  61.801  1.00  0.00     0.043 A 
HETATM   14  C   UNL     1       6.321  32.882  61.093  1.00  0.00     0.014 A 
HETATM   15  C   UNL     1       8.235  32.244  63.067  1.00  0.00     0.030 A 
HETATM   16  N   UNL     1       9.124  30.703  61.290  1.00  0.00    -0.364 N 
HETATM   17  C   UNL     1       7.223  33.171  63.325  1.00  0.00     0.002 A 
HETATM   18  C   UNL     1       6.276  33.487  62.355  1.00  0.00     0.001 A 
HETATM   19  H   UNL     1       9.898  30.300  61.802  1.00  0.00     0.165 HD
HETATM   20  C   UNL     1       8.772  30.387  60.005  1.00  0.00     0.102 A 
ENDBRANCH  10  11
ENDBRANCH   7   9
ENDBRANCH   3   7
BRANCH   1  21
HETATM   21  N   UNL     1       4.332  27.452  53.165  1.00  0.00    -0.210 N 
HETATM   22  C   UNL     1       4.677  26.601  52.021  1.00  0.00     0.169 C 
HETATM   23  C   UNL     1       5.536  27.383  51.006  1.00  0.00     0.254 C 
HETATM   24  N   UNL     1       4.830  28.688  50.608  1.00  0.00    -0.072 N 
HETATM   25  C   UNL     1       5.619  29.465  49.600  1.00  0.00     0.269 C 
HETATM   26  H   UNL     1       3.941  28.423  50.166  1.00  0.00     0.279 HD
HETATM   27  C   UNL     1       4.472  29.536  51.842  1.00  0.00     0.254 C 
HETATM   28  C   UNL     1       3.628  28.698  52.827  1.00  0.00     0.169 C 
ENDBRANCH   1  21
BRANCH   5  29
HETATM   29  N   UNL     1       7.602  25.561  55.970  1.00  0.00    -0.187 N 
HETATM   30  H   UNL     1       8.207  25.838  56.733  1.00  0.00     0.184 HD
BRANCH  29  31
HETATM   31  C   UNL     1       7.855  24.304  55.408  1.00  0.00     0.049 A 
HETATM   32  C   UNL     1       8.020  24.108  54.031  1.00  0.00     0.032 A 
HETATM   33  C   UNL     1       8.242  22.833  53.501  1.00  0.00     0.038 A 
HETATM   34  C   UNL     1       8.273  21.727  54.358  1.00  0.00     0.103 A 
HETATM   35  C   UNL     1       8.088  21.894  55.733  1.00  0.00     0.038 A 
HETATM   36  C   UNL     1       7.879  23.179  56.247  1.00  0.00     0.032 A 
BRANCH  34  37
HETATM   37  N   UNL     1       8.501  20.387  53.803  1.00  0.00    -0.116 N 
HETATM   38  O   UNL     1       8.276  20.225  52.595  1.00  0.00    -0.532 OA
HETATM   39  O   UNL     1       8.896  19.503  54.573  1.00  0.00    -0.532 OA
ENDBRANCH  34  37
ENDBRANCH  29  31
ENDBRANCH   5  29
TORSDOF 7
ENDMDL
MODEL 4
REMARK VINA RESULT:     -10.3      2.268      4.952
REMARK  7 active torsions:
REMARK  status: ('A' for Active; 'I' for Inactive)
REMARK    1  A    between atoms: N_6  and  C_7 
REMARK    2  A    between atoms: C_9  and  N_10 
REMARK    3  A    between atoms: N_10  and  N_11 
REMARK    4  A    between atoms: C_12  and  C_13 
REMARK    5  A    between atoms: C_24  and  N_25 
REMARK    6  A    between atoms: N_25  and  C_26 
REMARK    7  A    between atoms: C_29  and  N_30 
ROOT
HETATM    1  C   UNL     1       7.285  27.144  57.273  1.00  0.00     0.756 A 
HETATM    2  N   UNL     1       6.716  27.552  56.156  1.00  0.00     0.133 NA
HETATM    3  C   UNL     1       6.788  28.852  55.877  1.00  0.00     0.774 A 
HETATM    4  N   UNL     1       7.436  29.729  56.632  1.00  0.00     0.133 NA
HETATM    5  C   UNL     1       8.058  29.228  57.688  1.00  0.00     0.758 A 
HETATM    6  N   UNL     1       8.026  27.940  58.027  1.00  0.00     0.131 NA
ENDROOT
BRANCH   3   7
HETATM    7  N   UNL     1       6.179  29.358  54.715  1.00  0.00    -0.105 N 
HETATM    8  H   UNL     1       5.712  30.232  54.948  1.00  0.00     0.208 HD
BRANCH   7   9
HETATM    9  N   UNL     1       5.573  28.467  53.877  1.00  0.00    -0.171 NA
HETATM   10  C   UNL     1       6.125  28.344  52.714  1.00  0.00     0.153 C 
BRANCH  10  11
HETATM   11  C   UNL     1       5.543  27.454  51.731  1.00  0.00     0.011 A 
HETATM   12  C   UNL     1       5.302  27.666  50.334  1.00  0.00     0.004 A 
HETATM   13  C   UNL     1       4.732  26.497  49.825  1.00  0.00     0.043 A 
HETATM   14  C   UNL     1       5.524  28.739  49.442  1.00  0.00     0.014 A 
HETATM   15  C   UNL     1       4.372  26.348  48.480  1.00  0.00     0.030 A 
HETATM   16  N   UNL     1       4.632  25.607  50.869  1.00  0.00    -0.364 N 
HETATM   17  C   UNL     1       4.604  27.427  47.622  1.00  0.00     0.002 A 
HETATM   18  C   UNL     1       5.174  28.606  48.093  1.00  0.00     0.001 A 
HETATM   19  H   UNL     1       4.259  24.670  50.786  1.00  0.00     0.165 HD
HETATM   20  C   UNL     1       5.120  26.167  52.018  1.00  0.00     0.102 A 
ENDBRANCH  10  11
ENDBRANCH   7   9
ENDBRANCH   3   7
BRANCH   1  21
HETATM   21  N   UNL     1       7.115  25.811  57.653  1.00  0.00    -0.210 N 
HETATM   22  C   UNL     1       8.328  24.988  57.700  1.00  0.00     0.169 C 
HETATM   23  C   UNL     1       8.688  24.476  56.291  1.00  0.00     0.254 C 
HETATM   24  N   UNL     1       7.484  23.757  55.663  1.00  0.00    -0.072 N 
HETATM   25  C   UNL     1       7.801  23.219  54.303  1.00  0.00     0.269 C 
HETATM   26  H   UNL     1       7.267  22.956  56.269  1.00  0.00     0.279 HD
HETATM   27  C   UNL     1       6.232  24.654  55.654  1.00  0.00     0.254 C 
HETATM   28  C   UNL     1       5.931  25.148  57.086  1.00  0.00     0.169 C 
ENDBRANCH   1  21
BRANCH   5  29
HETATM   29  N   UNL     1       8.740  30.149  58.482  1.00  0.00    -0.187 N 
HETATM   30  H   UNL     1       9.714  30.195  58.213  1.00  0.00     0.184 HD
BRANCH  29  31
HETATM   31  C   UNL     1       8.405  30.765  59.693  1.00  0.00     0.049 A 
HETATM   32  C   UNL     1       9.139  30.574  60.871  1.00  0.00     0.032 A 
HETATM   33  C   UNL     1       8.758  31.184  62.070  1.00  0.00     0.038 A 
HETATM   34  C   UNL     1       7.607  31.978  62.104  1.00  0.00     0.103 A 
HETATM   35  C   UNL     1       6.845  32.166  60.947  1.00  0.00     0.038 A 
HETATM   36  C   UNL     1       7.248  31.558  59.753  1.00  0.00     0.032 A 
BRANCH  34  37
HETATM   37  N   UNL     1       7.202  32.615  63.363  1.00  0.00    -0.116 N 
HETATM   38  O   UNL     1       8.099  33.084  64.079  1.00  0.00    -0.532 OA
HETATM   39  O   UNL     1       5.996  32.640  63.636  1.00  0.00    -0.532 OA
ENDBRANCH  34  37
ENDBRANCH  29  31
ENDBRANCH   5  29
TORSDOF 7
ENDMDL
MODEL 5
REMARK VINA RESULT:     -10.3      1.958      2.970
REMARK  7 active torsions:
REMARK  status: ('A' for Active; 'I' for Inactive)
REMARK    1  A    between atoms: N_6  and  C_7 
REMARK    2  A    between atoms: C_9  and  N_10 
REMARK    3  A    between atoms: N_10  and  N_11 
REMARK    4  A    between atoms: C_12  and  C_13 
REMARK    5  A    between atoms: C_24  and  N_25 
REMARK    6  A    between atoms: N_25  and  C_26 
REMARK    7  A    between atoms: C_29  and  N_30 
ROOT
HETATM    1  C   UNL     1       5.479  29.236  57.326  1.00  0.00     0.756 A 
HETATM    2  N   UNL     1       6.132  28.103  57.155  1.00  0.00     0.133 NA
HETATM    3  C   UNL     1       7.384  28.050  57.605  1.00  0.00     0.774 A 
HETATM    4  N   UNL     1       7.975  29.048  58.246  1.00  0.00     0.133 NA
HETATM    5  C   UNL     1       7.226  30.119  58.459  1.00  0.00     0.758 A 
HETATM    6  N   UNL     1       5.968  30.240  58.037  1.00  0.00     0.131 NA
ENDROOT
BRANCH   3   7
HETATM    7  N   UNL     1       8.145  26.881  57.430  1.00  0.00    -0.105 N 
HETATM    8  H   UNL     1       9.064  27.028  57.843  1.00  0.00     0.208 HD
BRANCH   7   9
HETATM    9  N   UNL     1       8.032  26.222  56.240  1.00  0.00    -0.171 NA
HETATM   10  C   UNL     1       7.957  24.933  56.331  1.00  0.00     0.153 C 
BRANCH  10  11
HETATM   11  C   UNL     1       7.872  24.130  55.129  1.00  0.00     0.011 A 
HETATM   12  C   UNL     1       8.148  22.736  54.939  1.00  0.00     0.004 A 
HETATM   13  C   UNL     1       7.904  22.441  53.596  1.00  0.00     0.043 A 
HETATM   14  C   UNL     1       8.572  21.685  55.784  1.00  0.00     0.014 A 
HETATM   15  C   UNL     1       8.066  21.158  53.058  1.00  0.00     0.030 A 
HETATM   16  N   UNL     1       7.495  23.606  52.992  1.00  0.00    -0.364 N 
HETATM   17  C   UNL     1       8.485  20.140  53.918  1.00  0.00     0.002 A 
HETATM   18  C   UNL     1       8.734  20.396  55.263  1.00  0.00     0.001 A 
HETATM   19  H   UNL     1       7.242  23.684  52.015  1.00  0.00     0.165 HD
HETATM   20  C   UNL     1       7.466  24.627  53.903  1.00  0.00     0.102 A 
ENDBRANCH  10  11
ENDBRANCH   7   9
ENDBRANCH   3   7
BRANCH   1  21
HETATM   21  N   UNL     1       4.212  29.363  56.753  1.00  0.00    -0.210 N 
HETATM   22  C   UNL     1       4.075  28.898  55.368  1.00  0.00     0.169 C 
HETATM   23  C   UNL     1       4.561  29.982  54.384  1.00  0.00     0.254 C 
HETATM   24  N   UNL     1       3.839  31.310  54.659  1.00  0.00    -0.072 N 
HETATM   25  C   UNL     1       4.263  32.383  53.705  1.00  0.00     0.269 C 
HETATM   26  H   UNL     1       2.837  31.140  54.508  1.00  0.00     0.279 HD
HETATM   27  C   UNL     1       3.996  31.745  56.127  1.00  0.00     0.254 C 
HETATM   28  C   UNL     1       3.510  30.617  57.063  1.00  0.00     0.169 C 
ENDBRANCH   1  21
BRANCH   5  29
HETATM   29  N   UNL     1       7.847  31.168  59.134  1.00  0.00    -0.187 N 
HETATM   30  H   UNL     1       8.721  31.410  58.686  1.00  0.00     0.184 HD
BRANCH  29  31
HETATM   31  C   UNL     1       7.633  31.716  60.404  1.00  0.00     0.049 A 
HETATM   32  C   UNL     1       8.539  31.558  61.462  1.00  0.00     0.032 A 
HETATM   33  C   UNL     1       8.279  32.095  62.726  1.00  0.00     0.038 A 
HETATM   34  C   UNL     1       7.081  32.781  62.951  1.00  0.00     0.103 A 
HETATM   35  C   UNL     1       6.151  32.933  61.918  1.00  0.00     0.038 A 
HETATM   36  C   UNL     1       6.433  32.398  60.656  1.00  0.00     0.032 A 
BRANCH  34  37
HETATM   37  N   UNL     1       6.804  33.341  64.279  1.00  0.00    -0.116 N 
HETATM   38  O   UNL     1       7.745  33.883  64.876  1.00  0.00    -0.532 OA
HETATM   39  O   UNL     1       5.654  33.232  64.723  1.00  0.00    -0.532 OA
ENDBRANCH  34  37
ENDBRANCH  29  31
ENDBRANCH   5  29
TORSDOF 7
ENDMDL
MODEL 6
REMARK VINA RESULT:     -10.2      4.297      8.476
REMARK  7 active torsions:
REMARK  status: ('A' for Active; 'I' for Inactive)
REMARK    1  A    between atoms: N_6  and  C_7 
REMARK    2  A    between atoms: C_9  and  N_10 
REMARK    3  A    between atoms: N_10  and  N_11 
REMARK    4  A    between atoms: C_12  and  C_13 
REMARK    5  A    between atoms: C_24  and  N_25 
REMARK    6  A    between atoms: N_25  and  C_26 
REMARK    7  A    between atoms: C_29  and  N_30 
ROOT
HETATM    1  C   UNL     1       5.023  27.719  51.196  1.00  0.00     0.756 A 
HETATM    2  N   UNL     1       4.495  28.153  52.324  1.00  0.00     0.133 NA
HETATM    3  C   UNL     1       4.588  27.354  53.385  1.00  0.00     0.774 A 
HETATM    4  N   UNL     1       5.218  26.188  53.371  1.00  0.00     0.133 NA
HETATM    5  C   UNL     1       5.799  25.863  52.227  1.00  0.00     0.758 A 
HETATM    6  N   UNL     1       5.745  26.612  51.127  1.00  0.00     0.131 NA
ENDROOT
BRANCH   3   7
HETATM    7  N   UNL     1       4.023  27.745  54.612  1.00  0.00    -0.105 N 
HETATM    8  H   UNL     1       3.247  28.376  54.424  1.00  0.00     0.208 HD
BRANCH   7   9
HETATM    9  N   UNL     1       4.873  28.002  55.648  1.00  0.00    -0.171 NA
HETATM   10  C   UNL     1       5.486  29.140  55.587  1.00  0.00     0.153 C 
BRANCH  10  11
HETATM   11  C   UNL     1       6.440  29.501  56.615  1.00  0.00     0.011 A 
HETATM   12  C   UNL     1       7.872  29.538  56.561  1.00  0.00     0.004 A 
HETATM   13  C   UNL     1       8.327  29.962  57.811  1.00  0.00     0.043 A 
HETATM   14  C   UNL     1       8.834  29.264  55.562  1.00  0.00     0.014 A 
HETATM   15  C   UNL     1       9.685  30.120  58.114  1.00  0.00     0.030 A 
HETATM   16  N   UNL     1       7.218  30.176  58.596  1.00  0.00    -0.364 N 
HETATM   17  C   UNL     1      10.612  29.842  57.106  1.00  0.00     0.002 A 
HETATM   18  C   UNL     1      10.196  29.422  55.846  1.00  0.00     0.001 A 
HETATM   19  H   UNL     1       7.250  30.496  59.555  1.00  0.00     0.165 HD
HETATM   20  C   UNL     1       6.078  29.908  57.887  1.00  0.00     0.102 A 
ENDBRANCH  10  11
ENDBRANCH   7   9
ENDBRANCH   3   7
BRANCH   1  21
HETATM   21  N   UNL     1       4.828  28.478  50.040  1.00  0.00    -0.210 N 
HETATM   22  C   UNL     1       3.732  29.452  50.078  1.00  0.00     0.169 C 
HETATM   23  C   UNL     1       2.386  28.762  49.778  1.00  0.00     0.254 C 
HETATM   24  N   UNL     1       2.470  27.986  48.455  1.00  0.00    -0.072 N 
HETATM   25  C   UNL     1       1.172  27.323  48.112  1.00  0.00     0.269 C 
HETATM   26  H   UNL     1       2.670  28.674  47.718  1.00  0.00     0.279 HD
HETATM   27  C   UNL     1       3.646  26.991  48.457  1.00  0.00     0.254 C 
HETATM   28  C   UNL     1       4.961  27.735  48.778  1.00  0.00     0.169 C 
ENDBRANCH   1  21
BRANCH   5  29
HETATM   29  N   UNL     1       6.462  24.636  52.211  1.00  0.00    -0.187 N 
HETATM   30  H   UNL     1       6.356  24.188  51.310  1.00  0.00     0.184 HD
BRANCH  29  31
HETATM   31  C   UNL     1       6.969  23.837  53.242  1.00  0.00     0.049 A 
HETATM   32  C   UNL     1       6.739  24.109  54.597  1.00  0.00     0.032 A 
HETATM   33  C   UNL     1       7.286  23.304  55.602  1.00  0.00     0.038 A 
HETATM   34  C   UNL     1       8.100  22.223  55.251  1.00  0.00     0.103 A 
HETATM   35  C   UNL     1       8.363  21.944  53.907  1.00  0.00     0.038 A 
HETATM   36  C   UNL     1       7.798  22.753  52.914  1.00  0.00     0.032 A 
BRANCH  34  37
HETATM   37  N   UNL     1       8.680  21.380  56.304  1.00  0.00    -0.116 N 
HETATM   38  O   UNL     1       8.309  21.587  57.469  1.00  0.00    -0.532 OA
HETATM   39  O   UNL     1       9.505  20.522  55.969  1.00  0.00    -0.532 OA
ENDBRANCH  34  37
ENDBRANCH  29  31
ENDBRANCH   5  29
TORSDOF 7
ENDMDL
MODEL 7
REMARK VINA RESULT:     -10.2      4.311      9.120
REMARK  7 active torsions:
REMARK  status: ('A' for Active; 'I' for Inactive)
REMARK    1  A    between atoms: N_6  and  C_7 
REMARK    2  A    between atoms: C_9  and  N_10 
REMARK    3  A    between atoms: N_10  and  N_11 
REMARK    4  A    between atoms: C_12  and  C_13 
REMARK    5  A    between atoms: C_24  and  N_25 
REMARK    6  A    between atoms: N_25  and  C_26 
REMARK    7  A    between atoms: C_29  and  N_30 
ROOT
HETATM    1  C   UNL     1       4.750  27.840  53.091  1.00  0.00     0.756 A 
HETATM    2  N   UNL     1       4.414  28.191  54.317  1.00  0.00     0.133 NA
HETATM    3  C   UNL     1       5.132  27.677  55.314  1.00  0.00     0.774 A 
HETATM    4  N   UNL     1       6.177  26.883  55.130  1.00  0.00     0.133 NA
HETATM    5  C   UNL     1       6.507  26.649  53.869  1.00  0.00     0.758 A 
HETATM    6  N   UNL     1       5.834  27.129  52.825  1.00  0.00     0.131 NA
ENDROOT
BRANCH   3   7
HETATM    7  N   UNL     1       4.810  27.989  56.646  1.00  0.00    -0.105 N 
HETATM    8  H   UNL     1       3.913  28.471  56.659  1.00  0.00     0.208 HD
BRANCH   7   9
HETATM    9  N   UNL     1       5.821  28.414  57.460  1.00  0.00    -0.171 NA
HETATM   10  C   UNL     1       6.361  29.540  57.123  1.00  0.00     0.153 C 
BRANCH  10  11
HETATM   11  C   UNL     1       7.468  30.067  57.894  1.00  0.00     0.011 A 
HETATM   12  C   UNL     1       7.464  31.018  58.968  1.00  0.00     0.004 A 
HETATM   13  C   UNL     1       8.786  31.184  59.383  1.00  0.00     0.043 A 
HETATM   14  C   UNL     1       6.459  31.749  59.640  1.00  0.00     0.014 A 
HETATM   15  C   UNL     1       9.153  32.042  60.427  1.00  0.00     0.030 A 
HETATM   16  N   UNL     1       9.565  30.368  58.598  1.00  0.00    -0.364 N 
HETATM   17  C   UNL     1       8.138  32.752  61.074  1.00  0.00     0.002 A 
HETATM   18  C   UNL     1       6.808  32.608  60.689  1.00  0.00     0.001 A 
HETATM   19  H   UNL     1      10.570  30.281  58.684  1.00  0.00     0.165 HD
HETATM   20  C   UNL     1       8.784  29.687  57.703  1.00  0.00     0.102 A 
ENDBRANCH  10  11
ENDBRANCH   7   9
ENDBRANCH   3   7
BRANCH   1  21
HETATM   21  N   UNL     1       3.936  28.262  52.037  1.00  0.00    -0.210 N 
HETATM   22  C   UNL     1       4.457  28.037  50.684  1.00  0.00     0.169 C 
HETATM   23  C   UNL     1       5.441  29.158  50.291  1.00  0.00     0.254 C 
HETATM   24  N   UNL     1       4.781  30.533  50.474  1.00  0.00    -0.072 N 
HETATM   25  C   UNL     1       5.696  31.649  50.077  1.00  0.00     0.269 C 
HETATM   26  H   UNL     1       3.970  30.559  49.844  1.00  0.00     0.279 HD
HETATM   27  C   UNL     1       4.235  30.712  51.902  1.00  0.00     0.254 C 
HETATM   28  C   UNL     1       3.270  29.556  52.244  1.00  0.00     0.169 C 
ENDBRANCH   1  21
BRANCH   5  29
HETATM   29  N   UNL     1       7.607  25.815  53.675  1.00  0.00    -0.187 N 
HETATM   30  H   UNL     1       8.269  26.244  53.042  1.00  0.00     0.184 HD
BRANCH  29  31
HETATM   31  C   UNL     1       7.809  24.458  53.953  1.00  0.00     0.049 A 
HETATM   32  C   UNL     1       8.111  23.983  55.236  1.00  0.00     0.032 A 
HETATM   33  C   UNL     1       8.336  22.623  55.472  1.00  0.00     0.038 A 
HETATM   34  C   UNL     1       8.286  21.721  54.404  1.00  0.00     0.103 A 
HETATM   35  C   UNL     1       8.010  22.174  53.110  1.00  0.00     0.038 A 
HETATM   36  C   UNL     1       7.775  23.537  52.895  1.00  0.00     0.032 A 
BRANCH  34  37
HETATM   37  N   UNL     1       8.528  20.294  54.648  1.00  0.00    -0.116 N 
HETATM   38  O   UNL     1       8.366  19.878  55.805  1.00  0.00    -0.532 OA
HETATM   39  O   UNL     1       8.882  19.596  53.690  1.00  0.00    -0.532 OA
ENDBRANCH  34  37
ENDBRANCH  29  31
ENDBRANCH   5  29
TORSDOF 7
ENDMDL
MODEL 8
REMARK VINA RESULT:     -10.2      4.212      9.742
REMARK  7 active torsions:
REMARK  status: ('A' for Active; 'I' for Inactive)
REMARK    1  A    between atoms: N_6  and  C_7 
REMARK    2  A    between atoms: C_9  and  N_10 
REMARK    3  A    between atoms: N_10  and  N_11 
REMARK    4  A    between atoms: C_12  and  C_13 
REMARK    5  A    between atoms: C_24  and  N_25 
REMARK    6  A    between atoms: N_25  and  C_26 
REMARK    7  A    between atoms: C_29  and  N_30 
ROOT
HETATM    1  C   UNL     1       5.181  28.706  54.476  1.00  0.00     0.756 A 
HETATM    2  N   UNL     1       5.770  29.344  55.468  1.00  0.00     0.133 NA
HETATM    3  C   UNL     1       6.975  28.913  55.836  1.00  0.00     0.774 A 
HETATM    4  N   UNL     1       7.617  27.925  55.229  1.00  0.00     0.133 NA
HETATM    5  C   UNL     1       6.999  27.395  54.184  1.00  0.00     0.758 A 
HETATM    6  N   UNL     1       5.794  27.775  53.763  1.00  0.00     0.131 NA
ENDROOT
BRANCH   3   7
HETATM    7  N   UNL     1       7.647  29.531  56.905  1.00  0.00    -0.105 N 
HETATM    8  H   UNL     1       8.351  28.887  57.260  1.00  0.00     0.208 HD
BRANCH   7   9
HETATM    9  N   UNL     1       6.904  30.273  57.777  1.00  0.00    -0.171 NA
HETATM   10  C   UNL     1       7.579  31.104  58.504  1.00  0.00     0.153 C 
BRANCH  10  11
HETATM   11  C   UNL     1       6.897  31.917  59.490  1.00  0.00     0.011 A 
HETATM   12  C   UNL     1       7.244  32.178  60.857  1.00  0.00     0.004 A 
HETATM   13  C   UNL     1       6.270  33.033  61.378  1.00  0.00     0.043 A 
HETATM   14  C   UNL     1       8.302  31.781  61.705  1.00  0.00     0.014 A 
HETATM   15  C   UNL     1       6.298  33.503  62.697  1.00  0.00     0.030 A 
HETATM   16  N   UNL     1       5.368  33.284  60.371  1.00  0.00    -0.364 N 
HETATM   17  C   UNL     1       7.357  33.093  63.511  1.00  0.00     0.002 A 
HETATM   18  C   UNL     1       8.348  32.245  63.025  1.00  0.00     0.001 A 
HETATM   19  H   UNL     1       4.557  33.881  60.467  1.00  0.00     0.165 HD
HETATM   20  C   UNL     1       5.737  32.624  59.230  1.00  0.00     0.102 A 
ENDBRANCH  10  11
ENDBRANCH   7   9
ENDBRANCH   3   7
BRANCH   1  21
HETATM   21  N   UNL     1       3.867  29.054  54.155  1.00  0.00    -0.210 N 
HETATM   22  C   UNL     1       3.335  28.501  52.904  1.00  0.00     0.169 C 
HETATM   23  C   UNL     1       3.788  29.353  51.701  1.00  0.00     0.254 C 
HETATM   24  N   UNL     1       3.420  30.828  51.926  1.00  0.00    -0.072 N 
HETATM   25  C   UNL     1       3.819  31.686  50.766  1.00  0.00     0.269 C 
HETATM   26  H   UNL     1       2.396  30.870  52.004  1.00  0.00     0.279 HD
HETATM   27  C   UNL     1       3.984  31.355  53.258  1.00  0.00     0.254 C 
HETATM   28  C   UNL     1       3.510  30.455  54.421  1.00  0.00     0.169 C 
ENDBRANCH   1  21
BRANCH   5  29
HETATM   29  N   UNL     1       7.673  26.356  53.545  1.00  0.00    -0.187 N 
HETATM   30  H   UNL     1       8.028  26.663  52.648  1.00  0.00     0.184 HD
BRANCH  29  31
HETATM   31  C   UNL     1       7.696  24.976  53.777  1.00  0.00     0.049 A 
HETATM   32  C   UNL     1       7.579  24.419  55.057  1.00  0.00     0.032 A 
HETATM   33  C   UNL     1       7.635  23.036  55.255  1.00  0.00     0.038 A 
HETATM   34  C   UNL     1       7.839  22.191  54.159  1.00  0.00     0.103 A 
HETATM   35  C   UNL     1       7.980  22.723  52.874  1.00  0.00     0.038 A 
HETATM   36  C   UNL     1       7.910  24.109  52.694  1.00  0.00     0.032 A 
BRANCH  34  37
HETATM   37  N   UNL     1       7.903  20.739  54.366  1.00  0.00    -0.116 N 
HETATM   38  O   UNL     1       8.255  20.042  53.403  1.00  0.00    -0.532 OA
HETATM   39  O   UNL     1       7.599  20.300  55.482  1.00  0.00    -0.532 OA
ENDBRANCH  34  37
ENDBRANCH  29  31
ENDBRANCH   5  29
TORSDOF 7
ENDMDL
MODEL 9
REMARK VINA RESULT:     -10.2      3.389      5.290
REMARK  7 active torsions:
REMARK  status: ('A' for Active; 'I' for Inactive)
REMARK    1  A    between atoms: N_6  and  C_7 
REMARK    2  A    between atoms: C_9  and  N_10 
REMARK    3  A    between atoms: N_10  and  N_11 
REMARK    4  A    between atoms: C_12  and  C_13 
REMARK    5  A    between atoms: C_24  and  N_25 
REMARK    6  A    between atoms: N_25  and  C_26 
REMARK    7  A    between atoms: C_29  and  N_30 
ROOT
HETATM    1  C   UNL     1       4.389  28.232  50.663  1.00  0.00     0.756 A 
HETATM    2  N   UNL     1       5.228  27.245  50.421  1.00  0.00     0.133 NA
HETATM    3  C   UNL     1       5.733  26.605  51.473  1.00  0.00     0.774 A 
HETATM    4  N   UNL     1       5.400  26.879  52.727  1.00  0.00     0.133 NA
HETATM    5  C   UNL     1       4.484  27.823  52.884  1.00  0.00     0.758 A 
HETATM    6  N   UNL     1       3.938  28.503  51.878  1.00  0.00     0.131 NA
ENDROOT
BRANCH   3   7
HETATM    7  N   UNL     1       6.655  25.560  51.286  1.00  0.00    -0.105 N 
HETATM    8  H   UNL     1       6.584  25.234  50.324  1.00  0.00     0.208 HD
BRANCH   7   9
HETATM    9  N   UNL     1       6.806  24.658  52.300  1.00  0.00    -0.171 NA
HETATM   10  C   UNL     1       7.755  24.928  53.138  1.00  0.00     0.153 C 
BRANCH  10  11
HETATM   11  C   UNL     1       8.028  24.019  54.232  1.00  0.00     0.011 A 
HETATM   12  C   UNL     1       8.257  22.604  54.209  1.00  0.00     0.004 A 
HETATM   13  C   UNL     1       8.486  22.197  55.525  1.00  0.00     0.043 A 
HETATM   14  C   UNL     1       8.304  21.623  53.193  1.00  0.00     0.014 A 
HETATM   15  C   UNL     1       8.754  20.867  55.875  1.00  0.00     0.030 A 
HETATM   16  N   UNL     1       8.404  23.317  56.318  1.00  0.00    -0.364 N 
HETATM   17  C   UNL     1       8.794  19.920  54.848  1.00  0.00     0.002 A 
HETATM   18  C   UNL     1       8.574  20.290  53.524  1.00  0.00     0.001 A 
HETATM   19  H   UNL     1       8.535  23.318  57.321  1.00  0.00     0.165 HD
HETATM   20  C   UNL     1       8.135  24.420  55.552  1.00  0.00     0.102 A 
ENDBRANCH  10  11
ENDBRANCH   7   9
ENDBRANCH   3   7
BRANCH   1  21
HETATM   21  N   UNL     1       3.944  29.001  49.585  1.00  0.00    -0.210 N 
HETATM   22  C   UNL     1       2.500  29.247  49.514  1.00  0.00     0.169 C 
HETATM   23  C   UNL     1       1.779  28.043  48.873  1.00  0.00     0.254 C 
HETATM   24  N   UNL     1       2.412  27.707  47.514  1.00  0.00    -0.072 N 
HETATM   25  C   UNL     1       1.721  26.559  46.845  1.00  0.00     0.269 C 
HETATM   26  H   UNL     1       2.288  28.533  46.916  1.00  0.00     0.279 HD
HETATM   27  C   UNL     1       3.929  27.477  47.638  1.00  0.00     0.254 C 
HETATM   28  C   UNL     1       4.593  28.705  48.299  1.00  0.00     0.169 C 
ENDBRANCH   1  21
BRANCH   5  29
HETATM   29  N   UNL     1       4.132  28.111  54.202  1.00  0.00    -0.187 N 
HETATM   30  H   UNL     1       3.125  28.138  54.302  1.00  0.00     0.184 HD
BRANCH  29  31
HETATM   31  C   UNL     1       4.872  28.621  55.275  1.00  0.00     0.049 A 
HETATM   32  C   UNL     1       4.997  29.993  55.528  1.00  0.00     0.032 A 
HETATM   33  C   UNL     1       5.768  30.468  56.593  1.00  0.00     0.038 A 
HETATM   34  C   UNL     1       6.452  29.559  57.407  1.00  0.00     0.103 A 
HETATM   35  C   UNL     1       6.362  28.186  57.162  1.00  0.00     0.038 A 
HETATM   36  C   UNL     1       5.575  27.728  56.099  1.00  0.00     0.032 A 
BRANCH  34  37
HETATM   37  N   UNL     1       7.267  30.056  58.522  1.00  0.00    -0.116 N 
HETATM   38  O   UNL     1       6.962  31.156  59.005  1.00  0.00    -0.532 OA
HETATM   39  O   UNL     1       8.209  29.352  58.908  1.00  0.00    -0.532 OA
ENDBRANCH  34  37
ENDBRANCH  29  31
ENDBRANCH   5  29
TORSDOF 7
ENDMDL
MODEL 10
REMARK VINA RESULT:     -10.1      2.884      4.550
REMARK  7 active torsions:
REMARK  status: ('A' for Active; 'I' for Inactive)
REMARK    1  A    between atoms: N_6  and  C_7 
REMARK    2  A    between atoms: C_9  and  N_10 
REMARK    3  A    between atoms: N_10  and  N_11 
REMARK    4  A    between atoms: C_12  and  C_13 
REMARK    5  A    between atoms: C_24  and  N_25 
REMARK    6  A    between atoms: N_25  and  C_26 
REMARK    7  A    between atoms: C_29  and  N_30 
ROOT
HETATM    1  C   UNL     1       4.904  28.595  51.826  1.00  0.00     0.756 A 
HETATM    2  N   UNL     1       5.548  27.552  51.340  1.00  0.00     0.133 NA
HETATM    3  C   UNL     1       6.093  26.713  52.218  1.00  0.00     0.774 A 
HETATM    4  N   UNL     1       5.979  26.849  53.531  1.00  0.00     0.133 NA
HETATM    5  C   UNL     1       5.242  27.871  53.940  1.00  0.00     0.758 A 
HETATM    6  N   UNL     1       4.669  28.749  53.119  1.00  0.00     0.131 NA
ENDROOT
BRANCH   3   7
HETATM    7  N   UNL     1       6.817  25.595  51.766  1.00  0.00    -0.105 N 
HETATM    8  H   UNL     1       6.689  25.511  50.760  1.00  0.00     0.208 HD
BRANCH   7   9
HETATM    9  N   UNL     1       6.808  24.476  52.548  1.00  0.00    -0.171 NA
HETATM   10  C   UNL     1       7.896  23.776  52.518  1.00  0.00     0.153 C 
BRANCH  10  11
HETATM   11  C   UNL     1       7.984  22.548  53.280  1.00  0.00     0.011 A 
HETATM   12  C   UNL     1       8.120  22.358  54.695  1.00  0.00     0.004 A 
HETATM   13  C   UNL     1       8.148  20.981  54.930  1.00  0.00     0.043 A 
HETATM   14  C   UNL     1       8.210  23.224  55.808  1.00  0.00     0.014 A 
HETATM   15  C   UNL     1       8.265  20.431  56.212  1.00  0.00     0.030 A 
HETATM   16  N   UNL     1       8.032  20.358  53.710  1.00  0.00    -0.364 N 
HETATM   17  C   UNL     1       8.352  21.313  57.293  1.00  0.00     0.002 A 
HETATM   18  C   UNL     1       8.323  22.691  57.097  1.00  0.00     0.001 A 
HETATM   19  H   UNL     1       8.016  19.355  53.581  1.00  0.00     0.165 HD
HETATM   20  C   UNL     1       7.927  21.288  52.711  1.00  0.00     0.102 A 
ENDBRANCH  10  11
ENDBRANCH   7   9
ENDBRANCH   3   7
BRANCH   1  21
HETATM   21  N   UNL     1       4.433  29.558  50.930  1.00  0.00    -0.210 N 
HETATM   22  C   UNL     1       3.074  30.055  51.164  1.00  0.00     0.169 C 
HETATM   23  C   UNL     1       2.033  29.083  50.572  1.00  0.00     0.254 C 
HETATM   24  N   UNL     1       2.340  28.815  49.091  1.00  0.00    -0.072 N 
HETATM   25  C   UNL     1       1.335  27.896  48.469  1.00  0.00     0.269 C 
HETATM   26  H   UNL     1       2.275  29.718  48.605  1.00  0.00     0.279 HD
HETATM   27  C   UNL     1       3.783  28.314  48.894  1.00  0.00     0.254 C 
HETATM   28  C   UNL     1       4.776  29.317  49.520  1.00  0.00     0.169 C 
ENDBRANCH   1  21
BRANCH   5  29
HETATM   29  N   UNL     1       5.120  28.015  55.321  1.00  0.00    -0.187 N 
HETATM   30  H   UNL     1       4.187  27.765  55.623  1.00  0.00     0.184 HD
BRANCH  29  31
HETATM   31  C   UNL     1       5.916  28.675  56.264  1.00  0.00     0.049 A 
HETATM   32  C   UNL     1       6.941  28.036  56.974  1.00  0.00     0.032 A 
HETATM   33  C   UNL     1       7.697  28.720  57.931  1.00  0.00     0.038 A 
HETATM   34  C   UNL     1       7.410  30.061  58.206  1.00  0.00     0.103 A 
HETATM   35  C   UNL     1       6.378  30.715  57.527  1.00  0.00     0.038 A 
HETATM   36  C   UNL     1       5.639  30.018  56.564  1.00  0.00     0.032 A 
BRANCH  34  37
HETATM   37  N   UNL     1       8.199  30.779  59.214  1.00  0.00    -0.116 N 
HETATM   38  O   UNL     1       8.276  32.012  59.105  1.00  0.00    -0.532 OA
HETATM   39  O   UNL     1       8.744  30.114  60.103  1.00  0.00    -0.532 OA
ENDBRANCH  34  37
ENDBRANCH  29  31
ENDBRANCH   5  29
TORSDOF 7
ENDMDL
