MODEL 1
REMARK VINA RESULT:     -10.6      0.000      0.000
REMARK  3 active torsions:
REMARK  status: ('A' for Active; 'I' for Inactive)
REMARK    1  A    between atoms: C_2  and  C_3 
REMARK    2  A    between atoms: C_6  and  N_7 
REMARK    3  A    between atoms: C_14  and  C_15 
REMARK       I    between atoms: C_15  and  N_16 
ROOT
HETATM    1  N   UNL     1       6.344  27.888  56.623  1.00  0.00    -0.252 N 
HETATM    2  C   UNL     1       5.303  28.278  55.819  1.00  0.00     0.238 C 
HETATM    3  O   UNL     1       4.956  29.393  55.454  1.00  0.00    -0.272 OA
HETATM    4  C   UNL     1       4.664  27.064  55.225  1.00  0.00     0.135 C 
HETATM    5  C   UNL     1       5.258  25.893  55.986  1.00  0.00     0.130 C 
HETATM    6  C   UNL     1       6.402  26.513  56.749  1.00  0.00     0.238 C 
HETATM    7  O   UNL     1       7.101  25.861  57.508  1.00  0.00    -0.272 OA
HETATM    8  C   UNL     1       5.063  26.877  53.771  1.00  0.00     0.298 C 
HETATM    9  N   UNL     1       5.028  25.347  53.632  1.00  0.00    -0.028 N 
HETATM   10  H   UNL     1       4.040  25.068  53.539  1.00  0.00     0.287 HD
HETATM   11  C   UNL     1       5.500  24.753  54.977  1.00  0.00     0.242 C 
HETATM   12  C   UNL     1       5.701  24.900  52.447  1.00  0.00     0.203 C 
HETATM   13  C   UNL     1       6.822  24.177  52.505  1.00  0.00     0.037 C 
HETATM   14  C   UNL     1       7.439  23.740  53.751  1.00  0.00    -0.026 A 
HETATM   15  C   UNL     1       6.790  23.984  54.965  1.00  0.00    -0.016 A 
HETATM   16  C   UNL     1       8.644  23.027  53.720  1.00  0.00     0.012 A 
HETATM   17  C   UNL     1       9.191  22.519  54.896  1.00  0.00     0.001 A 
HETATM   18  C   UNL     1       8.517  22.691  56.098  1.00  0.00     0.001 A 
HETATM   19  C   UNL     1       7.314  23.397  56.128  1.00  0.00     0.010 A 
ENDROOT
BRANCH   1  20
HETATM   20  C   UNL     1       7.224  28.781  57.305  1.00  0.00     0.045 A 
HETATM   21  C   UNL     1       8.617  28.709  57.144  1.00  0.00     0.031 A 
HETATM   22  C   UNL     1       9.472  29.641  57.753  1.00  0.00     0.017 A 
HETATM   23  C   UNL     1       8.947  30.655  58.553  1.00  0.00     0.009 A 
HETATM   24  C   UNL     1       7.570  30.703  58.775  1.00  0.00     0.017 A 
HETATM   25  C   UNL     1       6.721  29.782  58.152  1.00  0.00     0.031 A 
BRANCH  23  26
HETATM   26  C   UNL     1       9.794  31.699  59.189  1.00  0.00     0.155 C 
HETATM   27  C   UNL     1       9.590  32.035  60.644  1.00  0.00     0.096 C 
HETATM   28  O   UNL     1      10.685  32.228  58.529  1.00  0.00    -0.293 OA
ENDBRANCH  23  26
ENDBRANCH   1  20
BRANCH   8  29
HETATM   29  C   UNL     1       6.419  27.535  53.428  1.00  0.00     0.248 C 
HETATM   30  N   UNL     1       6.376  28.708  52.737  1.00  0.00    -0.368 N 
HETATM   31  H   UNL     1       5.596  29.355  52.823  1.00  0.00     0.159 HD
HETATM   32  H   UNL     1       7.274  29.172  52.609  1.00  0.00     0.159 HD
HETATM   33  O   UNL     1       7.485  27.054  53.794  1.00  0.00    -0.271 OA
ENDBRANCH   8  29
TORSDOF 3
ENDMDL
MODEL 2
REMARK VINA RESULT:      -9.6      2.079      7.078
REMARK  3 active torsions:
REMARK  status: ('A' for Active; 'I' for Inactive)
REMARK    1  A    between atoms: C_2  and  C_3 
REMARK    2  A    between atoms: C_6  and  N_7 
REMARK    3  A    between atoms: C_14  and  C_15 
REMARK       I    between atoms: C_15  and  N_16 
ROOT
HETATM    1  N   UNL     1       6.698  25.826  54.200  1.00  0.00    -0.252 N 
HETATM    2  C   UNL     1       5.357  26.114  54.205  1.00  0.00     0.238 C 
HETATM    3  O   UNL     1       4.385  25.373  54.229  1.00  0.00    -0.272 OA
HETATM    4  C   UNL     1       5.177  27.590  54.369  1.00  0.00     0.135 C 
HETATM    5  C   UNL     1       6.562  28.180  54.176  1.00  0.00     0.130 C 
HETATM    6  C   UNL     1       7.467  26.974  54.210  1.00  0.00     0.238 C 
HETATM    7  O   UNL     1       8.673  27.067  54.053  1.00  0.00    -0.272 OA
HETATM    8  C   UNL     1       4.751  27.947  55.783  1.00  0.00     0.298 C 
HETATM    9  N   UNL     1       5.385  29.336  55.958  1.00  0.00    -0.028 N 
HETATM   10  H   UNL     1       4.789  30.013  55.461  1.00  0.00     0.287 HD
HETATM   11  C   UNL     1       6.727  29.327  55.193  1.00  0.00     0.242 C 
HETATM   12  C   UNL     1       5.420  29.740  57.334  1.00  0.00     0.203 C 
HETATM   13  C   UNL     1       6.569  29.894  57.994  1.00  0.00     0.037 C 
HETATM   14  C   UNL     1       7.881  29.712  57.386  1.00  0.00    -0.026 A 
HETATM   15  C   UNL     1       7.978  29.468  56.012  1.00  0.00    -0.016 A 
HETATM   16  C   UNL     1       9.036  29.844  58.167  1.00  0.00     0.012 A 
HETATM   17  C   UNL     1      10.296  29.771  57.577  1.00  0.00     0.001 A 
HETATM   18  C   UNL     1      10.403  29.603  56.203  1.00  0.00     0.001 A 
HETATM   19  C   UNL     1       9.252  29.477  55.424  1.00  0.00     0.010 A 
ENDROOT
BRANCH   1  20
HETATM   20  C   UNL     1       7.247  24.510  54.127  1.00  0.00     0.045 A 
HETATM   21  C   UNL     1       7.653  23.816  55.278  1.00  0.00     0.031 A 
HETATM   22  C   UNL     1       8.116  22.492  55.207  1.00  0.00     0.017 A 
HETATM   23  C   UNL     1       8.197  21.843  53.975  1.00  0.00     0.009 A 
HETATM   24  C   UNL     1       7.857  22.539  52.815  1.00  0.00     0.017 A 
HETATM   25  C   UNL     1       7.381  23.852  52.893  1.00  0.00     0.031 A 
BRANCH  23  26
HETATM   26  C   UNL     1       8.635  20.429  53.838  1.00  0.00     0.155 C 
HETATM   27  C   UNL     1       9.022  19.648  55.068  1.00  0.00     0.096 C 
HETATM   28  O   UNL     1       8.619  19.905  52.727  1.00  0.00    -0.293 OA
ENDBRANCH  23  26
ENDBRANCH   1  20
BRANCH   8  29
HETATM   29  C   UNL     1       5.182  26.893  56.827  1.00  0.00     0.248 C 
HETATM   30  N   UNL     1       4.226  26.021  57.252  1.00  0.00    -0.368 N 
HETATM   31  H   UNL     1       3.450  25.741  56.657  1.00  0.00     0.159 HD
HETATM   32  H   UNL     1       4.556  25.276  57.864  1.00  0.00     0.159 HD
HETATM   33  O   UNL     1       6.338  26.810  57.227  1.00  0.00    -0.271 OA
ENDBRANCH   8  29
TORSDOF 3
ENDMDL
MODEL 3
REMARK VINA RESULT:      -9.5      6.704     12.169
REMARK  3 active torsions:
REMARK  status: ('A' for Active; 'I' for Inactive)
REMARK    1  A    between atoms: C_2  and  C_3 
REMARK    2  A    between atoms: C_6  and  N_7 
REMARK    3  A    between atoms: C_14  and  C_15 
REMARK       I    between atoms: C_15  and  N_16 
ROOT
HETATM    1  N   UNL     1       5.352  33.343  61.933  1.00  0.00    -0.252 N 
HETATM    2  C   UNL     1       4.738  32.707  62.982  1.00  0.00     0.238 C 
HETATM    3  O   UNL     1       4.945  31.608  63.477  1.00  0.00    -0.272 OA
HETATM    4  C   UNL     1       3.800  33.663  63.649  1.00  0.00     0.135 C 
HETATM    5  C   UNL     1       3.712  34.850  62.707  1.00  0.00     0.130 C 
HETATM    6  C   UNL     1       4.831  34.605  61.726  1.00  0.00     0.238 C 
HETATM    7  O   UNL     1       5.044  35.357  60.789  1.00  0.00    -0.272 OA
HETATM    8  C   UNL     1       4.374  34.191  64.953  1.00  0.00     0.298 C 
HETATM    9  N   UNL     1       3.759  35.599  65.017  1.00  0.00    -0.028 N 
HETATM   10  H   UNL     1       2.783  35.495  65.329  1.00  0.00     0.287 HD
HETATM   11  C   UNL     1       3.676  36.129  63.568  1.00  0.00     0.242 C 
HETATM   12  C   UNL     1       4.421  36.429  65.980  1.00  0.00     0.203 C 
HETATM   13  C   UNL     1       5.124  37.505  65.618  1.00  0.00     0.037 C 
HETATM   14  C   UNL     1       5.253  37.960  64.240  1.00  0.00    -0.026 A 
HETATM   15  C   UNL     1       4.525  37.320  63.230  1.00  0.00    -0.016 A 
HETATM   16  C   UNL     1       6.052  39.071  63.944  1.00  0.00     0.012 A 
HETATM   17  C   UNL     1       6.104  39.575  62.646  1.00  0.00     0.001 A 
HETATM   18  C   UNL     1       5.329  38.993  61.651  1.00  0.00     0.001 A 
HETATM   19  C   UNL     1       4.528  37.889  61.947  1.00  0.00     0.010 A 
ENDROOT
BRANCH   1  20
HETATM   20  C   UNL     1       6.360  32.759  61.107  1.00  0.00     0.045 A 
HETATM   21  C   UNL     1       6.050  32.177  59.867  1.00  0.00     0.031 A 
HETATM   22  C   UNL     1       7.054  31.678  59.023  1.00  0.00     0.017 A 
HETATM   23  C   UNL     1       8.392  31.738  59.414  1.00  0.00     0.009 A 
HETATM   24  C   UNL     1       8.712  32.255  60.670  1.00  0.00     0.017 A 
HETATM   25  C   UNL     1       7.708  32.766  61.500  1.00  0.00     0.031 A 
BRANCH  23  26
HETATM   26  C   UNL     1       9.505  31.268  58.548  1.00  0.00     0.155 C 
HETATM   27  C   UNL     1       9.398  29.932  57.859  1.00  0.00     0.096 C 
HETATM   28  O   UNL     1      10.470  32.007  58.365  1.00  0.00    -0.293 OA
ENDBRANCH  23  26
ENDBRANCH   1  20
BRANCH   8  29
HETATM   29  C   UNL     1       5.918  34.148  64.994  1.00  0.00     0.248 C 
HETATM   30  N   UNL     1       6.486  33.292  65.889  1.00  0.00    -0.368 N 
HETATM   31  H   UNL     1       6.026  32.432  66.177  1.00  0.00     0.159 HD
HETATM   32  H   UNL     1       7.500  33.208  65.829  1.00  0.00     0.159 HD
HETATM   33  O   UNL     1       6.607  34.816  64.232  1.00  0.00    -0.271 OA
ENDBRANCH   8  29
TORSDOF 3
ENDMDL
MODEL 4
REMARK VINA RESULT:      -8.5      6.423     11.609
REMARK  3 active torsions:
REMARK  status: ('A' for Active; 'I' for Inactive)
REMARK    1  A    between atoms: C_2  and  C_3 
REMARK    2  A    between atoms: C_6  and  N_7 
REMARK    3  A    between atoms: C_14  and  C_15 
REMARK       I    between atoms: C_15  and  N_16 
ROOT
HETATM    1  N   UNL     1       4.210  33.323  60.651  1.00  0.00    -0.252 N 
HETATM    2  C   UNL     1       3.474  32.832  61.699  1.00  0.00     0.238 C 
HETATM    3  O   UNL     1       3.407  31.703  62.164  1.00  0.00    -0.272 OA
HETATM    4  C   UNL     1       2.815  33.973  62.408  1.00  0.00     0.135 C 
HETATM    5  C   UNL     1       3.011  35.170  61.496  1.00  0.00     0.130 C 
HETATM    6  C   UNL     1       4.017  34.681  60.484  1.00  0.00     0.238 C 
HETATM    7  O   UNL     1       4.396  35.382  59.560  1.00  0.00    -0.272 OA
HETATM    8  C   UNL     1       3.523  34.305  63.710  1.00  0.00     0.298 C 
HETATM    9  N   UNL     1       3.281  35.819  63.820  1.00  0.00    -0.028 N 
HETATM   10  H   UNL     1       2.315  35.954  64.151  1.00  0.00     0.287 HD
HETATM   11  C   UNL     1       3.309  36.393  62.386  1.00  0.00     0.242 C 
HETATM   12  C   UNL     1       4.144  36.432  64.787  1.00  0.00     0.203 C 
HETATM   13  C   UNL     1       5.087  37.308  64.433  1.00  0.00     0.037 C 
HETATM   14  C   UNL     1       5.304  37.754  63.063  1.00  0.00    -0.026 A 
HETATM   15  C   UNL     1       4.424  37.344  62.056  1.00  0.00    -0.016 A 
HETATM   16  C   UNL     1       6.351  38.639  62.775  1.00  0.00     0.012 A 
HETATM   17  C   UNL     1       6.505  39.149  61.488  1.00  0.00     0.001 A 
HETATM   18  C   UNL     1       5.594  38.807  60.498  1.00  0.00     0.001 A 
HETATM   19  C   UNL     1       4.547  37.930  60.786  1.00  0.00     0.010 A 
ENDROOT
BRANCH   1  20
HETATM   20  C   UNL     1       5.027  32.530  59.789  1.00  0.00     0.045 A 
HETATM   21  C   UNL     1       6.399  32.353  60.032  1.00  0.00     0.031 A 
HETATM   22  C   UNL     1       7.179  31.507  59.228  1.00  0.00     0.017 A 
HETATM   23  C   UNL     1       6.601  30.834  58.151  1.00  0.00     0.009 A 
HETATM   24  C   UNL     1       5.254  31.049  57.858  1.00  0.00     0.017 A 
HETATM   25  C   UNL     1       4.477  31.880  58.673  1.00  0.00     0.031 A 
BRANCH  23  26
HETATM   26  C   UNL     1       7.362  29.891  57.290  1.00  0.00     0.155 C 
HETATM   27  C   UNL     1       8.638  29.278  57.806  1.00  0.00     0.096 C 
HETATM   28  O   UNL     1       6.904  29.585  56.191  1.00  0.00    -0.293 OA
ENDBRANCH  23  26
ENDBRANCH   1  20
BRANCH   8  29
HETATM   29  C   UNL     1       5.008  33.877  63.716  1.00  0.00     0.248 C 
HETATM   30  N   UNL     1       5.326  32.766  64.437  1.00  0.00    -0.368 N 
HETATM   31  H   UNL     1       4.662  32.009  64.578  1.00  0.00     0.159 HD
HETATM   32  H   UNL     1       6.289  32.448  64.346  1.00  0.00     0.159 HD
HETATM   33  O   UNL     1       5.859  34.478  63.070  1.00  0.00    -0.271 OA
ENDBRANCH   8  29
TORSDOF 3
ENDMDL
MODEL 5
REMARK VINA RESULT:      -8.4     10.056     12.762
REMARK  3 active torsions:
REMARK  status: ('A' for Active; 'I' for Inactive)
REMARK    1  A    between atoms: C_2  and  C_3 
REMARK    2  A    between atoms: C_6  and  N_7 
REMARK    3  A    between atoms: C_14  and  C_15 
REMARK       I    between atoms: C_15  and  N_16 
ROOT
HETATM    1  N   UNL     1       5.497  34.498  64.060  1.00  0.00    -0.252 N 
HETATM    2  C   UNL     1       5.054  33.342  63.469  1.00  0.00     0.238 C 
HETATM    3  O   UNL     1       4.667  32.294  63.966  1.00  0.00    -0.272 OA
HETATM    4  C   UNL     1       4.909  33.571  61.998  1.00  0.00     0.135 C 
HETATM    5  C   UNL     1       5.586  34.904  61.738  1.00  0.00     0.130 C 
HETATM    6  C   UNL     1       5.802  35.466  63.121  1.00  0.00     0.238 C 
HETATM    7  O   UNL     1       6.362  36.534  63.304  1.00  0.00    -0.272 OA
HETATM    8  C   UNL     1       3.453  33.745  61.601  1.00  0.00     0.298 C 
HETATM    9  N   UNL     1       3.568  34.701  60.403  1.00  0.00    -0.028 N 
HETATM   10  H   UNL     1       3.866  34.142  59.590  1.00  0.00     0.287 HD
HETATM   11  C   UNL     1       4.741  35.663  60.696  1.00  0.00     0.242 C 
HETATM   12  C   UNL     1       2.306  35.291  60.065  1.00  0.00     0.203 C 
HETATM   13  C   UNL     1       2.082  36.600  60.203  1.00  0.00     0.037 C 
HETATM   14  C   UNL     1       3.087  37.549  60.663  1.00  0.00    -0.026 A 
HETATM   15  C   UNL     1       4.400  37.114  60.876  1.00  0.00    -0.016 A 
HETATM   16  C   UNL     1       2.750  38.898  60.828  1.00  0.00     0.012 A 
HETATM   17  C   UNL     1       3.726  39.830  61.170  1.00  0.00     0.001 A 
HETATM   18  C   UNL     1       5.047  39.423  61.312  1.00  0.00     0.001 A 
HETATM   19  C   UNL     1       5.384  38.080  61.142  1.00  0.00     0.010 A 
ENDROOT
BRANCH   1  20
HETATM   20  C   UNL     1       5.689  34.673  65.464  1.00  0.00     0.045 A 
HETATM   21  C   UNL     1       4.785  35.411  66.245  1.00  0.00     0.031 A 
HETATM   22  C   UNL     1       4.935  35.510  67.637  1.00  0.00     0.017 A 
HETATM   23  C   UNL     1       6.007  34.885  68.273  1.00  0.00     0.009 A 
HETATM   24  C   UNL     1       6.950  34.201  67.504  1.00  0.00     0.017 A 
HETATM   25  C   UNL     1       6.786  34.091  66.119  1.00  0.00     0.031 A 
BRANCH  23  26
HETATM   26  C   UNL     1       6.197  34.915  69.747  1.00  0.00     0.155 C 
HETATM   27  C   UNL     1       7.337  35.708  70.333  1.00  0.00     0.096 C 
HETATM   28  O   UNL     1       5.385  34.337  70.465  1.00  0.00    -0.293 OA
ENDBRANCH  23  26
ENDBRANCH   1  20
BRANCH   8  29
HETATM   29  C   UNL     1       2.567  34.251  62.761  1.00  0.00     0.248 C 
HETATM   30  N   UNL     1       1.795  33.326  63.396  1.00  0.00    -0.368 N 
HETATM   31  H   UNL     1       2.074  32.350  63.465  1.00  0.00     0.159 HD
HETATM   32  H   UNL     1       1.297  33.663  64.218  1.00  0.00     0.159 HD
HETATM   33  O   UNL     1       2.583  35.421  63.127  1.00  0.00    -0.271 OA
ENDBRANCH   8  29
TORSDOF 3
ENDMDL
MODEL 6
REMARK VINA RESULT:      -8.2      5.393      8.719
REMARK  3 active torsions:
REMARK  status: ('A' for Active; 'I' for Inactive)
REMARK    1  A    between atoms: C_2  and  C_3 
REMARK    2  A    between atoms: C_6  and  N_7 
REMARK    3  A    between atoms: C_14  and  C_15 
REMARK       I    between atoms: C_15  and  N_16 
ROOT
HETATM    1  N   UNL     1       5.033  27.376  49.882  1.00  0.00    -0.252 N 
HETATM    2  C   UNL     1       4.446  26.726  48.827  1.00  0.00     0.238 C 
HETATM    3  O   UNL     1       3.889  25.639  48.774  1.00  0.00    -0.272 OA
HETATM    4  C   UNL     1       4.392  27.651  47.653  1.00  0.00     0.135 C 
HETATM    5  C   UNL     1       5.270  28.828  48.038  1.00  0.00     0.130 C 
HETATM    6  C   UNL     1       5.515  28.618  49.512  1.00  0.00     0.238 C 
HETATM    7  O   UNL     1       6.220  29.371  50.163  1.00  0.00    -0.272 OA
HETATM    8  C   UNL     1       2.995  28.209  47.444  1.00  0.00     0.298 C 
HETATM    9  N   UNL     1       3.296  29.593  46.848  1.00  0.00    -0.028 N 
HETATM   10  H   UNL     1       3.539  29.456  45.856  1.00  0.00     0.287 HD
HETATM   11  C   UNL     1       4.587  30.110  47.521  1.00  0.00     0.242 C 
HETATM   12  C   UNL     1       2.150  30.454  46.884  1.00  0.00     0.203 C 
HETATM   13  C   UNL     1       2.118  31.552  47.642  1.00  0.00     0.037 C 
HETATM   14  C   UNL     1       3.235  32.002  48.461  1.00  0.00    -0.026 A 
HETATM   15  C   UNL     1       4.460  31.329  48.388  1.00  0.00    -0.016 A 
HETATM   16  C   UNL     1       3.097  33.140  49.266  1.00  0.00     0.012 A 
HETATM   17  C   UNL     1       4.188  33.636  49.976  1.00  0.00     0.001 A 
HETATM   18  C   UNL     1       5.426  33.020  49.853  1.00  0.00     0.001 A 
HETATM   19  C   UNL     1       5.566  31.890  49.047  1.00  0.00     0.010 A 
ENDROOT
BRANCH   1  20
HETATM   20  C   UNL     1       5.196  26.825  51.189  1.00  0.00     0.045 A 
HETATM   21  C   UNL     1       6.000  25.696  51.418  1.00  0.00     0.031 A 
HETATM   22  C   UNL     1       6.220  25.208  52.716  1.00  0.00     0.017 A 
HETATM   23  C   UNL     1       5.623  25.833  53.810  1.00  0.00     0.009 A 
HETATM   24  C   UNL     1       4.770  26.916  53.594  1.00  0.00     0.017 A 
HETATM   25  C   UNL     1       4.568  27.409  52.301  1.00  0.00     0.031 A 
BRANCH  23  26
HETATM   26  C   UNL     1       5.852  25.392  55.212  1.00  0.00     0.155 C 
HETATM   27  C   UNL     1       6.788  24.244  55.486  1.00  0.00     0.096 C 
HETATM   28  O   UNL     1       5.316  26.013  56.127  1.00  0.00    -0.293 OA
ENDBRANCH  23  26
ENDBRANCH   1  20
BRANCH   8  29
HETATM   29  C   UNL     1       2.150  28.222  48.738  1.00  0.00     0.248 C 
HETATM   30  N   UNL     1       1.142  27.310  48.825  1.00  0.00    -0.368 N 
HETATM   31  H   UNL     1       1.190  26.409  48.354  1.00  0.00     0.159 HD
HETATM   32  H   UNL     1       0.665  27.272  49.724  1.00  0.00     0.159 HD
HETATM   33  O   UNL     1       2.396  28.984  49.666  1.00  0.00    -0.271 OA
ENDBRANCH   8  29
TORSDOF 3
ENDMDL
MODEL 7
REMARK VINA RESULT:      -8.2      3.280      6.610
REMARK  3 active torsions:
REMARK  status: ('A' for Active; 'I' for Inactive)
REMARK    1  A    between atoms: C_2  and  C_3 
REMARK    2  A    between atoms: C_6  and  N_7 
REMARK    3  A    between atoms: C_14  and  C_15 
REMARK       I    between atoms: C_15  and  N_16 
ROOT
HETATM    1  N   UNL     1       4.773  27.142  52.327  1.00  0.00    -0.252 N 
HETATM    2  C   UNL     1       4.872  25.809  52.019  1.00  0.00     0.238 C 
HETATM    3  O   UNL     1       5.027  25.252  50.941  1.00  0.00    -0.272 OA
HETATM    4  C   UNL     1       4.954  25.020  53.286  1.00  0.00     0.135 C 
HETATM    5  C   UNL     1       4.607  26.006  54.387  1.00  0.00     0.130 C 
HETATM    6  C   UNL     1       4.643  27.342  53.688  1.00  0.00     0.238 C 
HETATM    7  O   UNL     1       4.379  28.382  54.269  1.00  0.00    -0.272 OA
HETATM    8  C   UNL     1       6.373  24.552  53.562  1.00  0.00     0.298 C 
HETATM    9  N   UNL     1       6.403  24.535  55.099  1.00  0.00    -0.028 N 
HETATM   10  H   UNL     1       5.915  23.683  55.408  1.00  0.00     0.287 HD
HETATM   11  C   UNL     1       5.529  25.712  55.587  1.00  0.00     0.242 C 
HETATM   12  C   UNL     1       7.741  24.460  55.608  1.00  0.00     0.203 C 
HETATM   13  C   UNL     1       8.290  25.462  56.297  1.00  0.00     0.037 C 
HETATM   14  C   UNL     1       7.587  26.694  56.632  1.00  0.00    -0.026 A 
HETATM   15  C   UNL     1       6.228  26.818  56.323  1.00  0.00    -0.016 A 
HETATM   16  C   UNL     1       8.257  27.716  57.315  1.00  0.00     0.012 A 
HETATM   17  C   UNL     1       7.568  28.855  57.728  1.00  0.00     0.001 A 
HETATM   18  C   UNL     1       6.204  28.957  57.491  1.00  0.00     0.001 A 
HETATM   19  C   UNL     1       5.535  27.936  56.815  1.00  0.00     0.010 A 
ENDROOT
BRANCH   1  20
HETATM   20  C   UNL     1       4.739  28.199  51.368  1.00  0.00     0.045 A 
HETATM   21  C   UNL     1       5.749  29.173  51.309  1.00  0.00     0.031 A 
HETATM   22  C   UNL     1       5.753  30.162  50.312  1.00  0.00     0.017 A 
HETATM   23  C   UNL     1       4.732  30.203  49.362  1.00  0.00     0.009 A 
HETATM   24  C   UNL     1       3.687  29.282  49.445  1.00  0.00     0.017 A 
HETATM   25  C   UNL     1       3.697  28.289  50.430  1.00  0.00     0.031 A 
BRANCH  23  26
HETATM   26  C   UNL     1       4.702  31.196  48.256  1.00  0.00     0.155 C 
HETATM   27  C   UNL     1       4.070  30.822  46.940  1.00  0.00     0.096 C 
HETATM   28  O   UNL     1       5.145  32.325  48.455  1.00  0.00    -0.293 OA
ENDBRANCH  23  26
ENDBRANCH   1  20
BRANCH   8  29
HETATM   29  C   UNL     1       7.443  25.444  52.895  1.00  0.00     0.248 C 
HETATM   30  N   UNL     1       8.043  24.954  51.775  1.00  0.00    -0.368 N 
HETATM   31  H   UNL     1       7.563  24.317  51.143  1.00  0.00     0.159 HD
HETATM   32  H   UNL     1       8.671  25.599  51.298  1.00  0.00     0.159 HD
HETATM   33  O   UNL     1       7.716  26.560  53.322  1.00  0.00    -0.271 OA
ENDBRANCH   8  29
TORSDOF 3
ENDMDL
MODEL 8
REMARK VINA RESULT:      -8.0      7.326     10.291
REMARK  3 active torsions:
REMARK  status: ('A' for Active; 'I' for Inactive)
REMARK    1  A    between atoms: C_2  and  C_3 
REMARK    2  A    between atoms: C_6  and  N_7 
REMARK    3  A    between atoms: C_14  and  C_15 
REMARK       I    between atoms: C_15  and  N_16 
ROOT
HETATM    1  N   UNL     1       4.813  35.335  63.101  1.00  0.00    -0.252 N 
HETATM    2  C   UNL     1       3.545  34.993  62.705  1.00  0.00     0.238 C 
HETATM    3  O   UNL     1       2.561  35.690  62.500  1.00  0.00    -0.272 OA
HETATM    4  C   UNL     1       3.523  33.543  62.340  1.00  0.00     0.135 C 
HETATM    5  C   UNL     1       4.849  32.992  62.834  1.00  0.00     0.130 C 
HETATM    6  C   UNL     1       5.640  34.230  63.174  1.00  0.00     0.238 C 
HETATM    7  O   UNL     1       6.766  34.170  63.639  1.00  0.00    -0.272 OA
HETATM    8  C   UNL     1       3.510  33.345  60.834  1.00  0.00     0.298 C 
HETATM    9  N   UNL     1       4.269  32.017  60.687  1.00  0.00    -0.028 N 
HETATM   10  H   UNL     1       3.615  31.259  60.930  1.00  0.00     0.287 HD
HETATM   11  C   UNL     1       5.359  31.988  61.781  1.00  0.00     0.242 C 
HETATM   12  C   UNL     1       4.693  31.788  59.336  1.00  0.00     0.203 C 
HETATM   13  C   UNL     1       5.983  31.765  58.997  1.00  0.00     0.037 C 
HETATM   14  C   UNL     1       7.073  31.926  59.951  1.00  0.00    -0.026 A 
HETATM   15  C   UNL     1       6.787  32.002  61.318  1.00  0.00    -0.016 A 
HETATM   16  C   UNL     1       8.399  31.940  59.500  1.00  0.00     0.012 A 
HETATM   17  C   UNL     1       9.451  31.994  60.411  1.00  0.00     0.001 A 
HETATM   18  C   UNL     1       9.182  31.995  61.774  1.00  0.00     0.001 A 
HETATM   19  C   UNL     1       7.861  31.975  62.223  1.00  0.00     0.010 A 
ENDROOT
BRANCH   1  20
HETATM   20  C   UNL     1       5.224  36.654  63.460  1.00  0.00     0.045 A 
HETATM   21  C   UNL     1       4.991  37.174  64.744  1.00  0.00     0.031 A 
HETATM   22  C   UNL     1       5.469  38.441  65.117  1.00  0.00     0.017 A 
HETATM   23  C   UNL     1       6.178  39.219  64.202  1.00  0.00     0.009 A 
HETATM   24  C   UNL     1       6.364  38.744  62.903  1.00  0.00     0.017 A 
HETATM   25  C   UNL     1       5.900  37.474  62.542  1.00  0.00     0.031 A 
BRANCH  23  26
HETATM   26  C   UNL     1       6.749  40.548  64.548  1.00  0.00     0.155 C 
HETATM   27  C   UNL     1       7.751  41.189  63.624  1.00  0.00     0.096 C 
HETATM   28  O   UNL     1       6.349  41.124  65.557  1.00  0.00    -0.293 OA
ENDBRANCH  23  26
ENDBRANCH   1  20
BRANCH   8  29
HETATM   29  C   UNL     1       4.121  34.538  60.064  1.00  0.00     0.248 C 
HETATM   30  N   UNL     1       3.255  35.341  59.385  1.00  0.00    -0.368 N 
HETATM   31  H   UNL     1       2.295  35.476  59.691  1.00  0.00     0.159 HD
HETATM   32  H   UNL     1       3.668  36.174  58.969  1.00  0.00     0.159 HD
HETATM   33  O   UNL     1       5.322  34.782  60.092  1.00  0.00    -0.271 OA
ENDBRANCH   8  29
TORSDOF 3
ENDMDL
