MODEL 1
REMARK VINA RESULT:      -9.7      0.000      0.000
REMARK  8 active torsions:
REMARK  status: ('A' for Active; 'I' for Inactive)
REMARK    1  A    between atoms: C_3  and  C_4 
REMARK       I    between atoms: C_4  and  N_5 
REMARK    2  A    between atoms: N_5  and  C_6 
REMARK    3  A    between atoms: C_14  and  N_15 
REMARK       I    between atoms: N_15  and  C_16 
REMARK    4  A    between atoms: C_16  and  C_17 
REMARK       I    between atoms: C_17  and  N_18 
REMARK    5  A    between atoms: N_18  and  N_19 
REMARK    6  A    between atoms: C_20  and  C_21 
REMARK    7  A    between atoms: C_22  and  O_23 
REMARK    8  A    between atoms: C_25  and  O_26 
ROOT
HETATM    1  N   UNL     1       5.648  28.087  53.573  1.00  0.00    -0.318 N 
HETATM    2  C   UNL     1       6.848  27.992  54.240  1.00  0.00     0.315 C 
HETATM    3  O   UNL     1       7.961  27.756  53.784  1.00  0.00    -0.262 OA
HETATM    4  H   UNL     1       4.842  28.367  54.147  1.00  0.00     0.169 HD
ENDROOT
BRANCH   1   5
HETATM    5  C   UNL     1       5.388  27.826  52.207  1.00  0.00     0.051 A 
HETATM    6  C   UNL     1       5.351  26.493  51.742  1.00  0.00     0.059 A 
HETATM    7  C   UNL     1       5.166  26.221  50.373  1.00  0.00     0.019 A 
HETATM    8  C   UNL     1       4.975  27.265  49.471  1.00  0.00     0.001 A 
HETATM    9  C   UNL     1       4.972  28.579  49.928  1.00  0.00     0.002 A 
HETATM   10  C   UNL     1       5.181  28.857  51.283  1.00  0.00     0.030 A 
BRANCH   6  11
HETATM   11  C   UNL     1       5.481  25.353  52.698  1.00  0.00     0.258 C 
HETATM   12  N   UNL     1       6.760  24.836  52.815  1.00  0.00    -0.323 N 
HETATM   13  H   UNL     1       7.468  25.218  52.201  1.00  0.00     0.169 HD
HETATM   14  O   UNL     1       4.466  24.935  53.240  1.00  0.00    -0.267 OA
BRANCH  12  15
HETATM   15  C   UNL     1       7.176  23.758  53.623  1.00  0.00     0.035 A 
HETATM   16  C   UNL     1       7.154  23.772  55.020  1.00  0.00     0.031 A 
HETATM   17  C   UNL     1       7.581  22.655  55.748  1.00  0.00     0.026 A 
HETATM   18  C   UNL     1       8.037  21.522  55.081  1.00  0.00     0.034 A 
HETATM   19 CL   UNL     1       8.560  20.151  55.976  1.00  0.00    -0.084 Cl
HETATM   20  C   UNL     1       8.069  21.494  53.690  1.00  0.00     0.026 A 
HETATM   21  C   UNL     1       7.641  22.610  52.965  1.00  0.00     0.031 A 
ENDBRANCH  12  15
ENDBRANCH   6  11
ENDBRANCH   1   5
BRANCH   2  22
HETATM   22  C   UNL     1       6.732  28.293  55.745  1.00  0.00     0.329 C 
HETATM   23  N   UNL     1       6.779  29.652  55.998  1.00  0.00    -0.239 N 
HETATM   24  H   UNL     1       6.894  30.279  55.203  1.00  0.00     0.192 HD
HETATM   25  O   UNL     1       6.596  27.383  56.550  1.00  0.00    -0.261 OA
BRANCH  23  26
HETATM   26  N   UNL     1       6.721  30.130  57.270  1.00  0.00    -0.183 NA
HETATM   27  C   UNL     1       7.858  30.503  57.768  1.00  0.00     0.153 C 
BRANCH  27  28
HETATM   28  C   UNL     1       7.956  31.012  59.150  1.00  0.00     0.016 A 
HETATM   29  C   UNL     1       7.166  32.073  59.612  1.00  0.00     0.080 A 
HETATM   30  C   UNL     1       7.271  32.506  60.932  1.00  0.00     0.074 A 
HETATM   31  C   UNL     1       8.177  31.880  61.784  1.00  0.00     0.068 A 
HETATM   32  C   UNL     1       8.974  30.830  61.336  1.00  0.00     0.037 A 
HETATM   33  C   UNL     1       8.862  30.389  60.016  1.00  0.00     0.018 A 
BRANCH  29  34
HETATM   34  O   UNL     1       6.260  32.732  58.827  1.00  0.00    -0.360 OA
HETATM   35  H   UNL     1       6.584  32.713  57.898  1.00  0.00     0.217 HD
ENDBRANCH  29  34
BRANCH  31  36
HETATM   36  O   UNL     1       8.316  32.269  63.082  1.00  0.00    -0.361 OA
HETATM   37  H   UNL     1       7.467  32.630  63.390  1.00  0.00     0.217 HD
ENDBRANCH  31  36
ENDBRANCH  27  28
ENDBRANCH  23  26
ENDBRANCH   2  22
TORSDOF 8
ENDMDL
MODEL 2
REMARK VINA RESULT:      -9.7      3.431      5.947
REMARK  8 active torsions:
REMARK  status: ('A' for Active; 'I' for Inactive)
REMARK    1  A    between atoms: C_3  and  C_4 
REMARK       I    between atoms: C_4  and  N_5 
REMARK    2  A    between atoms: N_5  and  C_6 
REMARK    3  A    between atoms: C_14  and  N_15 
REMARK       I    between atoms: N_15  and  C_16 
REMARK    4  A    between atoms: C_16  and  C_17 
REMARK       I    between atoms: C_17  and  N_18 
REMARK    5  A    between atoms: N_18  and  N_19 
REMARK    6  A    between atoms: C_20  and  C_21 
REMARK    7  A    between atoms: C_22  and  O_23 
REMARK    8  A    between atoms: C_25  and  O_26 
ROOT
HETATM    1  N   UNL     1       7.297  23.993  55.807  1.00  0.00    -0.318 N 
HETATM    2  C   UNL     1       8.079  24.617  56.753  1.00  0.00     0.315 C 
HETATM    3  O   UNL     1       9.228  24.354  57.090  1.00  0.00    -0.262 OA
HETATM    4  H   UNL     1       6.382  24.428  55.633  1.00  0.00     0.169 HD
ENDROOT
BRANCH   1   5
HETATM    5  C   UNL     1       7.591  22.824  55.067  1.00  0.00     0.051 A 
HETATM    6  C   UNL     1       7.543  22.855  53.656  1.00  0.00     0.059 A 
HETATM    7  C   UNL     1       7.762  21.682  52.910  1.00  0.00     0.019 A 
HETATM    8  C   UNL     1       8.068  20.487  53.556  1.00  0.00     0.001 A 
HETATM    9  C   UNL     1       8.154  20.457  54.945  1.00  0.00     0.002 A 
HETATM   10  C   UNL     1       7.914  21.614  55.694  1.00  0.00     0.030 A 
BRANCH   6  11
HETATM   11  C   UNL     1       7.288  24.138  52.935  1.00  0.00     0.258 C 
HETATM   12  N   UNL     1       5.959  24.522  52.886  1.00  0.00    -0.323 N 
HETATM   13  H   UNL     1       5.280  23.877  53.270  1.00  0.00     0.169 HD
HETATM   14  O   UNL     1       8.236  24.702  52.405  1.00  0.00    -0.267 OA
BRANCH  12  15
HETATM   15  C   UNL     1       5.422  25.669  52.266  1.00  0.00     0.035 A 
HETATM   16  C   UNL     1       5.350  25.850  50.882  1.00  0.00     0.031 A 
HETATM   17  C   UNL     1       4.796  27.019  50.347  1.00  0.00     0.026 A 
HETATM   18  C   UNL     1       4.317  28.014  51.194  1.00  0.00     0.034 A 
HETATM   19 CL   UNL     1       3.637  29.449  50.535  1.00  0.00    -0.084 Cl
HETATM   20  C   UNL     1       4.386  27.850  52.574  1.00  0.00     0.026 A 
HETATM   21  C   UNL     1       4.938  26.682  53.107  1.00  0.00     0.031 A 
ENDBRANCH  12  15
ENDBRANCH   6  11
ENDBRANCH   1   5
BRANCH   2  22
HETATM   22  C   UNL     1       7.398  25.837  57.397  1.00  0.00     0.329 C 
HETATM   23  N   UNL     1       6.280  26.232  56.684  1.00  0.00    -0.239 N 
HETATM   24  H   UNL     1       6.046  25.709  55.841  1.00  0.00     0.192 HD
HETATM   25  O   UNL     1       7.842  26.323  58.426  1.00  0.00    -0.261 OA
BRANCH  23  26
HETATM   26  N   UNL     1       5.548  27.312  57.070  1.00  0.00    -0.183 NA
HETATM   27  C   UNL     1       5.609  28.330  56.271  1.00  0.00     0.153 C 
BRANCH  27  28
HETATM   28  C   UNL     1       4.893  29.583  56.576  1.00  0.00     0.016 A 
HETATM   29  C   UNL     1       5.290  30.436  57.614  1.00  0.00     0.080 A 
HETATM   30  C   UNL     1       4.602  31.624  57.853  1.00  0.00     0.074 A 
HETATM   31  C   UNL     1       3.509  31.948  57.055  1.00  0.00     0.068 A 
HETATM   32  C   UNL     1       3.098  31.107  56.025  1.00  0.00     0.037 A 
HETATM   33  C   UNL     1       3.792  29.921  55.779  1.00  0.00     0.018 A 
BRANCH  29  34
HETATM   34  O   UNL     1       6.352  30.174  58.436  1.00  0.00    -0.360 OA
HETATM   35  H   UNL     1       7.181  30.302  57.920  1.00  0.00     0.217 HD
ENDBRANCH  29  34
BRANCH  31  36
HETATM   36  O   UNL     1       2.804  33.099  57.250  1.00  0.00    -0.361 OA
HETATM   37  H   UNL     1       2.501  33.427  56.387  1.00  0.00     0.217 HD
ENDBRANCH  31  36
ENDBRANCH  27  28
ENDBRANCH  23  26
ENDBRANCH   2  22
TORSDOF 8
ENDMDL
MODEL 3
REMARK VINA RESULT:      -9.6      1.161      1.707
REMARK  8 active torsions:
REMARK  status: ('A' for Active; 'I' for Inactive)
REMARK    1  A    between atoms: C_3  and  C_4 
REMARK       I    between atoms: C_4  and  N_5 
REMARK    2  A    between atoms: N_5  and  C_6 
REMARK    3  A    between atoms: C_14  and  N_15 
REMARK       I    between atoms: N_15  and  C_16 
REMARK    4  A    between atoms: C_16  and  C_17 
REMARK       I    between atoms: C_17  and  N_18 
REMARK    5  A    between atoms: N_18  and  N_19 
REMARK    6  A    between atoms: C_20  and  C_21 
REMARK    7  A    between atoms: C_22  and  O_23 
REMARK    8  A    between atoms: C_25  and  O_26 
ROOT
HETATM    1  N   UNL     1       6.068  28.022  54.344  1.00  0.00    -0.318 N 
HETATM    2  C   UNL     1       7.293  28.309  54.903  1.00  0.00     0.315 C 
HETATM    3  O   UNL     1       8.346  28.584  54.340  1.00  0.00    -0.262 OA
HETATM    4  H   UNL     1       5.297  27.891  55.010  1.00  0.00     0.169 HD
ENDROOT
BRANCH   1   5
HETATM    5  C   UNL     1       5.752  27.867  52.974  1.00  0.00     0.051 A 
HETATM    6  C   UNL     1       5.758  26.579  52.394  1.00  0.00     0.059 A 
HETATM    7  C   UNL     1       5.516  26.418  51.017  1.00  0.00     0.019 A 
HETATM    8  C   UNL     1       5.227  27.523  50.221  1.00  0.00     0.001 A 
HETATM    9  C   UNL     1       5.181  28.791  50.794  1.00  0.00     0.002 A 
HETATM   10  C   UNL     1       5.446  28.962  52.156  1.00  0.00     0.030 A 
BRANCH   6  11
HETATM   11  C   UNL     1       5.993  25.370  53.237  1.00  0.00     0.258 C 
HETATM   12  N   UNL     1       7.279  24.860  53.175  1.00  0.00    -0.323 N 
HETATM   13  H   UNL     1       7.915  25.297  52.520  1.00  0.00     0.169 HD
HETATM   14  O   UNL     1       5.045  24.899  53.852  1.00  0.00    -0.267 OA
BRANCH  12  15
HETATM   15  C   UNL     1       7.783  23.727  53.846  1.00  0.00     0.035 A 
HETATM   16  C   UNL     1       7.918  22.465  53.261  1.00  0.00     0.031 A 
HETATM   17  C   UNL     1       8.434  21.392  53.998  1.00  0.00     0.026 A 
HETATM   18  C   UNL     1       8.811  21.576  55.324  1.00  0.00     0.034 A 
HETATM   19 CL   UNL     1       9.444  20.257  56.228  1.00  0.00    -0.084 Cl
HETATM   20  C   UNL     1       8.679  22.825  55.923  1.00  0.00     0.026 A 
HETATM   21  C   UNL     1       8.165  23.896  55.186  1.00  0.00     0.031 A 
ENDBRANCH  12  15
ENDBRANCH   6  11
ENDBRANCH   1   5
BRANCH   2  22
HETATM   22  C   UNL     1       7.267  28.338  56.442  1.00  0.00     0.329 C 
HETATM   23  N   UNL     1       7.382  29.627  56.930  1.00  0.00    -0.239 N 
HETATM   24  H   UNL     1       7.481  30.383  56.254  1.00  0.00     0.192 HD
HETATM   25  O   UNL     1       7.136  27.302  57.078  1.00  0.00    -0.261 OA
BRANCH  23  26
HETATM   26  N   UNL     1       7.409  29.869  58.268  1.00  0.00    -0.183 NA
HETATM   27  C   UNL     1       7.468  31.121  58.598  1.00  0.00     0.153 C 
BRANCH  27  28
HETATM   28  C   UNL     1       7.536  31.535  60.012  1.00  0.00     0.016 A 
HETATM   29  C   UNL     1       8.332  30.864  60.949  1.00  0.00     0.080 A 
HETATM   30  C   UNL     1       8.388  31.304  62.270  1.00  0.00     0.074 A 
HETATM   31  C   UNL     1       7.636  32.412  62.651  1.00  0.00     0.068 A 
HETATM   32  C   UNL     1       6.835  33.084  61.732  1.00  0.00     0.037 A 
HETATM   33  C   UNL     1       6.786  32.650  60.406  1.00  0.00     0.018 A 
BRANCH  29  34
HETATM   34  O   UNL     1       9.092  29.768  60.642  1.00  0.00    -0.360 OA
HETATM   35  H   UNL     1       8.520  29.115  60.177  1.00  0.00     0.217 HD
ENDBRANCH  29  34
BRANCH  31  36
HETATM   36  O   UNL     1       7.658  32.878  63.931  1.00  0.00    -0.361 OA
HETATM   37  H   UNL     1       6.753  32.851  64.286  1.00  0.00     0.217 HD
ENDBRANCH  31  36
ENDBRANCH  27  28
ENDBRANCH  23  26
ENDBRANCH   2  22
TORSDOF 8
ENDMDL
MODEL 4
REMARK VINA RESULT:      -9.5      2.806      5.271
REMARK  8 active torsions:
REMARK  status: ('A' for Active; 'I' for Inactive)
REMARK    1  A    between atoms: C_3  and  C_4 
REMARK       I    between atoms: C_4  and  N_5 
REMARK    2  A    between atoms: N_5  and  C_6 
REMARK    3  A    between atoms: C_14  and  N_15 
REMARK       I    between atoms: N_15  and  C_16 
REMARK    4  A    between atoms: C_16  and  C_17 
REMARK       I    between atoms: C_17  and  N_18 
REMARK    5  A    between atoms: N_18  and  N_19 
REMARK    6  A    between atoms: C_20  and  C_21 
REMARK    7  A    between atoms: C_22  and  O_23 
REMARK    8  A    between atoms: C_25  and  O_26 
ROOT
HETATM    1  N   UNL     1       8.254  23.617  55.760  1.00  0.00    -0.318 N 
HETATM    2  C   UNL     1       7.148  24.308  56.200  1.00  0.00     0.315 C 
HETATM    3  O   UNL     1       5.967  24.102  55.947  1.00  0.00    -0.262 OA
HETATM    4  H   UNL     1       9.153  23.919  56.158  1.00  0.00     0.169 HD
ENDROOT
BRANCH   1   5
HETATM    5  C   UNL     1       8.305  22.563  54.818  1.00  0.00     0.051 A 
HETATM    6  C   UNL     1       7.908  22.796  53.482  1.00  0.00     0.059 A 
HETATM    7  C   UNL     1       7.885  21.741  52.552  1.00  0.00     0.019 A 
HETATM    8  C   UNL     1       8.293  20.464  52.930  1.00  0.00     0.001 A 
HETATM    9  C   UNL     1       8.722  20.235  54.234  1.00  0.00     0.002 A 
HETATM   10  C   UNL     1       8.724  21.274  55.170  1.00  0.00     0.030 A 
BRANCH   6  11
HETATM   11  C   UNL     1       7.535  24.170  53.032  1.00  0.00     0.258 C 
HETATM   12  N   UNL     1       6.183  24.358  52.799  1.00  0.00    -0.323 N 
HETATM   13  H   UNL     1       5.586  23.544  52.880  1.00  0.00     0.169 HD
HETATM   14  O   UNL     1       8.432  24.983  52.849  1.00  0.00    -0.267 OA
BRANCH  12  15
HETATM   15  C   UNL     1       5.547  25.536  52.356  1.00  0.00     0.035 A 
HETATM   16  C   UNL     1       5.429  25.905  51.013  1.00  0.00     0.031 A 
HETATM   17  C   UNL     1       4.776  27.091  50.658  1.00  0.00     0.026 A 
HETATM   18  C   UNL     1       4.243  27.915  51.644  1.00  0.00     0.034 A 
HETATM   19 CL   UNL     1       3.441  29.371  51.206  1.00  0.00    -0.084 Cl
HETATM   20  C   UNL     1       4.356  27.563  52.986  1.00  0.00     0.026 A 
HETATM   21  C   UNL     1       5.007  26.378  53.339  1.00  0.00     0.031 A 
ENDBRANCH  12  15
ENDBRANCH   6  11
ENDBRANCH   1   5
BRANCH   2  22
HETATM   22  C   UNL     1       7.490  25.438  57.187  1.00  0.00     0.329 C 
HETATM   23  N   UNL     1       6.668  26.537  57.008  1.00  0.00    -0.239 N 
HETATM   24  H   UNL     1       5.967  26.489  56.270  1.00  0.00     0.192 HD
HETATM   25  O   UNL     1       8.381  25.293  58.010  1.00  0.00    -0.261 OA
BRANCH  23  26
HETATM   26  N   UNL     1       6.824  27.658  57.762  1.00  0.00    -0.183 NA
HETATM   27  C   UNL     1       7.713  28.493  57.326  1.00  0.00     0.153 C 
BRANCH  27  28
HETATM   28  C   UNL     1       8.014  29.738  58.058  1.00  0.00     0.016 A 
HETATM   29  C   UNL     1       7.006  30.583  58.541  1.00  0.00     0.080 A 
HETATM   30  C   UNL     1       7.334  31.737  59.250  1.00  0.00     0.074 A 
HETATM   31  C   UNL     1       8.674  32.046  59.464  1.00  0.00     0.068 A 
HETATM   32  C   UNL     1       9.686  31.221  58.983  1.00  0.00     0.037 A 
HETATM   33  C   UNL     1       9.358  30.059  58.281  1.00  0.00     0.018 A 
BRANCH  29  34
HETATM   34  O   UNL     1       5.672  30.338  58.363  1.00  0.00    -0.360 OA
HETATM   35  H   UNL     1       5.228  31.189  58.144  1.00  0.00     0.217 HD
ENDBRANCH  29  34
BRANCH  31  36
HETATM   36  O   UNL     1       9.043  33.164  60.151  1.00  0.00    -0.361 OA
HETATM   37  H   UNL     1       8.321  33.409  60.755  1.00  0.00     0.217 HD
ENDBRANCH  31  36
ENDBRANCH  27  28
ENDBRANCH  23  26
ENDBRANCH   2  22
TORSDOF 8
ENDMDL
MODEL 5
REMARK VINA RESULT:      -9.5      2.517      4.916
REMARK  8 active torsions:
REMARK  status: ('A' for Active; 'I' for Inactive)
REMARK    1  A    between atoms: C_3  and  C_4 
REMARK       I    between atoms: C_4  and  N_5 
REMARK    2  A    between atoms: N_5  and  C_6 
REMARK    3  A    between atoms: C_14  and  N_15 
REMARK       I    between atoms: N_15  and  C_16 
REMARK    4  A    between atoms: C_16  and  C_17 
REMARK       I    between atoms: C_17  and  N_18 
REMARK    5  A    between atoms: N_18  and  N_19 
REMARK    6  A    between atoms: C_20  and  C_21 
REMARK    7  A    between atoms: C_22  and  O_23 
REMARK    8  A    between atoms: C_25  and  O_26 
ROOT
HETATM    1  N   UNL     1       7.186  25.503  55.746  1.00  0.00    -0.318 N 
HETATM    2  C   UNL     1       7.402  26.839  55.493  1.00  0.00     0.315 C 
HETATM    3  O   UNL     1       7.974  27.355  54.539  1.00  0.00    -0.262 OA
HETATM    4  H   UNL     1       6.616  25.297  56.576  1.00  0.00     0.169 HD
ENDROOT
BRANCH   1   5
HETATM    5  C   UNL     1       7.667  24.390  55.019  1.00  0.00     0.051 A 
HETATM    6  C   UNL     1       7.077  24.051  53.781  1.00  0.00     0.059 A 
HETATM    7  C   UNL     1       7.498  22.904  53.083  1.00  0.00     0.019 A 
HETATM    8  C   UNL     1       8.529  22.115  53.586  1.00  0.00     0.001 A 
HETATM    9  C   UNL     1       9.141  22.465  54.786  1.00  0.00     0.002 A 
HETATM   10  C   UNL     1       8.711  23.589  55.498  1.00  0.00     0.030 A 
BRANCH   6  11
HETATM   11  C   UNL     1       6.020  24.919  53.184  1.00  0.00     0.258 C 
HETATM   12  N   UNL     1       6.455  25.744  52.160  1.00  0.00    -0.323 N 
HETATM   13  H   UNL     1       7.447  25.741  51.958  1.00  0.00     0.169 HD
HETATM   14  O   UNL     1       4.897  24.884  53.672  1.00  0.00    -0.267 OA
BRANCH  12  15
HETATM   15  C   UNL     1       5.689  26.674  51.426  1.00  0.00     0.035 A 
HETATM   16  C   UNL     1       4.939  26.350  50.293  1.00  0.00     0.031 A 
HETATM   17  C   UNL     1       4.202  27.335  49.625  1.00  0.00     0.026 A 
HETATM   18  C   UNL     1       4.216  28.648  50.085  1.00  0.00     0.034 A 
HETATM   19 CL   UNL     1       3.310  29.856  49.263  1.00  0.00    -0.084 Cl
HETATM   20  C   UNL     1       4.963  28.987  51.210  1.00  0.00     0.026 A 
HETATM   21  C   UNL     1       5.697  28.002  51.876  1.00  0.00     0.031 A 
ENDBRANCH  12  15
ENDBRANCH   6  11
ENDBRANCH   1   5
BRANCH   2  22
HETATM   22  C   UNL     1       6.769  27.768  56.544  1.00  0.00     0.329 C 
HETATM   23  N   UNL     1       7.718  28.565  57.159  1.00  0.00    -0.239 N 
HETATM   24  H   UNL     1       8.690  28.449  56.874  1.00  0.00     0.192 HD
HETATM   25  O   UNL     1       5.562  27.754  56.736  1.00  0.00    -0.261 OA
BRANCH  23  26
HETATM   26  N   UNL     1       7.369  29.439  58.141  1.00  0.00    -0.183 NA
HETATM   27  C   UNL     1       8.354  29.883  58.855  1.00  0.00     0.153 C 
BRANCH  27  28
HETATM   28  C   UNL     1       8.125  30.813  59.977  1.00  0.00     0.016 A 
HETATM   29  C   UNL     1       7.269  31.916  59.870  1.00  0.00     0.080 A 
HETATM   30  C   UNL     1       7.060  32.755  60.963  1.00  0.00     0.074 A 
HETATM   31  C   UNL     1       7.720  32.491  62.159  1.00  0.00     0.068 A 
HETATM   32  C   UNL     1       8.579  31.403  62.278  1.00  0.00     0.037 A 
HETATM   33  C   UNL     1       8.782  30.556  61.187  1.00  0.00     0.018 A 
BRANCH  29  34
HETATM   34  O   UNL     1       6.593  32.234  58.723  1.00  0.00    -0.360 OA
HETATM   35  H   UNL     1       6.910  33.112  58.410  1.00  0.00     0.217 HD
ENDBRANCH  29  34
BRANCH  31  36
HETATM   36  O   UNL     1       7.548  33.283  63.255  1.00  0.00    -0.361 OA
HETATM   37  H   UNL     1       6.788  32.950  63.762  1.00  0.00     0.217 HD
ENDBRANCH  31  36
ENDBRANCH  27  28
ENDBRANCH  23  26
ENDBRANCH   2  22
TORSDOF 8
ENDMDL
MODEL 6
REMARK VINA RESULT:      -9.4      3.934      9.569
REMARK  8 active torsions:
REMARK  status: ('A' for Active; 'I' for Inactive)
REMARK    1  A    between atoms: C_3  and  C_4 
REMARK       I    between atoms: C_4  and  N_5 
REMARK    2  A    between atoms: N_5  and  C_6 
REMARK    3  A    between atoms: C_14  and  N_15 
REMARK       I    between atoms: N_15  and  C_16 
REMARK    4  A    between atoms: C_16  and  C_17 
REMARK       I    between atoms: C_17  and  N_18 
REMARK    5  A    between atoms: N_18  and  N_19 
REMARK    6  A    between atoms: C_20  and  C_21 
REMARK    7  A    between atoms: C_22  and  O_23 
REMARK    8  A    between atoms: C_25  and  O_26 
ROOT
HETATM    1  N   UNL     1       6.452  24.121  53.192  1.00  0.00    -0.318 N 
HETATM    2  C   UNL     1       6.806  25.084  52.274  1.00  0.00     0.315 C 
HETATM    3  O   UNL     1       7.908  25.312  51.790  1.00  0.00    -0.262 OA
HETATM    4  H   UNL     1       5.449  24.060  53.406  1.00  0.00     0.169 HD
ENDROOT
BRANCH   1   5
HETATM    5  C   UNL     1       7.301  23.226  53.886  1.00  0.00     0.051 A 
HETATM    6  C   UNL     1       7.684  23.511  55.215  1.00  0.00     0.059 A 
HETATM    7  C   UNL     1       8.585  22.668  55.892  1.00  0.00     0.019 A 
HETATM    8  C   UNL     1       9.074  21.521  55.271  1.00  0.00     0.001 A 
HETATM    9  C   UNL     1       8.670  21.214  53.975  1.00  0.00     0.002 A 
HETATM   10  C   UNL     1       7.795  22.060  53.287  1.00  0.00     0.030 A 
BRANCH   6  11
HETATM   11  C   UNL     1       7.119  24.694  55.929  1.00  0.00     0.258 C 
HETATM   12  N   UNL     1       7.774  25.889  55.682  1.00  0.00    -0.323 N 
HETATM   13  H   UNL     1       8.608  25.846  55.109  1.00  0.00     0.169 HD
HETATM   14  O   UNL     1       6.188  24.513  56.703  1.00  0.00    -0.267 OA
BRANCH  12  15
HETATM   15  C   UNL     1       7.476  27.156  56.224  1.00  0.00     0.035 A 
HETATM   16  C   UNL     1       6.531  28.035  55.688  1.00  0.00     0.031 A 
HETATM   17  C   UNL     1       6.292  29.275  56.292  1.00  0.00     0.026 A 
HETATM   18  C   UNL     1       7.001  29.643  57.432  1.00  0.00     0.034 A 
HETATM   19 CL   UNL     1       6.706  31.166  58.173  1.00  0.00    -0.084 Cl
HETATM   20  C   UNL     1       7.948  28.780  57.975  1.00  0.00     0.026 A 
HETATM   21  C   UNL     1       8.185  27.542  57.371  1.00  0.00     0.031 A 
ENDBRANCH  12  15
ENDBRANCH   6  11
ENDBRANCH   1   5
BRANCH   2  22
HETATM   22  C   UNL     1       5.611  25.915  51.774  1.00  0.00     0.329 C 
HETATM   23  N   UNL     1       5.782  26.315  50.461  1.00  0.00    -0.239 N 
HETATM   24  H   UNL     1       6.644  26.043  49.991  1.00  0.00     0.192 HD
HETATM   25  O   UNL     1       4.658  26.132  52.507  1.00  0.00    -0.261 OA
BRANCH  23  26
HETATM   26  N   UNL     1       4.850  27.085  49.837  1.00  0.00    -0.183 NA
HETATM   27  C   UNL     1       4.227  26.508  48.859  1.00  0.00     0.153 C 
BRANCH  27  28
HETATM   28  C   UNL     1       3.213  27.230  48.068  1.00  0.00     0.016 A 
HETATM   29  C   UNL     1       3.392  28.557  47.656  1.00  0.00     0.080 A 
HETATM   30  C   UNL     1       2.420  29.194  46.888  1.00  0.00     0.074 A 
HETATM   31  C   UNL     1       1.263  28.500  46.543  1.00  0.00     0.068 A 
HETATM   32  C   UNL     1       1.068  27.184  46.950  1.00  0.00     0.037 A 
HETATM   33  C   UNL     1       2.046  26.542  47.713  1.00  0.00     0.018 A 
BRANCH  29  34
HETATM   34  O   UNL     1       4.502  29.295  47.964  1.00  0.00    -0.360 OA
HETATM   35  H   UNL     1       5.172  28.694  48.365  1.00  0.00     0.217 HD
ENDBRANCH  29  34
BRANCH  31  36
HETATM   36  O   UNL     1       0.284  29.082  45.793  1.00  0.00    -0.361 OA
HETATM   37  H   UNL     1      -0.336  29.532  46.391  1.00  0.00     0.217 HD
ENDBRANCH  31  36
ENDBRANCH  27  28
ENDBRANCH  23  26
ENDBRANCH   2  22
TORSDOF 8
ENDMDL
MODEL 7
REMARK VINA RESULT:      -9.4      3.101      5.496
REMARK  8 active torsions:
REMARK  status: ('A' for Active; 'I' for Inactive)
REMARK    1  A    between atoms: C_3  and  C_4 
REMARK       I    between atoms: C_4  and  N_5 
REMARK    2  A    between atoms: N_5  and  C_6 
REMARK    3  A    between atoms: C_14  and  N_15 
REMARK       I    between atoms: N_15  and  C_16 
REMARK    4  A    between atoms: C_16  and  C_17 
REMARK       I    between atoms: C_17  and  N_18 
REMARK    5  A    between atoms: N_18  and  N_19 
REMARK    6  A    between atoms: C_20  and  C_21 
REMARK    7  A    between atoms: C_22  and  O_23 
REMARK    8  A    between atoms: C_25  and  O_26 
ROOT
HETATM    1  N   UNL     1       7.494  27.446  57.231  1.00  0.00    -0.318 N 
HETATM    2  C   UNL     1       8.349  28.504  57.447  1.00  0.00     0.315 C 
HETATM    3  O   UNL     1       9.540  28.592  57.176  1.00  0.00    -0.262 OA
HETATM    4  H   UNL     1       6.510  27.616  57.474  1.00  0.00     0.169 HD
ENDROOT
BRANCH   1   5
HETATM    5  C   UNL     1       7.809  26.158  56.739  1.00  0.00     0.051 A 
HETATM    6  C   UNL     1       7.491  25.819  55.405  1.00  0.00     0.059 A 
HETATM    7  C   UNL     1       7.733  24.519  54.924  1.00  0.00     0.019 A 
HETATM    8  C   UNL     1       8.327  23.565  55.748  1.00  0.00     0.001 A 
HETATM    9  C   UNL     1       8.678  23.904  57.051  1.00  0.00     0.002 A 
HETATM   10  C   UNL     1       8.418  25.187  57.543  1.00  0.00     0.030 A 
BRANCH   6  11
HETATM   11  C   UNL     1       6.920  26.842  54.479  1.00  0.00     0.258 C 
HETATM   12  N   UNL     1       5.669  26.534  53.974  1.00  0.00    -0.323 N 
HETATM   13  H   UNL     1       5.288  25.626  54.211  1.00  0.00     0.169 HD
HETATM   14  O   UNL     1       7.608  27.815  54.197  1.00  0.00    -0.267 OA
BRANCH  12  15
HETATM   15  C   UNL     1       4.898  27.298  53.073  1.00  0.00     0.035 A 
HETATM   16  C   UNL     1       3.873  28.165  53.459  1.00  0.00     0.031 A 
HETATM   17  C   UNL     1       3.158  28.891  52.499  1.00  0.00     0.026 A 
HETATM   18  C   UNL     1       3.462  28.749  51.149  1.00  0.00     0.034 A 
HETATM   19 CL   UNL     1       2.584  29.642  49.971  1.00  0.00    -0.084 Cl
HETATM   20  C   UNL     1       4.478  27.886  50.748  1.00  0.00     0.026 A 
HETATM   21  C   UNL     1       5.191  27.162  51.708  1.00  0.00     0.031 A 
ENDBRANCH  12  15
ENDBRANCH   6  11
ENDBRANCH   1   5
BRANCH   2  22
HETATM   22  C   UNL     1       7.652  29.734  58.056  1.00  0.00     0.329 C 
HETATM   23  N   UNL     1       8.287  30.160  59.209  1.00  0.00    -0.239 N 
HETATM   24  H   UNL     1       9.099  29.633  59.526  1.00  0.00     0.192 HD
HETATM   25  O   UNL     1       6.675  30.224  57.511  1.00  0.00    -0.261 OA
BRANCH  23  26
HETATM   26  N   UNL     1       7.812  31.219  59.919  1.00  0.00    -0.183 NA
HETATM   27  C   UNL     1       7.958  31.128  61.203  1.00  0.00     0.153 C 
BRANCH  27  28
HETATM   28  C   UNL     1       7.462  32.185  62.104  1.00  0.00     0.016 A 
HETATM   29  C   UNL     1       6.389  33.017  61.760  1.00  0.00     0.080 A 
HETATM   30  C   UNL     1       5.934  33.987  62.651  1.00  0.00     0.074 A 
HETATM   31  C   UNL     1       6.566  34.127  63.884  1.00  0.00     0.068 A 
HETATM   32  C   UNL     1       7.639  33.314  64.236  1.00  0.00     0.037 A 
HETATM   33  C   UNL     1       8.088  32.335  63.348  1.00  0.00     0.018 A 
BRANCH  29  34
HETATM   34  O   UNL     1       5.727  32.934  60.565  1.00  0.00    -0.360 OA
HETATM   35  H   UNL     1       6.167  32.246  60.015  1.00  0.00     0.217 HD
ENDBRANCH  29  34
BRANCH  31  36
HETATM   36  O   UNL     1       6.158  35.062  64.788  1.00  0.00    -0.361 OA
HETATM   37  H   UNL     1       5.347  34.742  65.219  1.00  0.00     0.217 HD
ENDBRANCH  31  36
ENDBRANCH  27  28
ENDBRANCH  23  26
ENDBRANCH   2  22
TORSDOF 8
ENDMDL
MODEL 8
REMARK VINA RESULT:      -9.3      3.773      9.199
REMARK  8 active torsions:
REMARK  status: ('A' for Active; 'I' for Inactive)
REMARK    1  A    between atoms: C_3  and  C_4 
REMARK       I    between atoms: C_4  and  N_5 
REMARK    2  A    between atoms: N_5  and  C_6 
REMARK    3  A    between atoms: C_14  and  N_15 
REMARK       I    between atoms: N_15  and  C_16 
REMARK    4  A    between atoms: C_16  and  C_17 
REMARK       I    between atoms: C_17  and  N_18 
REMARK    5  A    between atoms: N_18  and  N_19 
REMARK    6  A    between atoms: C_20  and  C_21 
REMARK    7  A    between atoms: C_22  and  O_23 
REMARK    8  A    between atoms: C_25  and  O_26 
ROOT
HETATM    1  N   UNL     1       8.273  30.922  60.023  1.00  0.00    -0.318 N 
HETATM    2  C   UNL     1       9.195  31.253  59.055  1.00  0.00     0.315 C 
HETATM    3  O   UNL     1       9.784  32.315  58.891  1.00  0.00    -0.262 OA
HETATM    4  H   UNL     1       7.958  29.944  60.017  1.00  0.00     0.169 HD
ENDROOT
BRANCH   1   5
HETATM    5  C   UNL     1       7.697  31.765  61.002  1.00  0.00     0.051 A 
HETATM    6  C   UNL     1       6.577  32.560  60.673  1.00  0.00     0.059 A 
HETATM    7  C   UNL     1       6.040  33.456  61.615  1.00  0.00     0.019 A 
HETATM    8  C   UNL     1       6.582  33.537  62.896  1.00  0.00     0.001 A 
HETATM    9  C   UNL     1       7.661  32.729  63.239  1.00  0.00     0.002 A 
HETATM   10  C   UNL     1       8.217  31.854  62.299  1.00  0.00     0.030 A 
BRANCH   6  11
HETATM   11  C   UNL     1       5.932  32.440  59.332  1.00  0.00     0.258 C 
HETATM   12  N   UNL     1       5.617  31.147  58.952  1.00  0.00    -0.323 N 
HETATM   13  H   UNL     1       5.912  30.401  59.570  1.00  0.00     0.169 HD
HETATM   14  O   UNL     1       5.792  33.457  58.664  1.00  0.00    -0.267 OA
BRANCH  12  15
HETATM   15  C   UNL     1       5.020  30.731  57.744  1.00  0.00     0.035 A 
HETATM   16  C   UNL     1       3.641  30.614  57.551  1.00  0.00     0.031 A 
HETATM   17  C   UNL     1       3.130  30.198  56.316  1.00  0.00     0.026 A 
HETATM   18  C   UNL     1       3.996  29.893  55.271  1.00  0.00     0.034 A 
HETATM   19 CL   UNL     1       3.367  29.383  53.755  1.00  0.00    -0.084 Cl
HETATM   20  C   UNL     1       5.372  30.000  55.449  1.00  0.00     0.026 A 
HETATM   21  C   UNL     1       5.881  30.416  56.682  1.00  0.00     0.031 A 
ENDBRANCH  12  15
ENDBRANCH   6  11
ENDBRANCH   1   5
BRANCH   2  22
HETATM   22  C   UNL     1       9.543  30.081  58.120  1.00  0.00     0.329 C 
HETATM   23  N   UNL     1       8.563  29.105  58.140  1.00  0.00    -0.239 N 
HETATM   24  H   UNL     1       7.761  29.251  58.752  1.00  0.00     0.192 HD
HETATM   25  O   UNL     1      10.571  30.100  57.460  1.00  0.00    -0.261 OA
BRANCH  23  26
HETATM   26  N   UNL     1       8.692  27.969  57.403  1.00  0.00    -0.183 NA
HETATM   27  C   UNL     1       7.632  27.225  57.354  1.00  0.00     0.153 C 
BRANCH  27  28
HETATM   28  C   UNL     1       7.632  25.946  56.619  1.00  0.00     0.016 A 
HETATM   29  C   UNL     1       8.142  24.765  57.175  1.00  0.00     0.080 A 
HETATM   30  C   UNL     1       8.098  23.572  56.456  1.00  0.00     0.074 A 
HETATM   31  C   UNL     1       7.553  23.568  55.176  1.00  0.00     0.068 A 
HETATM   32  C   UNL     1       7.050  24.735  54.608  1.00  0.00     0.037 A 
HETATM   33  C   UNL     1       7.084  25.929  55.331  1.00  0.00     0.018 A 
BRANCH  29  34
HETATM   34  O   UNL     1       8.694  24.701  58.425  1.00  0.00    -0.360 OA
HETATM   35  H   UNL     1       9.671  24.775  58.336  1.00  0.00     0.217 HD
ENDBRANCH  29  34
BRANCH  31  36
HETATM   36  O   UNL     1       7.490  22.426  54.435  1.00  0.00    -0.361 OA
HETATM   37  H   UNL     1       8.345  21.967  54.500  1.00  0.00     0.217 HD
ENDBRANCH  31  36
ENDBRANCH  27  28
ENDBRANCH  23  26
ENDBRANCH   2  22
TORSDOF 8
ENDMDL
MODEL 9
REMARK VINA RESULT:      -8.9      3.912      8.106
REMARK  8 active torsions:
REMARK  status: ('A' for Active; 'I' for Inactive)
REMARK    1  A    between atoms: C_3  and  C_4 
REMARK       I    between atoms: C_4  and  N_5 
REMARK    2  A    between atoms: N_5  and  C_6 
REMARK    3  A    between atoms: C_14  and  N_15 
REMARK       I    between atoms: N_15  and  C_16 
REMARK    4  A    between atoms: C_16  and  C_17 
REMARK       I    between atoms: C_17  and  N_18 
REMARK    5  A    between atoms: N_18  and  N_19 
REMARK    6  A    between atoms: C_20  and  C_21 
REMARK    7  A    between atoms: C_22  and  O_23 
REMARK    8  A    between atoms: C_25  and  O_26 
ROOT
HETATM    1  N   UNL     1       5.615  29.147  54.844  1.00  0.00    -0.318 N 
HETATM    2  C   UNL     1       6.036  28.597  56.034  1.00  0.00     0.315 C 
HETATM    3  O   UNL     1       5.729  28.918  57.176  1.00  0.00    -0.262 OA
HETATM    4  H   UNL     1       5.945  28.671  53.995  1.00  0.00     0.169 HD
ENDROOT
BRANCH   1   5
HETATM    5  C   UNL     1       4.806  30.291  54.651  1.00  0.00     0.051 A 
HETATM    6  C   UNL     1       3.872  30.320  53.592  1.00  0.00     0.059 A 
HETATM    7  C   UNL     1       3.112  31.478  53.345  1.00  0.00     0.019 A 
HETATM    8  C   UNL     1       3.245  32.594  54.168  1.00  0.00     0.001 A 
HETATM    9  C   UNL     1       4.136  32.559  55.237  1.00  0.00     0.002 A 
HETATM   10  C   UNL     1       4.912  31.419  55.473  1.00  0.00     0.030 A 
BRANCH   6  11
HETATM   11  C   UNL     1       3.657  29.113  52.739  1.00  0.00     0.258 C 
HETATM   12  N   UNL     1       3.769  29.338  51.378  1.00  0.00    -0.323 N 
HETATM   13  H   UNL     1       3.910  30.295  51.080  1.00  0.00     0.169 HD
HETATM   14  O   UNL     1       3.346  28.064  53.288  1.00  0.00    -0.267 OA
BRANCH  12  15
HETATM   15  C   UNL     1       3.604  28.398  50.339  1.00  0.00     0.035 A 
HETATM   16  C   UNL     1       4.534  27.403  50.028  1.00  0.00     0.031 A 
HETATM   17  C   UNL     1       4.289  26.505  48.982  1.00  0.00     0.026 A 
HETATM   18  C   UNL     1       3.116  26.602  48.240  1.00  0.00     0.034 A 
HETATM   19 CL   UNL     1       2.817  25.499  46.956  1.00  0.00    -0.084 Cl
HETATM   20  C   UNL     1       2.182  27.591  48.535  1.00  0.00     0.026 A 
HETATM   21  C   UNL     1       2.427  28.486  49.581  1.00  0.00     0.031 A 
ENDBRANCH  12  15
ENDBRANCH   6  11
ENDBRANCH   1   5
BRANCH   2  22
HETATM   22  C   UNL     1       6.964  27.384  55.849  1.00  0.00     0.329 C 
HETATM   23  N   UNL     1       6.536  26.567  54.817  1.00  0.00    -0.239 N 
HETATM   24  H   UNL     1       5.685  26.834  54.323  1.00  0.00     0.192 HD
HETATM   25  O   UNL     1       7.951  27.245  56.556  1.00  0.00    -0.261 OA
BRANCH  23  26
HETATM   26  N   UNL     1       7.202  25.423  54.507  1.00  0.00    -0.183 NA
HETATM   27  C   UNL     1       6.725  24.346  55.048  1.00  0.00     0.153 C 
BRANCH  27  28
HETATM   28  C   UNL     1       7.363  23.035  54.828  1.00  0.00     0.016 A 
HETATM   29  C   UNL     1       7.887  22.657  53.585  1.00  0.00     0.080 A 
HETATM   30  C   UNL     1       8.505  21.419  53.427  1.00  0.00     0.074 A 
HETATM   31  C   UNL     1       8.587  20.556  54.515  1.00  0.00     0.068 A 
HETATM   32  C   UNL     1       8.065  20.913  55.755  1.00  0.00     0.037 A 
HETATM   33  C   UNL     1       7.454  22.158  55.917  1.00  0.00     0.018 A 
BRANCH  29  34
HETATM   34  O   UNL     1       7.836  23.457  52.475  1.00  0.00    -0.360 OA
HETATM   35  H   UNL     1       8.035  24.381  52.750  1.00  0.00     0.217 HD
ENDBRANCH  29  34
BRANCH  31  36
HETATM   36  O   UNL     1       9.182  19.334  54.409  1.00  0.00    -0.361 OA
HETATM   37  H   UNL     1      10.135  19.438  54.571  1.00  0.00     0.217 HD
ENDBRANCH  31  36
ENDBRANCH  27  28
ENDBRANCH  23  26
ENDBRANCH   2  22
TORSDOF 8
ENDMDL
MODEL 10
REMARK VINA RESULT:      -8.9      4.539     10.914
REMARK  8 active torsions:
REMARK  status: ('A' for Active; 'I' for Inactive)
REMARK    1  A    between atoms: C_3  and  C_4 
REMARK       I    between atoms: C_4  and  N_5 
REMARK    2  A    between atoms: N_5  and  C_6 
REMARK    3  A    between atoms: C_14  and  N_15 
REMARK       I    between atoms: N_15  and  C_16 
REMARK    4  A    between atoms: C_16  and  C_17 
REMARK       I    between atoms: C_17  and  N_18 
REMARK    5  A    between atoms: N_18  and  N_19 
REMARK    6  A    between atoms: C_20  and  C_21 
REMARK    7  A    between atoms: C_22  and  O_23 
REMARK    8  A    between atoms: C_25  and  O_26 
ROOT
HETATM    1  N   UNL     1       7.476  31.501  60.699  1.00  0.00    -0.318 N 
HETATM    2  C   UNL     1       8.362  31.782  59.684  1.00  0.00     0.315 C 
HETATM    3  O   UNL     1       9.171  32.699  59.606  1.00  0.00    -0.262 OA
HETATM    4  H   UNL     1       6.937  30.633  60.589  1.00  0.00     0.169 HD
ENDROOT
BRANCH   1   5
HETATM    5  C   UNL     1       7.206  32.268  61.857  1.00  0.00     0.051 A 
HETATM    6  C   UNL     1       6.077  33.116  61.889  1.00  0.00     0.059 A 
HETATM    7  C   UNL     1       5.836  33.939  63.005  1.00  0.00     0.019 A 
HETATM    8  C   UNL     1       6.688  33.894  64.106  1.00  0.00     0.001 A 
HETATM    9  C   UNL     1       7.782  33.034  64.096  1.00  0.00     0.002 A 
HETATM   10  C   UNL     1       8.041  32.231  62.980  1.00  0.00     0.030 A 
BRANCH   6  11
HETATM   11  C   UNL     1       5.108  33.130  60.753  1.00  0.00     0.258 C 
HETATM   12  N   UNL     1       4.710  34.391  60.344  1.00  0.00    -0.323 N 
HETATM   13  H   UNL     1       5.046  35.177  60.887  1.00  0.00     0.169 HD
HETATM   14  O   UNL     1       4.702  32.057  60.325  1.00  0.00    -0.267 OA
BRANCH  12  15
HETATM   15  C   UNL     1       3.800  34.710  59.315  1.00  0.00     0.035 A 
HETATM   16  C   UNL     1       4.086  34.590  57.953  1.00  0.00     0.031 A 
HETATM   17  C   UNL     1       3.122  34.924  56.994  1.00  0.00     0.026 A 
HETATM   18  C   UNL     1       1.871  35.384  57.394  1.00  0.00     0.034 A 
HETATM   19 CL   UNL     1       0.688  35.794  56.215  1.00  0.00    -0.084 Cl
HETATM   20  C   UNL     1       1.574  35.514  58.748  1.00  0.00     0.026 A 
HETATM   21  C   UNL     1       2.536  35.178  59.704  1.00  0.00     0.031 A 
ENDBRANCH  12  15
ENDBRANCH   6  11
ENDBRANCH   1   5
BRANCH   2  22
HETATM   22  C   UNL     1       8.337  30.742  58.550  1.00  0.00     0.329 C 
HETATM   23  N   UNL     1       7.143  30.044  58.525  1.00  0.00    -0.239 N 
HETATM   24  H   UNL     1       6.446  30.271  59.233  1.00  0.00     0.192 HD
HETATM   25  O   UNL     1       9.291  30.625  57.795  1.00  0.00    -0.261 OA
BRANCH  23  26
HETATM   26  N   UNL     1       6.928  29.056  57.615  1.00  0.00    -0.183 NA
HETATM   27  C   UNL     1       7.501  27.926  57.886  1.00  0.00     0.153 C 
BRANCH  27  28
HETATM   28  C   UNL     1       7.384  26.773  56.973  1.00  0.00     0.016 A 
HETATM   29  C   UNL     1       7.731  25.473  57.364  1.00  0.00     0.080 A 
HETATM   30  C   UNL     1       7.581  24.407  56.480  1.00  0.00     0.074 A 
HETATM   31  C   UNL     1       7.092  24.650  55.199  1.00  0.00     0.068 A 
HETATM   32  C   UNL     1       6.751  25.937  54.794  1.00  0.00     0.037 A 
HETATM   33  C   UNL     1       6.892  27.004  55.683  1.00  0.00     0.018 A 
BRANCH  29  34
HETATM   34  O   UNL     1       8.219  25.168  58.606  1.00  0.00    -0.360 OA
HETATM   35  H   UNL     1       8.340  24.192  58.659  1.00  0.00     0.217 HD
ENDBRANCH  29  34
BRANCH  31  36
HETATM   36  O   UNL     1       6.929  23.640  54.299  1.00  0.00    -0.361 OA
HETATM   37  H   UNL     1       7.392  22.852  54.630  1.00  0.00     0.217 HD
ENDBRANCH  31  36
ENDBRANCH  27  28
ENDBRANCH  23  26
ENDBRANCH   2  22
TORSDOF 8
ENDMDL
