MODEL 1
REMARK VINA RESULT:      -8.3      0.000      0.000
REMARK  4 active torsions:
REMARK  status: ('A' for Active; 'I' for Inactive)
REMARK    1  A    between atoms: C_6  and  C_7 
REMARK    2  A    between atoms: C_10  and  N_11 
REMARK       I    between atoms: N_11  and  C_12 
REMARK       I    between atoms: C_12  and  N_13 
REMARK    3  A    between atoms: N_13  and  C_14 
REMARK    4  A    between atoms: C_14  and  C_15 
ROOT
HETATM    1  N   UNL     1       7.308  28.214  55.677  1.00  0.00    -0.305 N 
HETATM    2  C   UNL     1       6.851  26.920  55.722  1.00  0.00     0.322 C 
HETATM    3  N   UNL     1       6.564  26.347  54.483  1.00  0.00    -0.334 N 
HETATM    4  C   UNL     1       6.692  27.023  53.198  1.00  0.00     0.155 C 
HETATM    5  O   UNL     1       6.704  26.291  56.766  1.00  0.00    -0.247 OA
HETATM    6  H   UNL     1       7.573  28.586  54.783  1.00  0.00     0.171 HD
ENDROOT
BRANCH   1   7
HETATM    7  C   UNL     1       7.580  29.040  56.760  1.00  0.00     0.092 A 
HETATM    8  C   UNL     1       6.555  29.550  57.537  1.00  0.00     0.053 A 
HETATM    9  C   UNL     1       5.082  29.393  57.481  1.00  0.00     0.072 C 
HETATM   10  N   UNL     1       7.153  30.326  58.484  1.00  0.00    -0.280 N 
HETATM   11  H   UNL     1       6.714  30.865  59.225  1.00  0.00     0.189 HD
HETATM   12  N   UNL     1       8.483  30.352  58.400  1.00  0.00    -0.171 NA
HETATM   13  C   UNL     1       8.779  29.537  57.364  1.00  0.00     0.147 A 
BRANCH  13  14
HETATM   14  C   UNL     1      10.218  29.246  57.031  1.00  0.00     0.409 C 
HETATM   15  F   UNL     1      10.549  29.656  55.767  1.00  0.00    -0.207 F 
HETATM   16  F   UNL     1      11.065  29.931  57.853  1.00  0.00    -0.207 F 
ENDBRANCH  13  14
ENDBRANCH   1   7
BRANCH   3  17
HETATM   17  C   UNL     1       5.840  25.075  54.479  1.00  0.00     0.165 C 
BRANCH  17  18
HETATM   18  C   UNL     1       6.767  23.891  54.315  1.00  0.00    -0.039 A 
HETATM   19  C   UNL     1       7.190  23.155  55.432  1.00  0.00     0.032 A 
HETATM   20  C   UNL     1       8.065  22.079  55.272  1.00  0.00     0.034 A 
HETATM   21 CL   UNL     1       8.583  21.192  56.653  1.00  0.00    -0.084 Cl
HETATM   22  C   UNL     1       8.526  21.722  54.006  1.00  0.00     0.024 A 
HETATM   23  C   UNL     1       8.110  22.448  52.891  1.00  0.00     0.002 A 
HETATM   24  C   UNL     1       7.236  23.527  53.044  1.00  0.00     0.009 A 
ENDBRANCH  17  18
ENDBRANCH   3  17
TORSDOF 4
ENDMDL
MODEL 2
REMARK VINA RESULT:      -8.2      1.717      2.129
REMARK  4 active torsions:
REMARK  status: ('A' for Active; 'I' for Inactive)
REMARK    1  A    between atoms: C_6  and  C_7 
REMARK    2  A    between atoms: C_10  and  N_11 
REMARK       I    between atoms: N_11  and  C_12 
REMARK       I    between atoms: C_12  and  N_13 
REMARK    3  A    between atoms: N_13  and  C_14 
REMARK    4  A    between atoms: C_14  and  C_15 
ROOT
HETATM    1  N   UNL     1       7.336  27.190  54.348  1.00  0.00    -0.305 N 
HETATM    2  C   UNL     1       6.791  25.933  54.422  1.00  0.00     0.322 C 
HETATM    3  N   UNL     1       7.221  25.039  53.443  1.00  0.00    -0.334 N 
HETATM    4  C   UNL     1       8.161  25.356  52.374  1.00  0.00     0.155 C 
HETATM    5  O   UNL     1       5.983  25.595  55.284  1.00  0.00    -0.247 OA
HETATM    6  H   UNL     1       8.118  27.326  53.734  1.00  0.00     0.171 HD
ENDROOT
BRANCH   1   7
HETATM    7  C   UNL     1       7.014  28.286  55.139  1.00  0.00     0.092 A 
HETATM    8  C   UNL     1       5.947  29.104  54.815  1.00  0.00     0.053 A 
HETATM    9  C   UNL     1       4.959  29.072  53.710  1.00  0.00     0.072 C 
HETATM   10  N   UNL     1       5.921  30.081  55.765  1.00  0.00    -0.280 N 
HETATM   11  H   UNL     1       5.278  30.863  55.846  1.00  0.00     0.189 HD
HETATM   12  N   UNL     1       6.872  29.958  56.690  1.00  0.00    -0.171 NA
HETATM   13  C   UNL     1       7.543  28.836  56.351  1.00  0.00     0.147 A 
BRANCH  13  14
HETATM   14  C   UNL     1       8.644  28.326  57.240  1.00  0.00     0.409 C 
HETATM   15  F   UNL     1       8.636  26.960  57.341  1.00  0.00    -0.207 F 
HETATM   16  F   UNL     1       9.874  28.632  56.731  1.00  0.00    -0.207 F 
ENDBRANCH  13  14
ENDBRANCH   1   7
BRANCH   3  17
HETATM   17  C   UNL     1       6.494  23.775  53.314  1.00  0.00     0.165 C 
BRANCH  17  18
HETATM   18  C   UNL     1       7.303  22.597  53.808  1.00  0.00    -0.039 A 
HETATM   19  C   UNL     1       7.491  22.384  55.182  1.00  0.00     0.032 A 
HETATM   20  C   UNL     1       8.260  21.307  55.626  1.00  0.00     0.034 A 
HETATM   21 CL   UNL     1       8.489  21.065  57.315  1.00  0.00    -0.084 Cl
HETATM   22  C   UNL     1       8.848  20.432  54.715  1.00  0.00     0.024 A 
HETATM   23  C   UNL     1       8.666  20.636  53.347  1.00  0.00     0.002 A 
HETATM   24  C   UNL     1       7.900  21.712  52.896  1.00  0.00     0.009 A 
ENDBRANCH  17  18
ENDBRANCH   3  17
TORSDOF 4
ENDMDL
MODEL 3
REMARK VINA RESULT:      -8.2      4.274      5.294
REMARK  4 active torsions:
REMARK  status: ('A' for Active; 'I' for Inactive)
REMARK    1  A    between atoms: C_6  and  C_7 
REMARK    2  A    between atoms: C_10  and  N_11 
REMARK       I    between atoms: N_11  and  C_12 
REMARK       I    between atoms: C_12  and  N_13 
REMARK    3  A    between atoms: N_13  and  C_14 
REMARK    4  A    between atoms: C_14  and  C_15 
ROOT
HETATM    1  N   UNL     1       5.208  26.474  54.271  1.00  0.00    -0.305 N 
HETATM    2  C   UNL     1       6.424  25.855  54.424  1.00  0.00     0.322 C 
HETATM    3  N   UNL     1       6.587  25.149  55.615  1.00  0.00    -0.334 N 
HETATM    4  C   UNL     1       5.591  25.055  56.676  1.00  0.00     0.155 C 
HETATM    5  O   UNL     1       7.317  25.901  53.581  1.00  0.00    -0.247 OA
HETATM    6  H   UNL     1       4.476  26.234  54.915  1.00  0.00     0.171 HD
ENDROOT
BRANCH   1   7
HETATM    7  C   UNL     1       4.822  27.307  53.229  1.00  0.00     0.092 A 
HETATM    8  C   UNL     1       4.463  28.622  53.469  1.00  0.00     0.053 A 
HETATM    9  C   UNL     1       4.398  29.433  54.708  1.00  0.00     0.072 C 
HETATM   10  N   UNL     1       4.122  29.144  52.257  1.00  0.00    -0.280 N 
HETATM   11  H   UNL     1       3.799  30.084  52.046  1.00  0.00     0.189 HD
HETATM   12  N   UNL     1       4.245  28.286  51.246  1.00  0.00    -0.171 NA
HETATM   13  C   UNL     1       4.711  27.151  51.810  1.00  0.00     0.147 A 
BRANCH  13  14
HETATM   14  C   UNL     1       5.064  25.975  50.940  1.00  0.00     0.409 C 
HETATM   15  F   UNL     1       4.706  24.782  51.512  1.00  0.00    -0.207 F 
HETATM   16  F   UNL     1       4.384  26.011  49.757  1.00  0.00    -0.207 F 
ENDBRANCH  13  14
ENDBRANCH   1   7
BRANCH   3  17
HETATM   17  C   UNL     1       7.935  24.686  55.947  1.00  0.00     0.165 C 
BRANCH  17  18
HETATM   18  C   UNL     1       8.077  23.188  55.801  1.00  0.00    -0.039 A 
HETATM   19  C   UNL     1       7.956  22.577  54.543  1.00  0.00     0.032 A 
HETATM   20  C   UNL     1       8.064  21.191  54.423  1.00  0.00     0.034 A 
HETATM   21 CL   UNL     1       7.904  20.457  52.875  1.00  0.00    -0.084 Cl
HETATM   22  C   UNL     1       8.294  20.398  55.545  1.00  0.00     0.024 A 
HETATM   23  C   UNL     1       8.417  20.996  56.799  1.00  0.00     0.002 A 
HETATM   24  C   UNL     1       8.307  22.382  56.927  1.00  0.00     0.009 A 
ENDBRANCH  17  18
ENDBRANCH   3  17
TORSDOF 4
ENDMDL
MODEL 4
REMARK VINA RESULT:      -8.1      2.094      2.508
REMARK  4 active torsions:
REMARK  status: ('A' for Active; 'I' for Inactive)
REMARK    1  A    between atoms: C_6  and  C_7 
REMARK    2  A    between atoms: C_10  and  N_11 
REMARK       I    between atoms: N_11  and  C_12 
REMARK       I    between atoms: C_12  and  N_13 
REMARK    3  A    between atoms: N_13  and  C_14 
REMARK    4  A    between atoms: C_14  and  C_15 
ROOT
HETATM    1  N   UNL     1       5.901  27.954  55.057  1.00  0.00    -0.305 N 
HETATM    2  C   UNL     1       6.876  27.427  54.247  1.00  0.00     0.322 C 
HETATM    3  N   UNL     1       6.501  26.296  53.523  1.00  0.00    -0.334 N 
HETATM    4  C   UNL     1       5.195  25.652  53.592  1.00  0.00     0.155 C 
HETATM    5  O   UNL     1       8.004  27.904  54.147  1.00  0.00    -0.247 OA
HETATM    6  H   UNL     1       4.963  27.618  54.940  1.00  0.00     0.171 HD
ENDROOT
BRANCH   1   7
HETATM    7  C   UNL     1       6.037  29.015  55.944  1.00  0.00     0.092 A 
HETATM    8  C   UNL     1       5.296  30.172  55.782  1.00  0.00     0.053 A 
HETATM    9  C   UNL     1       4.278  30.578  54.784  1.00  0.00     0.072 C 
HETATM   10  N   UNL     1       5.678  31.006  56.789  1.00  0.00    -0.280 N 
HETATM   11  H   UNL     1       5.352  31.948  56.984  1.00  0.00     0.189 HD
HETATM   12  N   UNL     1       6.595  30.484  57.603  1.00  0.00    -0.171 NA
HETATM   13  C   UNL     1       6.811  29.238  57.127  1.00  0.00     0.147 A 
BRANCH  13  14
HETATM   14  C   UNL     1       7.732  28.306  57.866  1.00  0.00     0.409 C 
HETATM   15  F   UNL     1       7.274  27.015  57.862  1.00  0.00    -0.207 F 
HETATM   16  F   UNL     1       8.958  28.243  57.268  1.00  0.00    -0.207 F 
ENDBRANCH  13  14
ENDBRANCH   1   7
BRANCH   3  17
HETATM   17  C   UNL     1       7.560  25.546  52.845  1.00  0.00     0.165 C 
BRANCH  17  18
HETATM   18  C   UNL     1       7.891  24.254  53.559  1.00  0.00    -0.039 A 
HETATM   19  C   UNL     1       7.937  23.040  52.857  1.00  0.00     0.032 A 
HETATM   20  C   UNL     1       8.219  21.851  53.530  1.00  0.00     0.034 A 
HETATM   21 CL   UNL     1       8.262  20.368  52.656  1.00  0.00    -0.084 Cl
HETATM   22  C   UNL     1       8.461  21.853  54.902  1.00  0.00     0.024 A 
HETATM   23  C   UNL     1       8.419  23.054  55.608  1.00  0.00     0.002 A 
HETATM   24  C   UNL     1       8.134  24.248  54.941  1.00  0.00     0.009 A 
ENDBRANCH  17  18
ENDBRANCH   3  17
TORSDOF 4
ENDMDL
MODEL 5
REMARK VINA RESULT:      -8.1      1.706      2.529
REMARK  4 active torsions:
REMARK  status: ('A' for Active; 'I' for Inactive)
REMARK    1  A    between atoms: C_6  and  C_7 
REMARK    2  A    between atoms: C_10  and  N_11 
REMARK       I    between atoms: N_11  and  C_12 
REMARK       I    between atoms: C_12  and  N_13 
REMARK    3  A    between atoms: N_13  and  C_14 
REMARK    4  A    between atoms: C_14  and  C_15 
ROOT
HETATM    1  N   UNL     1       7.463  29.825  57.305  1.00  0.00    -0.305 N 
HETATM    2  C   UNL     1       7.265  28.473  57.442  1.00  0.00     0.322 C 
HETATM    3  N   UNL     1       6.173  27.957  56.744  1.00  0.00    -0.334 N 
HETATM    4  C   UNL     1       5.252  28.742  55.931  1.00  0.00     0.155 C 
HETATM    5  O   UNL     1       7.989  27.749  58.120  1.00  0.00    -0.247 OA
HETATM    6  H   UNL     1       6.943  30.304  56.592  1.00  0.00     0.171 HD
ENDROOT
BRANCH   1   7
HETATM    7  C   UNL     1       8.414  30.598  57.957  1.00  0.00     0.092 A 
HETATM    8  C   UNL     1       8.053  31.437  58.997  1.00  0.00     0.053 A 
HETATM    9  C   UNL     1       6.753  31.723  59.649  1.00  0.00     0.072 C 
HETATM   10  N   UNL     1       9.200  32.058  59.393  1.00  0.00    -0.280 N 
HETATM   11  H   UNL     1       9.320  32.749  60.127  1.00  0.00     0.189 HD
HETATM   12  N   UNL     1      10.281  31.681  58.709  1.00  0.00    -0.171 NA
HETATM   13  C   UNL     1       9.833  30.752  57.838  1.00  0.00     0.147 A 
BRANCH  13  14
HETATM   14  C   UNL     1      10.809  30.026  56.953  1.00  0.00     0.409 C 
HETATM   15  F   UNL     1      12.088  30.077  57.442  1.00  0.00    -0.207 F 
HETATM   16  F   UNL     1      10.517  28.694  56.880  1.00  0.00    -0.207 F 
ENDBRANCH  13  14
ENDBRANCH   1   7
BRANCH   3  17
HETATM   17  C   UNL     1       5.762  26.586  57.050  1.00  0.00     0.165 C 
BRANCH  17  18
HETATM   18  C   UNL     1       6.216  25.605  55.993  1.00  0.00    -0.039 A 
HETATM   19  C   UNL     1       7.366  24.825  56.186  1.00  0.00     0.032 A 
HETATM   20  C   UNL     1       7.790  23.940  55.194  1.00  0.00     0.034 A 
HETATM   21 CL   UNL     1       9.209  22.998  55.443  1.00  0.00    -0.084 Cl
HETATM   22  C   UNL     1       7.079  23.819  54.002  1.00  0.00     0.024 A 
HETATM   23  C   UNL     1       5.934  24.589  53.800  1.00  0.00     0.002 A 
HETATM   24  C   UNL     1       5.505  25.478  54.789  1.00  0.00     0.009 A 
ENDBRANCH  17  18
ENDBRANCH   3  17
TORSDOF 4
ENDMDL
MODEL 6
REMARK VINA RESULT:      -8.1      1.879      2.552
REMARK  4 active torsions:
REMARK  status: ('A' for Active; 'I' for Inactive)
REMARK    1  A    between atoms: C_6  and  C_7 
REMARK    2  A    between atoms: C_10  and  N_11 
REMARK       I    between atoms: N_11  and  C_12 
REMARK       I    between atoms: C_12  and  N_13 
REMARK    3  A    between atoms: N_13  and  C_14 
REMARK    4  A    between atoms: C_14  and  C_15 
ROOT
HETATM    1  N   UNL     1       7.829  28.284  55.750  1.00  0.00    -0.305 N 
HETATM    2  C   UNL     1       7.162  27.087  55.824  1.00  0.00     0.322 C 
HETATM    3  N   UNL     1       7.063  26.384  54.624  1.00  0.00    -0.334 N 
HETATM    4  C   UNL     1       7.585  26.840  53.341  1.00  0.00     0.155 C 
HETATM    5  O   UNL     1       6.682  26.644  56.865  1.00  0.00    -0.247 OA
HETATM    6  H   UNL     1       8.345  28.481  54.911  1.00  0.00     0.171 HD
ENDROOT
BRANCH   1   7
HETATM    7  C   UNL     1       7.990  29.214  56.769  1.00  0.00     0.092 A 
HETATM    8  C   UNL     1       9.253  29.576  57.204  1.00  0.00     0.053 A 
HETATM    9  C   UNL     1      10.614  29.165  56.783  1.00  0.00     0.072 C 
HETATM   10  N   UNL     1       9.060  30.473  58.211  1.00  0.00    -0.280 N 
HETATM   11  H   UNL     1       9.759  30.949  58.773  1.00  0.00     0.189 HD
HETATM   12  N   UNL     1       7.777  30.740  58.457  1.00  0.00    -0.171 NA
HETATM   13  C   UNL     1       7.091  30.003  57.556  1.00  0.00     0.147 A 
BRANCH  13  14
HETATM   14  C   UNL     1       5.594  30.127  57.475  1.00  0.00     0.409 C 
HETATM   15  F   UNL     1       4.961  28.946  57.762  1.00  0.00    -0.207 F 
HETATM   16  F   UNL     1       5.119  31.011  58.401  1.00  0.00    -0.207 F 
ENDBRANCH  13  14
ENDBRANCH   1   7
BRANCH   3  17
HETATM   17  C   UNL     1       6.153  25.238  54.584  1.00  0.00     0.165 C 
BRANCH  17  18
HETATM   18  C   UNL     1       6.893  23.927  54.439  1.00  0.00    -0.039 A 
HETATM   19  C   UNL     1       7.310  23.212  55.572  1.00  0.00     0.032 A 
HETATM   20  C   UNL     1       8.014  22.015  55.426  1.00  0.00     0.034 A 
HETATM   21 CL   UNL     1       8.528  21.155  56.826  1.00  0.00    -0.084 Cl
HETATM   22  C   UNL     1       8.308  21.515  54.160  1.00  0.00     0.024 A 
HETATM   23  C   UNL     1       7.896  22.218  53.028  1.00  0.00     0.002 A 
HETATM   24  C   UNL     1       7.194  23.418  53.166  1.00  0.00     0.009 A 
ENDBRANCH  17  18
ENDBRANCH   3  17
TORSDOF 4
ENDMDL
MODEL 7
REMARK VINA RESULT:      -8.1      2.375      3.477
REMARK  4 active torsions:
REMARK  status: ('A' for Active; 'I' for Inactive)
REMARK    1  A    between atoms: C_6  and  C_7 
REMARK    2  A    between atoms: C_10  and  N_11 
REMARK       I    between atoms: N_11  and  C_12 
REMARK       I    between atoms: C_12  and  N_13 
REMARK    3  A    between atoms: N_13  and  C_14 
REMARK    4  A    between atoms: C_14  and  C_15 
ROOT
HETATM    1  N   UNL     1       8.224  28.746  58.003  1.00  0.00    -0.305 N 
HETATM    2  C   UNL     1       7.203  28.472  57.127  1.00  0.00     0.322 C 
HETATM    3  N   UNL     1       6.850  27.127  57.025  1.00  0.00    -0.334 N 
HETATM    4  C   UNL     1       7.493  26.036  57.746  1.00  0.00     0.155 C 
HETATM    5  O   UNL     1       6.623  29.336  56.473  1.00  0.00    -0.247 OA
HETATM    6  H   UNL     1       8.513  28.015  58.628  1.00  0.00     0.171 HD
ENDROOT
BRANCH   1   7
HETATM    7  C   UNL     1       8.824  29.979  58.226  1.00  0.00     0.092 A 
HETATM    8  C   UNL     1      10.067  30.268  57.693  1.00  0.00     0.053 A 
HETATM    9  C   UNL     1      10.999  29.489  56.843  1.00  0.00     0.072 C 
HETATM   10  N   UNL     1      10.371  31.528  58.113  1.00  0.00    -0.280 N 
HETATM   11  H   UNL     1      11.209  32.069  57.923  1.00  0.00     0.189 HD
HETATM   12  N   UNL     1       9.423  32.091  58.861  1.00  0.00    -0.171 NA
HETATM   13  C   UNL     1       8.436  31.170  58.919  1.00  0.00     0.147 A 
BRANCH  13  14
HETATM   14  C   UNL     1       7.143  31.504  59.614  1.00  0.00     0.409 C 
HETATM   15  F   UNL     1       7.185  32.730  60.223  1.00  0.00    -0.207 F 
HETATM   16  F   UNL     1       6.111  31.590  58.725  1.00  0.00    -0.207 F 
ENDBRANCH  13  14
ENDBRANCH   1   7
BRANCH   3  17
HETATM   17  C   UNL     1       5.955  26.744  55.932  1.00  0.00     0.165 C 
BRANCH  17  18
HETATM   18  C   UNL     1       6.654  25.903  54.888  1.00  0.00    -0.039 A 
HETATM   19  C   UNL     1       6.756  24.512  55.041  1.00  0.00     0.032 A 
HETATM   20  C   UNL     1       7.426  23.748  54.083  1.00  0.00     0.034 A 
HETATM   21 CL   UNL     1       7.550  22.044  54.291  1.00  0.00    -0.084 Cl
HETATM   22  C   UNL     1       7.998  24.354  52.967  1.00  0.00     0.024 A 
HETATM   23  C   UNL     1       7.901  25.736  52.806  1.00  0.00     0.002 A 
HETATM   24  C   UNL     1       7.235  26.506  53.761  1.00  0.00     0.009 A 
ENDBRANCH  17  18
ENDBRANCH   3  17
TORSDOF 4
ENDMDL
MODEL 8
REMARK VINA RESULT:      -7.9      3.289      4.214
REMARK  4 active torsions:
REMARK  status: ('A' for Active; 'I' for Inactive)
REMARK    1  A    between atoms: C_6  and  C_7 
REMARK    2  A    between atoms: C_10  and  N_11 
REMARK       I    between atoms: N_11  and  C_12 
REMARK       I    between atoms: C_12  and  N_13 
REMARK    3  A    between atoms: N_13  and  C_14 
REMARK    4  A    between atoms: C_14  and  C_15 
ROOT
HETATM    1  N   UNL     1       4.632  27.620  53.136  1.00  0.00    -0.305 N 
HETATM    2  C   UNL     1       5.954  27.275  53.000  1.00  0.00     0.322 C 
HETATM    3  N   UNL     1       6.187  26.019  52.442  1.00  0.00    -0.334 N 
HETATM    4  C   UNL     1       5.151  25.079  52.032  1.00  0.00     0.155 C 
HETATM    5  O   UNL     1       6.882  28.007  53.336  1.00  0.00    -0.247 OA
HETATM    6  H   UNL     1       3.950  27.050  52.671  1.00  0.00     0.171 HD
ENDROOT
BRANCH   1   7
HETATM    7  C   UNL     1       4.127  28.765  53.738  1.00  0.00     0.092 A 
HETATM    8  C   UNL     1       3.386  29.680  53.010  1.00  0.00     0.053 A 
HETATM    9  C   UNL     1       2.954  29.718  51.592  1.00  0.00     0.072 C 
HETATM   10  N   UNL     1       3.067  30.680  53.879  1.00  0.00    -0.280 N 
HETATM   11  H   UNL     1       2.536  31.526  53.696  1.00  0.00     0.189 HD
HETATM   12  N   UNL     1       3.525  30.486  55.116  1.00  0.00    -0.171 NA
HETATM   13  C   UNL     1       4.153  29.292  55.069  1.00  0.00     0.147 A 
BRANCH  13  14
HETATM   14  C   UNL     1       4.720  28.697  56.329  1.00  0.00     0.409 C 
HETATM   15  F   UNL     1       4.418  27.366  56.454  1.00  0.00    -0.207 F 
HETATM   16  F   UNL     1       6.085  28.746  56.331  1.00  0.00    -0.207 F 
ENDBRANCH  13  14
ENDBRANCH   1   7
BRANCH   3  17
HETATM   17  C   UNL     1       7.552  25.493  52.507  1.00  0.00     0.165 C 
BRANCH  17  18
HETATM   18  C   UNL     1       7.643  24.245  53.355  1.00  0.00    -0.039 A 
HETATM   19  C   UNL     1       7.925  23.001  52.770  1.00  0.00     0.032 A 
HETATM   20  C   UNL     1       7.983  21.851  53.558  1.00  0.00     0.034 A 
HETATM   21 CL   UNL     1       8.321  20.331  52.823  1.00  0.00    -0.084 Cl
HETATM   22  C   UNL     1       7.763  21.922  54.932  1.00  0.00     0.024 A 
HETATM   23  C   UNL     1       7.483  23.153  55.523  1.00  0.00     0.002 A 
HETATM   24  C   UNL     1       7.421  24.308  54.739  1.00  0.00     0.009 A 
ENDBRANCH  17  18
ENDBRANCH   3  17
TORSDOF 4
ENDMDL
MODEL 9
REMARK VINA RESULT:      -7.8      3.423      3.731
REMARK  4 active torsions:
REMARK  status: ('A' for Active; 'I' for Inactive)
REMARK    1  A    between atoms: C_6  and  C_7 
REMARK    2  A    between atoms: C_10  and  N_11 
REMARK       I    between atoms: N_11  and  C_12 
REMARK       I    between atoms: C_12  and  N_13 
REMARK    3  A    between atoms: N_13  and  C_14 
REMARK    4  A    between atoms: C_14  and  C_15 
ROOT
HETATM    1  N   UNL     1       5.218  26.545  54.330  1.00  0.00    -0.305 N 
HETATM    2  C   UNL     1       6.462  26.113  53.943  1.00  0.00     0.322 C 
HETATM    3  N   UNL     1       6.469  25.090  52.996  1.00  0.00    -0.334 N 
HETATM    4  C   UNL     1       5.281  24.461  52.433  1.00  0.00     0.155 C 
HETATM    5  O   UNL     1       7.508  26.584  54.382  1.00  0.00    -0.247 OA
HETATM    6  H   UNL     1       4.428  26.240  53.791  1.00  0.00     0.171 HD
ENDROOT
BRANCH   1   7
HETATM    7  C   UNL     1       4.929  27.482  55.314  1.00  0.00     0.092 A 
HETATM    8  C   UNL     1       5.022  27.151  56.655  1.00  0.00     0.053 A 
HETATM    9  C   UNL     1       5.408  25.903  57.355  1.00  0.00     0.072 C 
HETATM   10  N   UNL     1       4.656  28.269  57.342  1.00  0.00    -0.280 N 
HETATM   11  H   UNL     1       4.596  28.398  58.348  1.00  0.00     0.189 HD
HETATM   12  N   UNL     1       4.347  29.306  56.562  1.00  0.00    -0.171 NA
HETATM   13  C   UNL     1       4.542  28.860  55.302  1.00  0.00     0.147 A 
BRANCH  13  14
HETATM   14  C   UNL     1       4.380  29.805  54.143  1.00  0.00     0.409 C 
HETATM   15  F   UNL     1       4.289  29.145  52.946  1.00  0.00    -0.207 F 
HETATM   16  F   UNL     1       3.217  30.513  54.239  1.00  0.00    -0.207 F 
ENDBRANCH  13  14
ENDBRANCH   1   7
BRANCH   3  17
HETATM   17  C   UNL     1       7.744  24.418  52.736  1.00  0.00     0.165 C 
BRANCH  17  18
HETATM   18  C   UNL     1       7.848  23.092  53.456  1.00  0.00    -0.039 A 
HETATM   19  C   UNL     1       7.985  23.045  54.852  1.00  0.00     0.032 A 
HETATM   20  C   UNL     1       8.104  21.817  55.504  1.00  0.00     0.034 A 
HETATM   21 CL   UNL     1       8.282  21.776  57.216  1.00  0.00    -0.084 Cl
HETATM   22  C   UNL     1       8.088  20.626  54.781  1.00  0.00     0.024 A 
HETATM   23  C   UNL     1       7.951  20.663  53.394  1.00  0.00     0.002 A 
HETATM   24  C   UNL     1       7.833  21.888  52.735  1.00  0.00     0.009 A 
ENDBRANCH  17  18
ENDBRANCH   3  17
TORSDOF 4
ENDMDL
MODEL 10
REMARK VINA RESULT:      -7.8      2.670      3.589
REMARK  4 active torsions:
REMARK  status: ('A' for Active; 'I' for Inactive)
REMARK    1  A    between atoms: C_6  and  C_7 
REMARK    2  A    between atoms: C_10  and  N_11 
REMARK       I    between atoms: N_11  and  C_12 
REMARK       I    between atoms: C_12  and  N_13 
REMARK    3  A    between atoms: N_13  and  C_14 
REMARK    4  A    between atoms: C_14  and  C_15 
ROOT
HETATM    1  N   UNL     1       7.562  29.749  57.197  1.00  0.00    -0.305 N 
HETATM    2  C   UNL     1       7.419  28.394  57.370  1.00  0.00     0.322 C 
HETATM    3  N   UNL     1       6.462  27.789  56.556  1.00  0.00    -0.334 N 
HETATM    4  C   UNL     1       5.623  28.485  55.589  1.00  0.00     0.155 C 
HETATM    5  O   UNL     1       8.079  27.741  58.174  1.00  0.00    -0.247 OA
HETATM    6  H   UNL     1       7.122  30.168  56.398  1.00  0.00     0.171 HD
ENDROOT
BRANCH   1   7
HETATM    7  C   UNL     1       8.373  30.602  57.935  1.00  0.00     0.092 A 
HETATM    8  C   UNL     1       9.739  30.646  57.716  1.00  0.00     0.053 A 
HETATM    9  C   UNL     1      10.626  29.926  56.772  1.00  0.00     0.072 C 
HETATM   10  N   UNL     1      10.231  31.553  58.605  1.00  0.00    -0.280 N 
HETATM   11  H   UNL     1      11.196  31.841  58.741  1.00  0.00     0.189 HD
HETATM   12  N   UNL     1       9.299  32.116  59.374  1.00  0.00    -0.171 NA
HETATM   13  C   UNL     1       8.134  31.575  58.958  1.00  0.00     0.147 A 
BRANCH  13  14
HETATM   14  C   UNL     1       6.835  32.054  59.547  1.00  0.00     0.409 C 
HETATM   15  F   UNL     1       5.751  31.451  58.968  1.00  0.00    -0.207 F 
HETATM   16  F   UNL     1       6.745  31.736  60.872  1.00  0.00    -0.207 F 
ENDBRANCH  13  14
ENDBRANCH   1   7
BRANCH   3  17
HETATM   17  C   UNL     1       6.085  26.409  56.868  1.00  0.00     0.165 C 
BRANCH  17  18
HETATM   18  C   UNL     1       6.856  25.405  56.039  1.00  0.00    -0.039 A 
HETATM   19  C   UNL     1       7.106  25.642  54.679  1.00  0.00     0.032 A 
HETATM   20  C   UNL     1       7.796  24.698  53.918  1.00  0.00     0.034 A 
HETATM   21 CL   UNL     1       8.086  24.999  52.248  1.00  0.00    -0.084 Cl
HETATM   22  C   UNL     1       8.247  23.513  54.496  1.00  0.00     0.024 A 
HETATM   23  C   UNL     1       8.005  23.270  55.848  1.00  0.00     0.002 A 
HETATM   24  C   UNL     1       7.312  24.209  56.615  1.00  0.00     0.009 A 
ENDBRANCH  17  18
ENDBRANCH   3  17
TORSDOF 4
ENDMDL
