MODEL 1
REMARK VINA RESULT:      -9.5      0.000      0.000
REMARK  8 active torsions:
REMARK  status: ('A' for Active; 'I' for Inactive)
REMARK    1  A    between atoms: C_2  and  O_3 
REMARK    2  A    between atoms: O_3  and  C_4 
REMARK    3  A    between atoms: C_5  and  N_6 
REMARK       I    between atoms: N_6  and  C_7 
REMARK       I    between atoms: C_7  and  N_8 
REMARK    4  A    between atoms: N_8  and  C_9 
REMARK    5  A    between atoms: C_9  and  C_10 
REMARK       I    between atoms: C_10  and  N_11 
REMARK    6  A    between atoms: N_11  and  N_12 
REMARK    7  A    between atoms: C_13  and  C_14 
REMARK    8  A    between atoms: C_17  and  N_18 
REMARK       I    between atoms: N_18  and  C_19 
ROOT
HETATM    1  C   UNL     1       8.957  29.928  58.244  1.00  0.00     0.255 C 
HETATM    2  N   UNL     1       8.126  28.821  58.187  1.00  0.00    -0.246 N 
HETATM    3  O   UNL     1      10.042  30.029  57.668  1.00  0.00    -0.270 OA
HETATM    4  H   UNL     1       7.180  28.889  58.571  1.00  0.00     0.192 HD
ENDROOT
BRANCH   1   5
HETATM    5  C   UNL     1       8.347  31.129  58.974  1.00  0.00     0.228 C 
BRANCH   5   6
HETATM    6  N   UNL     1       7.783  30.852  60.290  1.00  0.00    -0.334 N 
HETATM    7  C   UNL     1       7.205  31.863  61.027  1.00  0.00     0.321 C 
HETATM    8  N   UNL     1       6.912  31.425  62.299  1.00  0.00    -0.306 N 
HETATM    9  O   UNL     1       6.921  32.947  60.532  1.00  0.00    -0.247 OA
HETATM   10  H   UNL     1       6.542  30.486  62.321  1.00  0.00     0.171 HD
HETATM   11  H   UNL     1       8.319  30.212  60.859  1.00  0.00     0.164 HD
BRANCH   8  12
HETATM   12  C   UNL     1       6.558  32.275  63.372  1.00  0.00     0.069 A 
HETATM   13  C   UNL     1       5.222  32.562  63.724  1.00  0.00     0.095 A 
HETATM   14  C   UNL     1       4.973  33.400  64.818  1.00  0.00     0.039 A 
HETATM   15  C   UNL     1       6.030  33.987  65.520  1.00  0.00     0.003 A 
HETATM   16  C   UNL     1       7.344  33.754  65.128  1.00  0.00     0.002 A 
HETATM   17  C   UNL     1       7.607  32.908  64.052  1.00  0.00     0.032 A 
BRANCH  13  18
HETATM   18  O   UNL     1       4.241  32.058  62.909  1.00  0.00    -0.349 OA
BRANCH  18  19
HETATM   19  C   UNL     1       3.624  32.941  61.975  1.00  0.00     0.171 C 
HETATM   20  C   UNL     1       3.462  32.195  60.664  1.00  0.00     0.034 C 
ENDBRANCH  18  19
ENDBRANCH  13  18
ENDBRANCH   8  12
ENDBRANCH   5   6
ENDBRANCH   1   5
BRANCH   2  21
HETATM   21  N   UNL     1       8.485  27.741  57.439  1.00  0.00    -0.184 NA
HETATM   22  C   UNL     1       7.560  26.854  57.259  1.00  0.00     0.150 C 
BRANCH  22  23
HETATM   23  C   UNL     1       7.796  25.658  56.424  1.00  0.00    -0.017 A 
HETATM   24  C   UNL     1       8.539  24.582  56.911  1.00  0.00     0.015 A 
HETATM   25  C   UNL     1       8.797  23.475  56.092  1.00  0.00     0.030 A 
HETATM   26  C   UNL     1       8.314  23.435  54.784  1.00  0.00     0.034 A 
HETATM   27  C   UNL     1       7.552  24.513  54.310  1.00  0.00     0.030 A 
HETATM   28  C   UNL     1       7.293  25.623  55.124  1.00  0.00     0.015 A 
BRANCH  26  29
HETATM   29  N   UNL     1       8.560  22.376  53.885  1.00  0.00    -0.328 N 
HETATM   30  C   UNL     1       8.191  21.049  54.027  1.00  0.00     0.218 C 
HETATM   31  C   UNL     1       8.677  20.195  52.883  1.00  0.00     0.117 C 
HETATM   32  O   UNL     1       7.528  20.559  54.933  1.00  0.00    -0.274 OA
HETATM   33  H   UNL     1       9.073  22.615  53.047  1.00  0.00     0.169 HD
ENDBRANCH  26  29
ENDBRANCH  22  23
ENDBRANCH   2  21
TORSDOF 8
ENDMDL
MODEL 2
REMARK VINA RESULT:      -9.2      2.159     11.351
REMARK  8 active torsions:
REMARK  status: ('A' for Active; 'I' for Inactive)
REMARK    1  A    between atoms: C_2  and  O_3 
REMARK    2  A    between atoms: O_3  and  C_4 
REMARK    3  A    between atoms: C_5  and  N_6 
REMARK       I    between atoms: N_6  and  C_7 
REMARK       I    between atoms: C_7  and  N_8 
REMARK    4  A    between atoms: N_8  and  C_9 
REMARK    5  A    between atoms: C_9  and  C_10 
REMARK       I    between atoms: C_10  and  N_11 
REMARK    6  A    between atoms: N_11  and  N_12 
REMARK    7  A    between atoms: C_13  and  C_14 
REMARK    8  A    between atoms: C_17  and  N_18 
REMARK       I    between atoms: N_18  and  C_19 
ROOT
HETATM    1  C   UNL     1       5.996  27.842  56.026  1.00  0.00     0.255 C 
HETATM    2  N   UNL     1       6.991  28.727  56.408  1.00  0.00    -0.246 N 
HETATM    3  O   UNL     1       5.117  27.401  56.769  1.00  0.00    -0.270 OA
HETATM    4  H   UNL     1       7.580  29.155  55.689  1.00  0.00     0.192 HD
ENDROOT
BRANCH   1   5
HETATM    5  C   UNL     1       5.962  27.553  54.522  1.00  0.00     0.228 C 
BRANCH   5   6
HETATM    6  N   UNL     1       6.981  26.632  54.030  1.00  0.00    -0.334 N 
HETATM    7  C   UNL     1       6.786  25.271  54.109  1.00  0.00     0.321 C 
HETATM    8  N   UNL     1       7.937  24.598  53.767  1.00  0.00    -0.306 N 
HETATM    9  O   UNL     1       5.688  24.785  54.355  1.00  0.00    -0.247 OA
HETATM   10  H   UNL     1       8.420  25.011  52.982  1.00  0.00     0.171 HD
HETATM   11  H   UNL     1       7.933  26.902  54.230  1.00  0.00     0.164 HD
BRANCH   8  12
HETATM   12  C   UNL     1       8.150  23.219  53.992  1.00  0.00     0.069 A 
HETATM   13  C   UNL     1       8.751  22.709  55.163  1.00  0.00     0.095 A 
HETATM   14  C   UNL     1       8.898  21.323  55.302  1.00  0.00     0.039 A 
HETATM   15  C   UNL     1       8.505  20.459  54.277  1.00  0.00     0.003 A 
HETATM   16  C   UNL     1       7.972  20.970  53.098  1.00  0.00     0.002 A 
HETATM   17  C   UNL     1       7.804  22.346  52.952  1.00  0.00     0.032 A 
BRANCH  13  18
HETATM   18  O   UNL     1       9.233  23.623  56.064  1.00  0.00    -0.349 OA
BRANCH  18  19
HETATM   19  C   UNL     1       8.508  23.819  57.276  1.00  0.00     0.171 C 
HETATM   20  C   UNL     1       8.364  25.313  57.498  1.00  0.00     0.034 C 
ENDBRANCH  18  19
ENDBRANCH  13  18
ENDBRANCH   8  12
ENDBRANCH   5   6
ENDBRANCH   1   5
BRANCH   2  21
HETATM   21  N   UNL     1       7.036  29.184  57.691  1.00  0.00    -0.184 NA
HETATM   22  C   UNL     1       7.749  30.247  57.880  1.00  0.00     0.150 C 
BRANCH  22  23
HETATM   23  C   UNL     1       7.843  30.882  59.211  1.00  0.00    -0.017 A 
HETATM   24  C   UNL     1       8.720  30.388  60.178  1.00  0.00     0.015 A 
HETATM   25  C   UNL     1       8.763  30.967  61.452  1.00  0.00     0.030 A 
HETATM   26  C   UNL     1       7.934  32.045  61.768  1.00  0.00     0.034 A 
HETATM   27  C   UNL     1       7.071  32.547  60.784  1.00  0.00     0.030 A 
HETATM   28  C   UNL     1       7.022  31.969  59.508  1.00  0.00     0.015 A 
BRANCH  26  29
HETATM   29  N   UNL     1       7.892  32.661  63.036  1.00  0.00    -0.328 N 
HETATM   30  C   UNL     1       6.790  32.824  63.857  1.00  0.00     0.218 C 
HETATM   31  C   UNL     1       7.122  33.583  65.118  1.00  0.00     0.117 C 
HETATM   32  O   UNL     1       5.654  32.408  63.661  1.00  0.00    -0.274 OA
HETATM   33  H   UNL     1       8.768  33.035  63.377  1.00  0.00     0.169 HD
ENDBRANCH  26  29
ENDBRANCH  22  23
ENDBRANCH   2  21
TORSDOF 8
ENDMDL
MODEL 3
REMARK VINA RESULT:      -9.1      2.280      2.555
REMARK  8 active torsions:
REMARK  status: ('A' for Active; 'I' for Inactive)
REMARK    1  A    between atoms: C_2  and  O_3 
REMARK    2  A    between atoms: O_3  and  C_4 
REMARK    3  A    between atoms: C_5  and  N_6 
REMARK       I    between atoms: N_6  and  C_7 
REMARK       I    between atoms: C_7  and  N_8 
REMARK    4  A    between atoms: N_8  and  C_9 
REMARK    5  A    between atoms: C_9  and  C_10 
REMARK       I    between atoms: C_10  and  N_11 
REMARK    6  A    between atoms: N_11  and  N_12 
REMARK    7  A    between atoms: C_13  and  C_14 
REMARK    8  A    between atoms: C_17  and  N_18 
REMARK       I    between atoms: N_18  and  C_19 
ROOT
HETATM    1  C   UNL     1       4.337  30.468  57.504  1.00  0.00     0.255 C 
HETATM    2  N   UNL     1       5.347  29.589  57.859  1.00  0.00    -0.246 N 
HETATM    3  O   UNL     1       3.502  30.266  56.620  1.00  0.00    -0.270 OA
HETATM    4  H   UNL     1       5.894  29.775  58.704  1.00  0.00     0.192 HD
ENDROOT
BRANCH   1   5
HETATM    5  C   UNL     1       4.223  31.690  58.419  1.00  0.00     0.228 C 
BRANCH   5   6
HETATM    6  N   UNL     1       4.293  31.421  59.850  1.00  0.00    -0.334 N 
HETATM    7  C   UNL     1       4.825  32.356  60.711  1.00  0.00     0.321 C 
HETATM    8  N   UNL     1       4.966  31.826  61.973  1.00  0.00    -0.306 N 
HETATM    9  O   UNL     1       5.026  33.515  60.367  1.00  0.00    -0.247 OA
HETATM   10  H   UNL     1       4.187  31.246  62.250  1.00  0.00     0.171 HD
HETATM   11  H   UNL     1       4.551  30.475  60.095  1.00  0.00     0.164 HD
BRANCH   8  12
HETATM   12  C   UNL     1       5.712  32.429  63.012  1.00  0.00     0.069 A 
HETATM   13  C   UNL     1       5.122  33.152  64.070  1.00  0.00     0.095 A 
HETATM   14  C   UNL     1       5.946  33.694  65.064  1.00  0.00     0.039 A 
HETATM   15  C   UNL     1       7.335  33.567  64.985  1.00  0.00     0.003 A 
HETATM   16  C   UNL     1       7.916  32.909  63.906  1.00  0.00     0.002 A 
HETATM   17  C   UNL     1       7.108  32.349  62.918  1.00  0.00     0.032 A 
BRANCH  13  18
HETATM   18  O   UNL     1       3.766  33.350  64.009  1.00  0.00    -0.349 OA
BRANCH  18  19
HETATM   19  C   UNL     1       3.291  34.594  63.502  1.00  0.00     0.171 C 
HETATM   20  C   UNL     1       2.089  34.310  62.619  1.00  0.00     0.034 C 
ENDBRANCH  18  19
ENDBRANCH  13  18
ENDBRANCH   8  12
ENDBRANCH   5   6
ENDBRANCH   1   5
BRANCH   2  21
HETATM   21  N   UNL     1       5.460  28.390  57.221  1.00  0.00    -0.184 NA
HETATM   22  C   UNL     1       6.584  27.773  57.388  1.00  0.00     0.150 C 
BRANCH  22  23
HETATM   23  C   UNL     1       6.823  26.439  56.797  1.00  0.00    -0.017 A 
HETATM   24  C   UNL     1       7.933  25.680  57.172  1.00  0.00     0.015 A 
HETATM   25  C   UNL     1       8.175  24.440  56.568  1.00  0.00     0.030 A 
HETATM   26  C   UNL     1       7.310  23.949  55.589  1.00  0.00     0.034 A 
HETATM   27  C   UNL     1       6.188  24.710  55.233  1.00  0.00     0.030 A 
HETATM   28  C   UNL     1       5.942  25.952  55.832  1.00  0.00     0.015 A 
BRANCH  26  29
HETATM   29  N   UNL     1       7.502  22.728  54.909  1.00  0.00    -0.328 N 
HETATM   30  C   UNL     1       7.891  22.549  53.593  1.00  0.00     0.218 C 
HETATM   31  C   UNL     1       7.936  21.093  53.202  1.00  0.00     0.117 C 
HETATM   32  O   UNL     1       8.200  23.420  52.788  1.00  0.00    -0.274 OA
HETATM   33  H   UNL     1       7.324  21.889  55.445  1.00  0.00     0.169 HD
ENDBRANCH  26  29
ENDBRANCH  22  23
ENDBRANCH   2  21
TORSDOF 8
ENDMDL
MODEL 4
REMARK VINA RESULT:      -9.0      2.207      3.193
REMARK  8 active torsions:
REMARK  status: ('A' for Active; 'I' for Inactive)
REMARK    1  A    between atoms: C_2  and  O_3 
REMARK    2  A    between atoms: O_3  and  C_4 
REMARK    3  A    between atoms: C_5  and  N_6 
REMARK       I    between atoms: N_6  and  C_7 
REMARK       I    between atoms: C_7  and  N_8 
REMARK    4  A    between atoms: N_8  and  C_9 
REMARK    5  A    between atoms: C_9  and  C_10 
REMARK       I    between atoms: C_10  and  N_11 
REMARK    6  A    between atoms: N_11  and  N_12 
REMARK    7  A    between atoms: C_13  and  C_14 
REMARK    8  A    between atoms: C_17  and  N_18 
REMARK       I    between atoms: N_18  and  C_19 
ROOT
HETATM    1  C   UNL     1       4.021  30.425  57.552  1.00  0.00     0.255 C 
HETATM    2  N   UNL     1       5.094  29.594  57.825  1.00  0.00    -0.246 N 
HETATM    3  O   UNL     1       3.120  30.177  56.749  1.00  0.00    -0.270 OA
HETATM    4  H   UNL     1       5.706  29.814  58.615  1.00  0.00     0.192 HD
ENDROOT
BRANCH   1   5
HETATM    5  C   UNL     1       3.937  31.654  58.462  1.00  0.00     0.228 C 
BRANCH   5   6
HETATM    6  N   UNL     1       4.092  31.399  59.890  1.00  0.00    -0.334 N 
HETATM    7  C   UNL     1       4.713  32.325  60.699  1.00  0.00     0.321 C 
HETATM    8  N   UNL     1       4.919  31.804  61.958  1.00  0.00    -0.306 N 
HETATM    9  O   UNL     1       4.933  33.471  60.327  1.00  0.00    -0.247 OA
HETATM   10  H   UNL     1       4.140  31.257  62.293  1.00  0.00     0.171 HD
HETATM   11  H   UNL     1       4.332  30.448  60.130  1.00  0.00     0.164 HD
BRANCH   8  12
HETATM   12  C   UNL     1       5.754  32.392  62.936  1.00  0.00     0.069 A 
HETATM   13  C   UNL     1       7.145  32.167  63.003  1.00  0.00     0.095 A 
HETATM   14  C   UNL     1       7.890  32.814  63.997  1.00  0.00     0.039 A 
HETATM   15  C   UNL     1       7.260  33.628  64.942  1.00  0.00     0.003 A 
HETATM   16  C   UNL     1       5.879  33.795  64.911  1.00  0.00     0.002 A 
HETATM   17  C   UNL     1       5.127  33.172  63.917  1.00  0.00     0.032 A 
BRANCH  13  18
HETATM   18  O   UNL     1       7.671  31.252  62.127  1.00  0.00    -0.349 OA
BRANCH  18  19
HETATM   19  C   UNL     1       8.927  31.546  61.522  1.00  0.00     0.171 C 
HETATM   20  C   UNL     1       8.672  32.460  60.337  1.00  0.00     0.034 C 
ENDBRANCH  18  19
ENDBRANCH  13  18
ENDBRANCH   8  12
ENDBRANCH   5   6
ENDBRANCH   1   5
BRANCH   2  21
HETATM   21  N   UNL     1       5.201  28.392  57.190  1.00  0.00    -0.184 NA
HETATM   22  C   UNL     1       6.404  27.935  57.060  1.00  0.00     0.150 C 
BRANCH  22  23
HETATM   23  C   UNL     1       6.662  26.619  56.440  1.00  0.00    -0.017 A 
HETATM   24  C   UNL     1       5.844  26.140  55.415  1.00  0.00     0.015 A 
HETATM   25  C   UNL     1       6.069  24.869  54.870  1.00  0.00     0.030 A 
HETATM   26  C   UNL     1       7.111  24.070  55.342  1.00  0.00     0.034 A 
HETATM   27  C   UNL     1       7.938  24.568  56.359  1.00  0.00     0.030 A 
HETATM   28  C   UNL     1       7.717  25.837  56.909  1.00  0.00     0.015 A 
BRANCH  26  29
HETATM   29  N   UNL     1       7.381  22.768  54.872  1.00  0.00    -0.328 N 
HETATM   30  C   UNL     1       7.779  22.399  53.598  1.00  0.00     0.218 C 
HETATM   31  C   UNL     1       7.919  20.904  53.454  1.00  0.00     0.117 C 
HETATM   32  O   UNL     1       8.029  23.142  52.657  1.00  0.00    -0.274 OA
HETATM   33  H   UNL     1       7.260  22.020  55.542  1.00  0.00     0.169 HD
ENDBRANCH  26  29
ENDBRANCH  22  23
ENDBRANCH   2  21
TORSDOF 8
ENDMDL
MODEL 5
REMARK VINA RESULT:      -8.8      3.265     10.955
REMARK  8 active torsions:
REMARK  status: ('A' for Active; 'I' for Inactive)
REMARK    1  A    between atoms: C_2  and  O_3 
REMARK    2  A    between atoms: O_3  and  C_4 
REMARK    3  A    between atoms: C_5  and  N_6 
REMARK       I    between atoms: N_6  and  C_7 
REMARK       I    between atoms: C_7  and  N_8 
REMARK    4  A    between atoms: N_8  and  C_9 
REMARK    5  A    between atoms: C_9  and  C_10 
REMARK       I    between atoms: C_10  and  N_11 
REMARK    6  A    between atoms: N_11  and  N_12 
REMARK    7  A    between atoms: C_13  and  C_14 
REMARK    8  A    between atoms: C_17  and  N_18 
REMARK       I    between atoms: N_18  and  C_19 
ROOT
HETATM    1  C   UNL     1      10.021  30.984  58.450  1.00  0.00     0.255 C 
HETATM    2  N   UNL     1       9.414  30.418  59.559  1.00  0.00    -0.246 N 
HETATM    3  O   UNL     1      10.313  32.176  58.335  1.00  0.00    -0.270 OA
HETATM    4  H   UNL     1       9.351  29.399  59.625  1.00  0.00     0.192 HD
ENDROOT
BRANCH   1   5
HETATM    5  C   UNL     1      10.467  29.967  57.395  1.00  0.00     0.228 C 
BRANCH   5   6
HETATM    6  N   UNL     1       9.618  29.866  56.213  1.00  0.00    -0.334 N 
HETATM    7  C   UNL     1       8.596  28.943  56.166  1.00  0.00     0.321 C 
HETATM    8  N   UNL     1       8.052  28.890  54.903  1.00  0.00    -0.306 N 
HETATM    9  O   UNL     1       8.203  28.357  57.168  1.00  0.00    -0.247 OA
HETATM   10  H   UNL     1       7.954  29.799  54.474  1.00  0.00     0.171 HD
HETATM   11  H   UNL     1      10.101  29.958  55.332  1.00  0.00     0.164 HD
BRANCH   8  12
HETATM   12  C   UNL     1       7.173  27.876  54.456  1.00  0.00     0.069 A 
HETATM   13  C   UNL     1       5.769  28.009  54.467  1.00  0.00     0.095 A 
HETATM   14  C   UNL     1       4.984  26.955  53.982  1.00  0.00     0.039 A 
HETATM   15  C   UNL     1       5.577  25.769  53.543  1.00  0.00     0.003 A 
HETATM   16  C   UNL     1       6.959  25.617  53.595  1.00  0.00     0.002 A 
HETATM   17  C   UNL     1       7.754  26.664  54.059  1.00  0.00     0.032 A 
BRANCH  13  18
HETATM   18  O   UNL     1       5.255  29.146  55.036  1.00  0.00    -0.349 OA
BRANCH  18  19
HETATM   19  C   UNL     1       4.394  29.003  56.162  1.00  0.00     0.171 C 
HETATM   20  C   UNL     1       4.975  29.821  57.301  1.00  0.00     0.034 C 
ENDBRANCH  18  19
ENDBRANCH  13  18
ENDBRANCH   8  12
ENDBRANCH   5   6
ENDBRANCH   1   5
BRANCH   2  21
HETATM   21  N   UNL     1       9.106  31.195  60.635  1.00  0.00    -0.184 NA
HETATM   22  C   UNL     1       7.861  31.529  60.744  1.00  0.00     0.150 C 
BRANCH  22  23
HETATM   23  C   UNL     1       7.378  32.325  61.892  1.00  0.00    -0.017 A 
HETATM   24  C   UNL     1       6.253  33.143  61.772  1.00  0.00     0.015 A 
HETATM   25  C   UNL     1       5.836  33.930  62.853  1.00  0.00     0.030 A 
HETATM   26  C   UNL     1       6.535  33.904  64.060  1.00  0.00     0.034 A 
HETATM   27  C   UNL     1       7.653  33.064  64.177  1.00  0.00     0.030 A 
HETATM   28  C   UNL     1       8.076  32.277  63.098  1.00  0.00     0.015 A 
BRANCH  26  29
HETATM   29  N   UNL     1       6.201  34.691  65.182  1.00  0.00    -0.328 N 
HETATM   30  C   UNL     1       5.104  34.548  66.013  1.00  0.00     0.218 C 
HETATM   31  C   UNL     1       5.051  35.614  67.079  1.00  0.00     0.117 C 
HETATM   32  O   UNL     1       4.249  33.671  65.966  1.00  0.00    -0.274 OA
HETATM   33  H   UNL     1       6.833  35.452  65.394  1.00  0.00     0.169 HD
ENDBRANCH  26  29
ENDBRANCH  22  23
ENDBRANCH   2  21
TORSDOF 8
ENDMDL
MODEL 6
REMARK VINA RESULT:      -8.4      3.684     11.777
REMARK  8 active torsions:
REMARK  status: ('A' for Active; 'I' for Inactive)
REMARK    1  A    between atoms: C_2  and  O_3 
REMARK    2  A    between atoms: O_3  and  C_4 
REMARK    3  A    between atoms: C_5  and  N_6 
REMARK       I    between atoms: N_6  and  C_7 
REMARK       I    between atoms: C_7  and  N_8 
REMARK    4  A    between atoms: N_8  and  C_9 
REMARK    5  A    between atoms: C_9  and  C_10 
REMARK       I    between atoms: C_10  and  N_11 
REMARK    6  A    between atoms: N_11  and  N_12 
REMARK    7  A    between atoms: C_13  and  C_14 
REMARK    8  A    between atoms: C_17  and  N_18 
REMARK       I    between atoms: N_18  and  C_19 
ROOT
HETATM    1  C   UNL     1       3.896  32.653  60.582  1.00  0.00     0.255 C 
HETATM    2  N   UNL     1       4.336  31.747  61.533  1.00  0.00    -0.246 N 
HETATM    3  O   UNL     1       3.509  33.798  60.821  1.00  0.00    -0.270 OA
HETATM    4  H   UNL     1       4.780  30.878  61.225  1.00  0.00     0.192 HD
ENDROOT
BRANCH   1   5
HETATM    5  C   UNL     1       4.073  32.175  59.137  1.00  0.00     0.228 C 
BRANCH   5   6
HETATM    6  N   UNL     1       4.967  31.039  58.949  1.00  0.00    -0.334 N 
HETATM    7  C   UNL     1       6.273  31.238  58.560  1.00  0.00     0.321 C 
HETATM    8  N   UNL     1       6.876  30.036  58.262  1.00  0.00    -0.306 N 
HETATM    9  O   UNL     1       6.801  32.343  58.594  1.00  0.00    -0.247 OA
HETATM   10  H   UNL     1       6.630  29.298  58.905  1.00  0.00     0.171 HD
HETATM   11  H   UNL     1       4.547  30.233  58.509  1.00  0.00     0.164 HD
BRANCH   8  12
HETATM   12  C   UNL     1       8.114  29.911  57.592  1.00  0.00     0.069 A 
HETATM   13  C   UNL     1       8.238  29.406  56.280  1.00  0.00     0.095 A 
HETATM   14  C   UNL     1       9.508  29.342  55.694  1.00  0.00     0.039 A 
HETATM   15  C   UNL     1      10.644  29.722  56.413  1.00  0.00     0.003 A 
HETATM   16  C   UNL     1      10.525  30.158  57.729  1.00  0.00     0.002 A 
HETATM   17  C   UNL     1       9.265  30.244  58.319  1.00  0.00     0.032 A 
BRANCH  13  18
HETATM   18  O   UNL     1       7.097  28.928  55.687  1.00  0.00    -0.349 OA
BRANCH  18  19
HETATM   19  C   UNL     1       7.057  27.552  55.320  1.00  0.00     0.171 C 
HETATM   20  C   UNL     1       7.137  27.470  53.806  1.00  0.00     0.034 C 
ENDBRANCH  18  19
ENDBRANCH  13  18
ENDBRANCH   8  12
ENDBRANCH   5   6
ENDBRANCH   1   5
BRANCH   2  21
HETATM   21  N   UNL     1       4.374  32.107  62.847  1.00  0.00    -0.184 NA
HETATM   22  C   UNL     1       5.402  32.808  63.203  1.00  0.00     0.150 C 
BRANCH  22  23
HETATM   23  C   UNL     1       5.545  33.312  64.585  1.00  0.00    -0.017 A 
HETATM   24  C   UNL     1       4.425  33.690  65.327  1.00  0.00     0.015 A 
HETATM   25  C   UNL     1       4.578  34.214  66.617  1.00  0.00     0.030 A 
HETATM   26  C   UNL     1       5.849  34.361  67.175  1.00  0.00     0.034 A 
HETATM   27  C   UNL     1       6.967  33.960  66.428  1.00  0.00     0.030 A 
HETATM   28  C   UNL     1       6.819  33.439  65.137  1.00  0.00     0.015 A 
BRANCH  26  29
HETATM   29  N   UNL     1       6.091  34.911  68.451  1.00  0.00    -0.328 N 
HETATM   30  C   UNL     1       5.847  34.323  69.681  1.00  0.00     0.218 C 
HETATM   31  C   UNL     1       6.184  35.241  70.830  1.00  0.00     0.117 C 
HETATM   32  O   UNL     1       5.432  33.189  69.890  1.00  0.00    -0.274 OA
HETATM   33  H   UNL     1       6.476  35.846  68.466  1.00  0.00     0.169 HD
ENDBRANCH  26  29
ENDBRANCH  22  23
ENDBRANCH   2  21
TORSDOF 8
ENDMDL
MODEL 7
REMARK VINA RESULT:      -8.3      2.519     11.861
REMARK  8 active torsions:
REMARK  status: ('A' for Active; 'I' for Inactive)
REMARK    1  A    between atoms: C_2  and  O_3 
REMARK    2  A    between atoms: O_3  and  C_4 
REMARK    3  A    between atoms: C_5  and  N_6 
REMARK       I    between atoms: N_6  and  C_7 
REMARK       I    between atoms: C_7  and  N_8 
REMARK    4  A    between atoms: N_8  and  C_9 
REMARK    5  A    between atoms: C_9  and  C_10 
REMARK       I    between atoms: C_10  and  N_11 
REMARK    6  A    between atoms: N_11  and  N_12 
REMARK    7  A    between atoms: C_13  and  C_14 
REMARK    8  A    between atoms: C_17  and  N_18 
REMARK       I    between atoms: N_18  and  C_19 
ROOT
HETATM    1  C   UNL     1       7.497  30.109  58.281  1.00  0.00     0.255 C 
HETATM    2  N   UNL     1       7.002  31.291  58.806  1.00  0.00    -0.246 N 
HETATM    3  O   UNL     1       8.173  29.287  58.901  1.00  0.00    -0.270 OA
HETATM    4  H   UNL     1       6.324  31.833  58.262  1.00  0.00     0.192 HD
ENDROOT
BRANCH   1   5
HETATM    5  C   UNL     1       7.000  29.800  56.865  1.00  0.00     0.228 C 
BRANCH   5   6
HETATM    6  N   UNL     1       6.407  28.481  56.674  1.00  0.00    -0.334 N 
HETATM    7  C   UNL     1       7.163  27.443  56.176  1.00  0.00     0.321 C 
HETATM    8  N   UNL     1       6.366  26.354  55.902  1.00  0.00    -0.306 N 
HETATM    9  O   UNL     1       8.385  27.503  56.107  1.00  0.00    -0.247 OA
HETATM   10  H   UNL     1       5.658  26.194  56.603  1.00  0.00     0.171 HD
HETATM   11  H   UNL     1       5.464  28.485  56.314  1.00  0.00     0.164 HD
BRANCH   8  12
HETATM   12  C   UNL     1       6.782  25.233  55.147  1.00  0.00     0.069 A 
HETATM   13  C   UNL     1       6.916  25.251  53.743  1.00  0.00     0.095 A 
HETATM   14  C   UNL     1       7.356  24.094  53.088  1.00  0.00     0.039 A 
HETATM   15  C   UNL     1       7.609  22.922  53.806  1.00  0.00     0.003 A 
HETATM   16  C   UNL     1       7.413  22.890  55.183  1.00  0.00     0.002 A 
HETATM   17  C   UNL     1       6.992  24.039  55.851  1.00  0.00     0.032 A 
BRANCH  13  18
HETATM   18  O   UNL     1       6.521  26.393  53.095  1.00  0.00    -0.349 OA
BRANCH  18  19
HETATM   19  C   UNL     1       5.184  26.461  52.605  1.00  0.00     0.171 C 
HETATM   20  C   UNL     1       5.220  26.194  51.111  1.00  0.00     0.034 C 
ENDBRANCH  18  19
ENDBRANCH  13  18
ENDBRANCH   8  12
ENDBRANCH   5   6
ENDBRANCH   1   5
BRANCH   2  21
HETATM   21  N   UNL     1       7.244  31.609  60.109  1.00  0.00    -0.184 NA
HETATM   22  C   UNL     1       6.326  32.309  60.693  1.00  0.00     0.150 C 
BRANCH  22  23
HETATM   23  C   UNL     1       6.433  32.679  62.119  1.00  0.00    -0.017 A 
HETATM   24  C   UNL     1       7.682  32.837  62.724  1.00  0.00     0.015 A 
HETATM   25  C   UNL     1       7.770  33.139  64.089  1.00  0.00     0.030 A 
HETATM   26  C   UNL     1       6.614  33.286  64.858  1.00  0.00     0.034 A 
HETATM   27  C   UNL     1       5.365  33.143  64.237  1.00  0.00     0.030 A 
HETATM   28  C   UNL     1       5.271  32.840  62.872  1.00  0.00     0.015 A 
BRANCH  26  29
HETATM   29  N   UNL     1       6.618  33.554  66.243  1.00  0.00    -0.328 N 
HETATM   30  C   UNL     1       5.904  34.531  66.913  1.00  0.00     0.218 C 
HETATM   31  C   UNL     1       6.207  34.551  68.391  1.00  0.00     0.117 C 
HETATM   32  O   UNL     1       5.087  35.309  66.434  1.00  0.00    -0.274 OA
HETATM   33  H   UNL     1       7.221  32.968  66.806  1.00  0.00     0.169 HD
ENDBRANCH  26  29
ENDBRANCH  22  23
ENDBRANCH   2  21
TORSDOF 8
ENDMDL
MODEL 8
REMARK VINA RESULT:      -8.2      4.575     11.903
REMARK  8 active torsions:
REMARK  status: ('A' for Active; 'I' for Inactive)
REMARK    1  A    between atoms: C_2  and  O_3 
REMARK    2  A    between atoms: O_3  and  C_4 
REMARK    3  A    between atoms: C_5  and  N_6 
REMARK       I    between atoms: N_6  and  C_7 
REMARK       I    between atoms: C_7  and  N_8 
REMARK    4  A    between atoms: N_8  and  C_9 
REMARK    5  A    between atoms: C_9  and  C_10 
REMARK       I    between atoms: C_10  and  N_11 
REMARK    6  A    between atoms: N_11  and  N_12 
REMARK    7  A    between atoms: C_13  and  C_14 
REMARK    8  A    between atoms: C_17  and  N_18 
REMARK       I    between atoms: N_18  and  C_19 
ROOT
HETATM    1  C   UNL     1       3.741  33.452  60.881  1.00  0.00     0.255 C 
HETATM    2  N   UNL     1       4.126  32.577  61.884  1.00  0.00    -0.246 N 
HETATM    3  O   UNL     1       3.385  34.618  61.058  1.00  0.00    -0.270 OA
HETATM    4  H   UNL     1       4.551  31.682  61.627  1.00  0.00     0.192 HD
ENDROOT
BRANCH   1   5
HETATM    5  C   UNL     1       3.941  32.905  59.464  1.00  0.00     0.228 C 
BRANCH   5   6
HETATM    6  N   UNL     1       4.739  31.688  59.361  1.00  0.00    -0.334 N 
HETATM    7  C   UNL     1       6.009  31.731  58.829  1.00  0.00     0.321 C 
HETATM    8  N   UNL     1       6.502  30.457  58.653  1.00  0.00    -0.306 N 
HETATM    9  O   UNL     1       6.606  32.787  58.654  1.00  0.00    -0.247 OA
HETATM   10  H   UNL     1       6.277  29.836  59.416  1.00  0.00     0.171 HD
HETATM   11  H   UNL     1       4.227  30.864  59.082  1.00  0.00     0.164 HD
BRANCH   8  12
HETATM   12  C   UNL     1       7.655  30.147  57.897  1.00  0.00     0.069 A 
HETATM   13  C   UNL     1       8.960  30.506  58.293  1.00  0.00     0.095 A 
HETATM   14  C   UNL     1      10.042  30.133  57.485  1.00  0.00     0.039 A 
HETATM   15  C   UNL     1       9.830  29.460  56.278  1.00  0.00     0.003 A 
HETATM   16  C   UNL     1       8.537  29.165  55.861  1.00  0.00     0.002 A 
HETATM   17  C   UNL     1       7.452  29.514  56.663  1.00  0.00     0.032 A 
BRANCH  13  18
HETATM   18  O   UNL     1       9.079  31.281  59.418  1.00  0.00    -0.349 OA
BRANCH  18  19
HETATM   19  C   UNL     1       9.083  30.630  60.685  1.00  0.00     0.171 C 
HETATM   20  C   UNL     1       9.287  31.688  61.754  1.00  0.00     0.034 C 
ENDBRANCH  18  19
ENDBRANCH  13  18
ENDBRANCH   8  12
ENDBRANCH   5   6
ENDBRANCH   1   5
BRANCH   2  21
HETATM   21  N   UNL     1       4.140  32.995  63.180  1.00  0.00    -0.184 NA
HETATM   22  C   UNL     1       5.307  33.043  63.738  1.00  0.00     0.150 C 
BRANCH  22  23
HETATM   23  C   UNL     1       5.476  33.529  65.123  1.00  0.00    -0.017 A 
HETATM   24  C   UNL     1       4.366  33.804  65.924  1.00  0.00     0.015 A 
HETATM   25  C   UNL     1       4.540  34.312  67.218  1.00  0.00     0.030 A 
HETATM   26  C   UNL     1       5.820  34.546  67.721  1.00  0.00     0.034 A 
HETATM   27  C   UNL     1       6.929  34.247  66.916  1.00  0.00     0.030 A 
HETATM   28  C   UNL     1       6.761  33.742  65.620  1.00  0.00     0.015 A 
BRANCH  26  29
HETATM   29  N   UNL     1       6.079  35.087  68.998  1.00  0.00    -0.328 N 
HETATM   30  C   UNL     1       5.925  34.463  70.224  1.00  0.00     0.218 C 
HETATM   31  C   UNL     1       6.249  35.380  71.377  1.00  0.00     0.117 C 
HETATM   32  O   UNL     1       5.593  33.301  70.426  1.00  0.00    -0.274 OA
HETATM   33  H   UNL     1       6.404  36.045  69.016  1.00  0.00     0.169 HD
ENDBRANCH  26  29
ENDBRANCH  22  23
ENDBRANCH   2  21
TORSDOF 8
ENDMDL
MODEL 9
REMARK VINA RESULT:      -7.9      2.223      3.179
REMARK  8 active torsions:
REMARK  status: ('A' for Active; 'I' for Inactive)
REMARK    1  A    between atoms: C_2  and  O_3 
REMARK    2  A    between atoms: O_3  and  C_4 
REMARK    3  A    between atoms: C_5  and  N_6 
REMARK       I    between atoms: N_6  and  C_7 
REMARK       I    between atoms: C_7  and  N_8 
REMARK    4  A    between atoms: N_8  and  C_9 
REMARK    5  A    between atoms: C_9  and  C_10 
REMARK       I    between atoms: C_10  and  N_11 
REMARK    6  A    between atoms: N_11  and  N_12 
REMARK    7  A    between atoms: C_13  and  C_14 
REMARK    8  A    between atoms: C_17  and  N_18 
REMARK       I    between atoms: N_18  and  C_19 
ROOT
HETATM    1  C   UNL     1       5.589  29.848  57.443  1.00  0.00     0.255 C 
HETATM    2  N   UNL     1       5.299  28.512  57.668  1.00  0.00    -0.246 N 
HETATM    3  O   UNL     1       6.456  30.263  56.671  1.00  0.00    -0.270 OA
HETATM    4  H   UNL     1       4.464  28.269  58.207  1.00  0.00     0.192 HD
ENDROOT
BRANCH   1   5
HETATM    5  C   UNL     1       4.622  30.820  58.125  1.00  0.00     0.228 C 
BRANCH   5   6
HETATM    6  N   UNL     1       5.229  31.783  59.037  1.00  0.00    -0.334 N 
HETATM    7  C   UNL     1       4.489  32.338  60.058  1.00  0.00     0.321 C 
HETATM    8  N   UNL     1       5.194  33.350  60.670  1.00  0.00    -0.306 N 
HETATM    9  O   UNL     1       3.402  31.883  60.394  1.00  0.00    -0.247 OA
HETATM   10  H   UNL     1       6.172  33.134  60.793  1.00  0.00     0.171 HD
HETATM   11  H   UNL     1       5.854  32.447  58.603  1.00  0.00     0.164 HD
BRANCH   8  12
HETATM   12  C   UNL     1       4.629  34.282  61.570  1.00  0.00     0.069 A 
HETATM   13  C   UNL     1       4.805  34.215  62.968  1.00  0.00     0.095 A 
HETATM   14  C   UNL     1       4.222  35.200  63.774  1.00  0.00     0.039 A 
HETATM   15  C   UNL     1       3.434  36.207  63.210  1.00  0.00     0.003 A 
HETATM   16  C   UNL     1       3.210  36.233  61.838  1.00  0.00     0.002 A 
HETATM   17  C   UNL     1       3.798  35.269  61.021  1.00  0.00     0.032 A 
BRANCH  13  18
HETATM   18  O   UNL     1       5.477  33.124  63.459  1.00  0.00    -0.349 OA
BRANCH  18  19
HETATM   19  C   UNL     1       6.504  33.345  64.421  1.00  0.00     0.171 C 
HETATM   20  C   UNL     1       7.808  32.831  63.840  1.00  0.00     0.034 C 
ENDBRANCH  18  19
ENDBRANCH  13  18
ENDBRANCH   8  12
ENDBRANCH   5   6
ENDBRANCH   1   5
BRANCH   2  21
HETATM   21  N   UNL     1       5.989  27.546  56.999  1.00  0.00    -0.184 NA
HETATM   22  C   UNL     1       5.271  26.743  56.283  1.00  0.00     0.150 C 
BRANCH  22  23
HETATM   23  C   UNL     1       5.892  25.682  55.463  1.00  0.00    -0.017 A 
HETATM   24  C   UNL     1       5.409  25.390  54.186  1.00  0.00     0.015 A 
HETATM   25  C   UNL     1       5.975  24.349  53.440  1.00  0.00     0.030 A 
HETATM   26  C   UNL     1       7.027  23.594  53.962  1.00  0.00     0.034 A 
HETATM   27  C   UNL     1       7.518  23.907  55.237  1.00  0.00     0.030 A 
HETATM   28  C   UNL     1       6.954  24.946  55.989  1.00  0.00     0.015 A 
BRANCH  26  29
HETATM   29  N   UNL     1       7.627  22.508  53.290  1.00  0.00    -0.328 N 
HETATM   30  C   UNL     1       7.880  21.243  53.791  1.00  0.00     0.218 C 
HETATM   31  C   UNL     1       8.587  20.362  52.792  1.00  0.00     0.117 C 
HETATM   32  O   UNL     1       7.573  20.811  54.896  1.00  0.00    -0.274 OA
HETATM   33  H   UNL     1       7.914  22.681  52.335  1.00  0.00     0.169 HD
ENDBRANCH  26  29
ENDBRANCH  22  23
ENDBRANCH   2  21
TORSDOF 8
ENDMDL
MODEL 10
REMARK VINA RESULT:      -7.9      7.475     12.130
REMARK  8 active torsions:
REMARK  status: ('A' for Active; 'I' for Inactive)
REMARK    1  A    between atoms: C_2  and  O_3 
REMARK    2  A    between atoms: O_3  and  C_4 
REMARK    3  A    between atoms: C_5  and  N_6 
REMARK       I    between atoms: N_6  and  C_7 
REMARK       I    between atoms: C_7  and  N_8 
REMARK    4  A    between atoms: N_8  and  C_9 
REMARK    5  A    between atoms: C_9  and  C_10 
REMARK       I    between atoms: C_10  and  N_11 
REMARK    6  A    between atoms: N_11  and  N_12 
REMARK    7  A    between atoms: C_13  and  C_14 
REMARK    8  A    between atoms: C_17  and  N_18 
REMARK       I    between atoms: N_18  and  C_19 
ROOT
HETATM    1  C   UNL     1       5.470  27.211  52.310  1.00  0.00     0.255 C 
HETATM    2  N   UNL     1       5.758  27.286  50.957  1.00  0.00    -0.246 N 
HETATM    3  O   UNL     1       4.338  27.118  52.787  1.00  0.00    -0.270 OA
HETATM    4  H   UNL     1       6.732  27.206  50.651  1.00  0.00     0.192 HD
ENDROOT
BRANCH   1   5
HETATM    5  C   UNL     1       6.706  27.090  53.206  1.00  0.00     0.228 C 
BRANCH   5   6
HETATM    6  N   UNL     1       7.561  25.935  52.956  1.00  0.00    -0.334 N 
HETATM    7  C   UNL     1       7.264  24.714  53.521  1.00  0.00     0.321 C 
HETATM    8  N   UNL     1       8.292  23.823  53.311  1.00  0.00    -0.306 N 
HETATM    9  O   UNL     1       6.176  24.483  54.035  1.00  0.00    -0.247 OA
HETATM   10  H   UNL     1       8.690  23.886  52.386  1.00  0.00     0.171 HD
HETATM   11  H   UNL     1       8.551  26.131  52.948  1.00  0.00     0.164 HD
BRANCH   8  12
HETATM   12  C   UNL     1       8.417  22.581  53.975  1.00  0.00     0.069 A 
HETATM   13  C   UNL     1       8.828  22.459  55.319  1.00  0.00     0.095 A 
HETATM   14  C   UNL     1       8.900  21.184  55.894  1.00  0.00     0.039 A 
HETATM   15  C   UNL     1       8.620  20.044  55.136  1.00  0.00     0.003 A 
HETATM   16  C   UNL     1       8.278  20.165  53.793  1.00  0.00     0.002 A 
HETATM   17  C   UNL     1       8.185  21.429  53.212  1.00  0.00     0.032 A 
BRANCH  13  18
HETATM   18  O   UNL     1       9.215  23.609  55.959  1.00  0.00    -0.349 OA
BRANCH  18  19
HETATM   19  C   UNL     1       8.550  23.961  57.169  1.00  0.00     0.171 C 
HETATM   20  C   UNL     1       8.239  25.446  57.116  1.00  0.00     0.034 C 
ENDBRANCH  18  19
ENDBRANCH  13  18
ENDBRANCH   8  12
ENDBRANCH   5   6
ENDBRANCH   1   5
BRANCH   2  21
HETATM   21  N   UNL     1       4.748  27.246  50.044  1.00  0.00    -0.184 NA
HETATM   22  C   UNL     1       4.376  28.391  49.572  1.00  0.00     0.150 C 
BRANCH  22  23
HETATM   23  C   UNL     1       3.327  28.491  48.536  1.00  0.00    -0.017 A 
HETATM   24  C   UNL     1       3.307  29.562  47.640  1.00  0.00     0.015 A 
HETATM   25  C   UNL     1       2.280  29.670  46.695  1.00  0.00     0.030 A 
HETATM   26  C   UNL     1       1.268  28.711  46.636  1.00  0.00     0.034 A 
HETATM   27  C   UNL     1       1.307  27.629  47.527  1.00  0.00     0.030 A 
HETATM   28  C   UNL     1       2.331  27.517  48.476  1.00  0.00     0.015 A 
BRANCH  26  29
HETATM   29  N   UNL     1       0.181  28.767  45.738  1.00  0.00    -0.328 N 
HETATM   30  C   UNL     1      -0.947  29.564  45.830  1.00  0.00     0.218 C 
HETATM   31  C   UNL     1      -1.923  29.307  44.709  1.00  0.00     0.117 C 
HETATM   32  O   UNL     1      -1.184  30.416  46.679  1.00  0.00    -0.274 OA
HETATM   33  H   UNL     1       0.230  28.144  44.943  1.00  0.00     0.169 HD
ENDBRANCH  26  29
ENDBRANCH  22  23
ENDBRANCH   2  21
TORSDOF 8
ENDMDL
