MODEL 1
REMARK VINA RESULT:     -10.3      0.000      0.000
REMARK  6 active torsions:
REMARK  status: ('A' for Active; 'I' for Inactive)
REMARK    1  A    between atoms: O_2  and  C_3 
REMARK    2  A    between atoms: C_6  and  C_7 
REMARK    3  A    between atoms: C_12  and  C_13 
REMARK       I    between atoms: C_13  and  N_14 
REMARK    4  A    between atoms: N_14  and  C_15 
REMARK    5  A    between atoms: C_17  and  O_18 
REMARK    6  A    between atoms: C_24  and  C_25 
ROOT
HETATM    1  C   UNL     1       8.200  31.476  59.557  1.00  0.00     0.118 C 
HETATM    2  N   UNL     1       7.151  30.853  58.751  1.00  0.00    -0.366 N 
HETATM    3  C   UNL     1       7.330  29.683  58.106  1.00  0.00     0.123 A 
HETATM    4  N   UNL     1       8.569  29.123  57.985  1.00  0.00    -0.240 N 
HETATM    5  N   UNL     1       8.565  27.890  57.447  1.00  0.00    -0.165 NA
HETATM    6  C   UNL     1       7.264  27.699  57.122  1.00  0.00     0.148 A 
HETATM    7  C   UNL     1       6.466  28.818  57.491  1.00  0.00     0.089 A 
HETATM    8  C   UNL     1       9.765  29.730  58.535  1.00  0.00     0.221 C 
HETATM    9  C   UNL     1       9.387  30.517  59.798  1.00  0.00     0.066 C 
HETATM   10  H   UNL     1       6.226  31.275  58.836  1.00  0.00     0.161 HD
ENDROOT
BRANCH   6  11
HETATM   11  C   UNL     1       6.782  26.445  56.513  1.00  0.00     0.276 C 
HETATM   12  N   UNL     1       7.801  25.755  55.886  1.00  0.00    -0.322 N 
HETATM   13  H   UNL     1       8.694  26.239  55.920  1.00  0.00     0.169 HD
HETATM   14  O   UNL     1       5.609  26.100  56.604  1.00  0.00    -0.266 OA
BRANCH  12  15
HETATM   15  C   UNL     1       7.749  24.495  55.266  1.00  0.00     0.037 A 
HETATM   16  C   UNL     1       7.696  23.287  55.966  1.00  0.00     0.066 A 
HETATM   17  C   UNL     1       7.666  22.082  55.265  1.00  0.00     0.067 A 
HETATM   18  C   UNL     1       7.684  22.058  53.877  1.00  0.00     0.036 A 
HETATM   19  C   UNL     1       7.735  23.258  53.172  1.00  0.00     0.005 A 
HETATM   20  C   UNL     1       7.767  24.471  53.865  1.00  0.00     0.029 A 
BRANCH  17  21
HETATM   21  O   UNL     1       7.618  20.885  55.920  1.00  0.00    -0.361 OA
HETATM   22  H   UNL     1       8.197  20.258  55.453  1.00  0.00     0.217 HD
ENDBRANCH  17  21
ENDBRANCH  12  15
ENDBRANCH   6  11
BRANCH   8  23
HETATM   23  C   UNL     1      10.442  30.587  57.491  1.00  0.00     0.409 C 
HETATM   24  F   UNL     1       9.894  30.433  56.265  1.00  0.00    -0.169 F 
HETATM   25  F   UNL     1      10.436  31.904  57.784  1.00  0.00    -0.169 F 
HETATM   26  F   UNL     1      11.746  30.222  57.377  1.00  0.00    -0.169 F 
ENDBRANCH   8  23
BRANCH   1  27
HETATM   27  C   UNL     1       7.595  31.926  60.877  1.00  0.00    -0.035 A 
HETATM   28  C   UNL     1       6.257  32.355  60.950  1.00  0.00     0.012 A 
HETATM   29  C   UNL     1       5.692  32.756  62.163  1.00  0.00     0.037 A 
HETATM   30  C   UNL     1       6.456  32.740  63.329  1.00  0.00     0.068 A 
HETATM   31  C   UNL     1       7.792  32.339  63.261  1.00  0.00     0.037 A 
HETATM   32  C   UNL     1       8.360  31.931  62.049  1.00  0.00     0.012 A 
BRANCH  30  33
HETATM   33  O   UNL     1       6.023  33.100  64.575  1.00  0.00    -0.356 OA
HETATM   34  C   UNL     1       6.981  33.714  65.429  1.00  0.00     0.210 C 
ENDBRANCH  30  33
ENDBRANCH   1  27
TORSDOF 6
ENDMDL
MODEL 2
REMARK VINA RESULT:     -10.1      2.631      9.944
REMARK  6 active torsions:
REMARK  status: ('A' for Active; 'I' for Inactive)
REMARK    1  A    between atoms: O_2  and  C_3 
REMARK    2  A    between atoms: C_6  and  C_7 
REMARK    3  A    between atoms: C_12  and  C_13 
REMARK       I    between atoms: C_13  and  N_14 
REMARK    4  A    between atoms: N_14  and  C_15 
REMARK    5  A    between atoms: C_17  and  O_18 
REMARK    6  A    between atoms: C_24  and  C_25 
ROOT
HETATM    1  C   UNL     1       6.607  26.225  54.718  1.00  0.00     0.118 C 
HETATM    2  N   UNL     1       7.711  27.075  55.162  1.00  0.00    -0.366 N 
HETATM    3  C   UNL     1       7.574  27.990  56.143  1.00  0.00     0.123 A 
HETATM    4  N   UNL     1       6.344  28.331  56.626  1.00  0.00    -0.240 N 
HETATM    5  N   UNL     1       6.379  29.143  57.698  1.00  0.00    -0.165 NA
HETATM    6  C   UNL     1       7.701  29.406  57.842  1.00  0.00     0.148 A 
HETATM    7  C   UNL     1       8.476  28.725  56.862  1.00  0.00     0.089 A 
HETATM    8  C   UNL     1       5.113  27.744  56.134  1.00  0.00     0.221 C 
HETATM    9  C   UNL     1       5.397  26.307  55.675  1.00  0.00     0.066 C 
HETATM   10  H   UNL     1       8.630  26.825  54.796  1.00  0.00     0.161 HD
ENDROOT
BRANCH   6  11
HETATM   11  C   UNL     1       8.219  30.256  58.930  1.00  0.00     0.276 C 
HETATM   12  N   UNL     1       7.199  30.797  59.688  1.00  0.00    -0.322 N 
HETATM   13  H   UNL     1       6.272  30.550  59.351  1.00  0.00     0.169 HD
HETATM   14  O   UNL     1       9.424  30.408  59.104  1.00  0.00    -0.266 OA
BRANCH  12  15
HETATM   15  C   UNL     1       7.297  31.588  60.846  1.00  0.00     0.037 A 
HETATM   16  C   UNL     1       6.658  32.821  61.000  1.00  0.00     0.066 A 
HETATM   17  C   UNL     1       6.827  33.546  62.179  1.00  0.00     0.067 A 
HETATM   18  C   UNL     1       7.622  33.063  63.210  1.00  0.00     0.036 A 
HETATM   19  C   UNL     1       8.261  31.835  63.064  1.00  0.00     0.005 A 
HETATM   20  C   UNL     1       8.099  31.101  61.886  1.00  0.00     0.029 A 
BRANCH  17  21
HETATM   21  O   UNL     1       6.219  34.755  62.358  1.00  0.00    -0.361 OA
HETATM   22  H   UNL     1       6.054  35.147  61.484  1.00  0.00     0.217 HD
ENDBRANCH  17  21
ENDBRANCH  12  15
ENDBRANCH   6  11
BRANCH   8  23
HETATM   23  C   UNL     1       4.527  28.605  55.037  1.00  0.00     0.409 C 
HETATM   24  F   UNL     1       5.466  29.346  54.410  1.00  0.00    -0.169 F 
HETATM   25  F   UNL     1       3.857  27.905  54.100  1.00  0.00    -0.169 F 
HETATM   26  F   UNL     1       3.639  29.483  55.573  1.00  0.00    -0.169 F 
ENDBRANCH   8  23
BRANCH   1  27
HETATM   27  C   UNL     1       7.110  24.796  54.606  1.00  0.00    -0.035 A 
HETATM   28  C   UNL     1       7.242  23.984  55.747  1.00  0.00     0.012 A 
HETATM   29  C   UNL     1       7.689  22.663  55.647  1.00  0.00     0.037 A 
HETATM   30  C   UNL     1       8.016  22.130  54.402  1.00  0.00     0.068 A 
HETATM   31  C   UNL     1       7.911  22.936  53.267  1.00  0.00     0.037 A 
HETATM   32  C   UNL     1       7.459  24.256  53.362  1.00  0.00     0.012 A 
BRANCH  30  33
HETATM   33  O   UNL     1       8.458  20.856  54.169  1.00  0.00    -0.356 OA
HETATM   34  C   UNL     1       8.376  20.391  52.827  1.00  0.00     0.210 C 
ENDBRANCH  30  33
ENDBRANCH   1  27
TORSDOF 6
ENDMDL
MODEL 3
REMARK VINA RESULT:      -9.8      3.263      9.917
REMARK  6 active torsions:
REMARK  status: ('A' for Active; 'I' for Inactive)
REMARK    1  A    between atoms: O_2  and  C_3 
REMARK    2  A    between atoms: C_6  and  C_7 
REMARK    3  A    between atoms: C_12  and  C_13 
REMARK       I    between atoms: C_13  and  N_14 
REMARK    4  A    between atoms: N_14  and  C_15 
REMARK    5  A    between atoms: C_17  and  O_18 
REMARK    6  A    between atoms: C_24  and  C_25 
ROOT
HETATM    1  C   UNL     1       6.752  25.124  53.164  1.00  0.00     0.118 C 
HETATM    2  N   UNL     1       7.569  26.144  53.821  1.00  0.00    -0.366 N 
HETATM    3  C   UNL     1       7.037  27.246  54.388  1.00  0.00     0.123 A 
HETATM    4  N   UNL     1       5.729  27.583  54.188  1.00  0.00    -0.240 N 
HETATM    5  N   UNL     1       5.309  28.621  54.935  1.00  0.00    -0.165 NA
HETATM    6  C   UNL     1       6.437  29.021  55.569  1.00  0.00     0.148 A 
HETATM    7  C   UNL     1       7.547  28.201  55.223  1.00  0.00     0.089 A 
HETATM    8  C   UNL     1       4.827  26.796  53.370  1.00  0.00     0.221 C 
HETATM    9  C   UNL     1       5.246  25.321  53.448  1.00  0.00     0.066 C 
HETATM   10  H   UNL     1       8.548  25.895  53.964  1.00  0.00     0.161 HD
ENDROOT
BRANCH   6  11
HETATM   11  C   UNL     1       6.444  30.141  56.529  1.00  0.00     0.276 C 
HETATM   12  N   UNL     1       7.389  29.961  57.520  1.00  0.00    -0.322 N 
HETATM   13  H   UNL     1       7.892  29.080  57.442  1.00  0.00     0.169 HD
HETATM   14  O   UNL     1       5.691  31.100  56.398  1.00  0.00    -0.266 OA
BRANCH  12  15
HETATM   15  C   UNL     1       7.744  30.840  58.558  1.00  0.00     0.037 A 
HETATM   16  C   UNL     1       6.816  31.500  59.367  1.00  0.00     0.066 A 
HETATM   17  C   UNL     1       7.260  32.369  60.363  1.00  0.00     0.067 A 
HETATM   18  C   UNL     1       8.615  32.591  60.569  1.00  0.00     0.036 A 
HETATM   19  C   UNL     1       9.546  31.936  59.768  1.00  0.00     0.005 A 
HETATM   20  C   UNL     1       9.112  31.064  58.766  1.00  0.00     0.029 A 
BRANCH  17  21
HETATM   21  O   UNL     1       6.378  33.032  61.168  1.00  0.00    -0.361 OA
HETATM   22  H   UNL     1       6.297  32.540  62.002  1.00  0.00     0.217 HD
ENDBRANCH  17  21
ENDBRANCH  12  15
ENDBRANCH   6  11
BRANCH   8  23
HETATM   23  C   UNL     1       4.810  27.327  51.955  1.00  0.00     0.409 C 
HETATM   24  F   UNL     1       3.737  28.112  51.714  1.00  0.00    -0.169 F 
HETATM   25  F   UNL     1       5.916  28.025  51.625  1.00  0.00    -0.169 F 
HETATM   26  F   UNL     1       4.732  26.289  51.080  1.00  0.00    -0.169 F 
ENDBRANCH   8  23
BRANCH   1  27
HETATM   27  C   UNL     1       7.215  23.755  53.635  1.00  0.00    -0.035 A 
HETATM   28  C   UNL     1       7.673  22.792  52.718  1.00  0.00     0.012 A 
HETATM   29  C   UNL     1       8.113  21.537  53.146  1.00  0.00     0.037 A 
HETATM   30  C   UNL     1       8.101  21.219  54.503  1.00  0.00     0.068 A 
HETATM   31  C   UNL     1       7.625  22.160  55.419  1.00  0.00     0.037 A 
HETATM   32  C   UNL     1       7.188  23.419  54.994  1.00  0.00     0.012 A 
BRANCH  30  33
HETATM   33  O   UNL     1       8.508  20.034  55.051  1.00  0.00    -0.356 OA
HETATM   34  C   UNL     1       9.368  20.118  56.182  1.00  0.00     0.210 C 
ENDBRANCH  30  33
ENDBRANCH   1  27
TORSDOF 6
ENDMDL
MODEL 4
REMARK VINA RESULT:      -9.4      3.985     10.045
REMARK  6 active torsions:
REMARK  status: ('A' for Active; 'I' for Inactive)
REMARK    1  A    between atoms: O_2  and  C_3 
REMARK    2  A    between atoms: C_6  and  C_7 
REMARK    3  A    between atoms: C_12  and  C_13 
REMARK       I    between atoms: C_13  and  N_14 
REMARK    4  A    between atoms: N_14  and  C_15 
REMARK    5  A    between atoms: C_17  and  O_18 
REMARK    6  A    between atoms: C_24  and  C_25 
ROOT
HETATM    1  C   UNL     1       6.732  25.217  52.811  1.00  0.00     0.118 C 
HETATM    2  N   UNL     1       7.222  26.361  53.578  1.00  0.00    -0.366 N 
HETATM    3  C   UNL     1       6.439  27.412  53.895  1.00  0.00     0.123 A 
HETATM    4  N   UNL     1       5.205  27.571  53.331  1.00  0.00    -0.240 N 
HETATM    5  N   UNL     1       4.487  28.580  53.856  1.00  0.00    -0.165 NA
HETATM    6  C   UNL     1       5.350  29.150  54.733  1.00  0.00     0.148 A 
HETATM    7  C   UNL     1       6.595  28.462  54.758  1.00  0.00     0.089 A 
HETATM    8  C   UNL     1       4.652  26.639  52.369  1.00  0.00     0.221 C 
HETATM    9  C   UNL     1       5.193  25.234  52.670  1.00  0.00     0.066 C 
HETATM   10  H   UNL     1       8.146  26.245  53.993  1.00  0.00     0.161 HD
ENDROOT
BRANCH   6  11
HETATM   11  C   UNL     1       4.972  30.304  55.569  1.00  0.00     0.276 C 
HETATM   12  N   UNL     1       5.151  30.044  56.914  1.00  0.00    -0.322 N 
HETATM   13  H   UNL     1       5.475  29.098  57.101  1.00  0.00     0.169 HD
HETATM   14  O   UNL     1       4.575  31.352  55.071  1.00  0.00    -0.266 OA
BRANCH  12  15
HETATM   15  C   UNL     1       4.977  30.915  58.002  1.00  0.00     0.037 A 
HETATM   16  C   UNL     1       3.738  31.188  58.587  1.00  0.00     0.066 A 
HETATM   17  C   UNL     1       3.658  32.082  59.655  1.00  0.00     0.067 A 
HETATM   18  C   UNL     1       4.793  32.709  60.152  1.00  0.00     0.036 A 
HETATM   19  C   UNL     1       6.031  32.440  59.575  1.00  0.00     0.005 A 
HETATM   20  C   UNL     1       6.122  31.547  58.505  1.00  0.00     0.029 A 
BRANCH  17  21
HETATM   21  O   UNL     1       2.462  32.373  60.245  1.00  0.00    -0.361 OA
HETATM   22  H   UNL     1       1.759  31.912  59.756  1.00  0.00     0.217 HD
ENDBRANCH  17  21
ENDBRANCH  12  15
ENDBRANCH   6  11
BRANCH   8  23
HETATM   23  C   UNL     1       4.962  27.097  50.962  1.00  0.00     0.409 C 
HETATM   24  F   UNL     1       5.973  27.992  50.925  1.00  0.00    -0.169 F 
HETATM   25  F   UNL     1       5.269  26.090  50.120  1.00  0.00    -0.169 F 
HETATM   26  F   UNL     1       3.875  27.723  50.437  1.00  0.00    -0.169 F 
ENDBRANCH   8  23
BRANCH   1  27
HETATM   27  C   UNL     1       7.196  23.941  53.494  1.00  0.00    -0.035 A 
HETATM   28  C   UNL     1       7.755  22.885  52.750  1.00  0.00     0.012 A 
HETATM   29  C   UNL     1       8.198  21.716  53.374  1.00  0.00     0.037 A 
HETATM   30  C   UNL     1       8.086  21.578  54.756  1.00  0.00     0.068 A 
HETATM   31  C   UNL     1       7.510  22.610  55.500  1.00  0.00     0.037 A 
HETATM   32  C   UNL     1       7.071  23.784  54.879  1.00  0.00     0.012 A 
BRANCH  30  33
HETATM   33  O   UNL     1       8.484  20.492  55.486  1.00  0.00    -0.356 OA
HETATM   34  C   UNL     1       8.575  20.671  56.895  1.00  0.00     0.210 C 
ENDBRANCH  30  33
ENDBRANCH   1  27
TORSDOF 6
ENDMDL
MODEL 5
REMARK VINA RESULT:      -9.3      3.866      9.941
REMARK  6 active torsions:
REMARK  status: ('A' for Active; 'I' for Inactive)
REMARK    1  A    between atoms: O_2  and  C_3 
REMARK    2  A    between atoms: C_6  and  C_7 
REMARK    3  A    between atoms: C_12  and  C_13 
REMARK       I    between atoms: C_13  and  N_14 
REMARK    4  A    between atoms: N_14  and  C_15 
REMARK    5  A    between atoms: C_17  and  O_18 
REMARK    6  A    between atoms: C_24  and  C_25 
ROOT
HETATM    1  C   UNL     1       5.847  26.005  54.136  1.00  0.00     0.118 C 
HETATM    2  N   UNL     1       5.615  27.168  54.991  1.00  0.00    -0.366 N 
HETATM    3  C   UNL     1       6.504  27.577  55.918  1.00  0.00     0.123 A 
HETATM    4  N   UNL     1       7.572  26.801  56.266  1.00  0.00    -0.240 N 
HETATM    5  N   UNL     1       8.446  27.405  57.090  1.00  0.00    -0.165 NA
HETATM    6  C   UNL     1       7.850  28.594  57.354  1.00  0.00     0.148 A 
HETATM    7  C   UNL     1       6.614  28.720  56.661  1.00  0.00     0.089 A 
HETATM    8  C   UNL     1       7.829  25.503  55.674  1.00  0.00     0.221 C 
HETATM    9  C   UNL     1       7.305  25.503  54.230  1.00  0.00     0.066 C 
HETATM   10  H   UNL     1       4.813  27.745  54.736  1.00  0.00     0.161 HD
ENDROOT
BRANCH   6  11
HETATM   11  C   UNL     1       8.476  29.612  58.218  1.00  0.00     0.276 C 
HETATM   12  N   UNL     1       7.639  29.996  59.247  1.00  0.00    -0.322 N 
HETATM   13  H   UNL     1       6.729  29.544  59.216  1.00  0.00     0.169 HD
HETATM   14  O   UNL     1       9.615  30.014  58.009  1.00  0.00    -0.266 OA
BRANCH  12  15
HETATM   15  C   UNL     1       7.908  30.878  60.308  1.00  0.00     0.037 A 
HETATM   16  C   UNL     1       7.115  31.987  60.615  1.00  0.00     0.066 A 
HETATM   17  C   UNL     1       7.470  32.819  61.677  1.00  0.00     0.067 A 
HETATM   18  C   UNL     1       8.601  32.564  62.441  1.00  0.00     0.036 A 
HETATM   19  C   UNL     1       9.395  31.460  62.142  1.00  0.00     0.005 A 
HETATM   20  C   UNL     1       9.050  30.621  61.079  1.00  0.00     0.029 A 
BRANCH  17  21
HETATM   21  O   UNL     1       6.719  33.911  62.000  1.00  0.00    -0.361 OA
HETATM   22  H   UNL     1       5.811  33.615  62.185  1.00  0.00     0.217 HD
ENDBRANCH  17  21
ENDBRANCH  12  15
ENDBRANCH   6  11
BRANCH   8  23
HETATM   23  C   UNL     1       7.214  24.413  56.521  1.00  0.00     0.409 C 
HETATM   24  F   UNL     1       8.101  23.869  57.382  1.00  0.00    -0.169 F 
HETATM   25  F   UNL     1       6.143  24.819  57.232  1.00  0.00    -0.169 F 
HETATM   26  F   UNL     1       6.786  23.401  55.719  1.00  0.00    -0.169 F 
ENDBRANCH   8  23
BRANCH   1  27
HETATM   27  C   UNL     1       5.495  26.376  52.705  1.00  0.00    -0.035 A 
HETATM   28  C   UNL     1       5.512  27.717  52.281  1.00  0.00     0.012 A 
HETATM   29  C   UNL     1       5.205  28.062  50.962  1.00  0.00     0.037 A 
HETATM   30  C   UNL     1       4.871  27.071  50.041  1.00  0.00     0.068 A 
HETATM   31  C   UNL     1       4.828  25.739  50.459  1.00  0.00     0.037 A 
HETATM   32  C   UNL     1       5.141  25.390  51.777  1.00  0.00     0.012 A 
BRANCH  30  33
HETATM   33  O   UNL     1       4.557  27.274  48.726  1.00  0.00    -0.356 OA
HETATM   34  C   UNL     1       3.622  26.371  48.148  1.00  0.00     0.210 C 
ENDBRANCH  30  33
ENDBRANCH   1  27
TORSDOF 6
ENDMDL
MODEL 6
REMARK VINA RESULT:      -9.1      5.990      9.645
REMARK  6 active torsions:
REMARK  status: ('A' for Active; 'I' for Inactive)
REMARK    1  A    between atoms: O_2  and  C_3 
REMARK    2  A    between atoms: C_6  and  C_7 
REMARK    3  A    between atoms: C_12  and  C_13 
REMARK       I    between atoms: C_13  and  N_14 
REMARK    4  A    between atoms: N_14  and  C_15 
REMARK    5  A    between atoms: C_17  and  O_18 
REMARK    6  A    between atoms: C_24  and  C_25 
ROOT
HETATM    1  C   UNL     1       6.248  25.710  55.368  1.00  0.00     0.118 C 
HETATM    2  N   UNL     1       5.266  25.486  54.308  1.00  0.00    -0.366 N 
HETATM    3  C   UNL     1       5.072  26.361  53.301  1.00  0.00     0.123 A 
HETATM    4  N   UNL     1       5.623  27.609  53.332  1.00  0.00    -0.240 N 
HETATM    5  N   UNL     1       5.464  28.309  52.194  1.00  0.00    -0.165 NA
HETATM    6  C   UNL     1       4.688  27.496  51.438  1.00  0.00     0.148 A 
HETATM    7  C   UNL     1       4.396  26.279  52.115  1.00  0.00     0.089 A 
HETATM    8  C   UNL     1       6.446  28.081  54.428  1.00  0.00     0.221 C 
HETATM    9  C   UNL     1       7.194  26.886  55.038  1.00  0.00     0.066 C 
HETATM   10  H   UNL     1       4.848  24.555  54.289  1.00  0.00     0.161 HD
ENDROOT
BRANCH   6  11
HETATM   11  C   UNL     1       4.272  27.856  50.069  1.00  0.00     0.276 C 
HETATM   12  N   UNL     1       2.908  27.729  49.897  1.00  0.00    -0.322 N 
HETATM   13  H   UNL     1       2.429  27.379  50.724  1.00  0.00     0.169 HD
HETATM   14  O   UNL     1       5.085  28.237  49.234  1.00  0.00    -0.266 OA
BRANCH  12  15
HETATM   15  C   UNL     1       2.136  28.051  48.768  1.00  0.00     0.037 A 
HETATM   16  C   UNL     1       1.756  27.122  47.797  1.00  0.00     0.066 A 
HETATM   17  C   UNL     1       1.004  27.537  46.698  1.00  0.00     0.067 A 
HETATM   18  C   UNL     1       0.622  28.863  46.550  1.00  0.00     0.036 A 
HETATM   19  C   UNL     1       0.996  29.795  47.515  1.00  0.00     0.005 A 
HETATM   20  C   UNL     1       1.750  29.390  48.619  1.00  0.00     0.029 A 
BRANCH  17  21
HETATM   21  O   UNL     1       0.620  26.654  45.730  1.00  0.00    -0.361 OA
HETATM   22  H   UNL     1       0.690  27.096  44.867  1.00  0.00     0.217 HD
ENDBRANCH  17  21
ENDBRANCH  12  15
ENDBRANCH   6  11
BRANCH   8  23
HETATM   23  C   UNL     1       5.597  28.818  55.438  1.00  0.00     0.409 C 
HETATM   24  F   UNL     1       5.552  30.147  55.199  1.00  0.00    -0.169 F 
HETATM   25  F   UNL     1       4.328  28.367  55.511  1.00  0.00    -0.169 F 
HETATM   26  F   UNL     1       6.133  28.668  56.679  1.00  0.00    -0.169 F 
ENDBRANCH   8  23
BRANCH   1  27
HETATM   27  C   UNL     1       7.035  24.427  55.579  1.00  0.00    -0.035 A 
HETATM   28  C   UNL     1       7.739  24.200  56.776  1.00  0.00     0.012 A 
HETATM   29  C   UNL     1       8.452  23.016  56.982  1.00  0.00     0.037 A 
HETATM   30  C   UNL     1       8.479  22.036  55.991  1.00  0.00     0.068 A 
HETATM   31  C   UNL     1       7.804  22.264  54.790  1.00  0.00     0.037 A 
HETATM   32  C   UNL     1       7.084  23.445  54.583  1.00  0.00     0.012 A 
BRANCH  30  33
HETATM   33  O   UNL     1       9.132  20.837  56.069  1.00  0.00    -0.356 OA
HETATM   34  C   UNL     1       8.917  19.925  54.998  1.00  0.00     0.210 C 
ENDBRANCH  30  33
ENDBRANCH   1  27
TORSDOF 6
ENDMDL
MODEL 7
REMARK VINA RESULT:      -9.1      7.247     10.868
REMARK  6 active torsions:
REMARK  status: ('A' for Active; 'I' for Inactive)
REMARK    1  A    between atoms: O_2  and  C_3 
REMARK    2  A    between atoms: C_6  and  C_7 
REMARK    3  A    between atoms: C_12  and  C_13 
REMARK       I    between atoms: C_13  and  N_14 
REMARK    4  A    between atoms: N_14  and  C_15 
REMARK    5  A    between atoms: C_17  and  O_18 
REMARK    6  A    between atoms: C_24  and  C_25 
ROOT
HETATM    1  C   UNL     1       5.791  25.305  53.622  1.00  0.00     0.118 C 
HETATM    2  N   UNL     1       5.142  25.120  52.326  1.00  0.00    -0.366 N 
HETATM    3  C   UNL     1       5.049  26.108  51.413  1.00  0.00     0.123 A 
HETATM    4  N   UNL     1       5.359  27.399  51.733  1.00  0.00    -0.240 N 
HETATM    5  N   UNL     1       5.359  28.241  50.683  1.00  0.00    -0.165 NA
HETATM    6  C   UNL     1       4.934  27.459  49.661  1.00  0.00     0.148 A 
HETATM    7  C   UNL     1       4.698  26.124  50.091  1.00  0.00     0.089 A 
HETATM    8  C   UNL     1       5.806  27.799  53.052  1.00  0.00     0.221 C 
HETATM    9  C   UNL     1       6.577  26.633  53.689  1.00  0.00     0.066 C 
HETATM   10  H   UNL     1       4.903  24.157  52.089  1.00  0.00     0.161 HD
ENDROOT
BRANCH   6  11
HETATM   11  C   UNL     1       4.801  27.970  48.284  1.00  0.00     0.276 C 
HETATM   12  N   UNL     1       4.146  29.186  48.249  1.00  0.00    -0.322 N 
HETATM   13  H   UNL     1       3.837  29.503  49.164  1.00  0.00     0.169 HD
HETATM   14  O   UNL     1       5.258  27.355  47.327  1.00  0.00    -0.266 OA
BRANCH  12  15
HETATM   15  C   UNL     1       3.901  30.014  47.140  1.00  0.00     0.037 A 
HETATM   16  C   UNL     1       4.905  30.676  46.430  1.00  0.00     0.066 A 
HETATM   17  C   UNL     1       4.567  31.494  45.352  1.00  0.00     0.067 A 
HETATM   18  C   UNL     1       3.243  31.661  44.967  1.00  0.00     0.036 A 
HETATM   19  C   UNL     1       2.237  31.003  45.669  1.00  0.00     0.005 A 
HETATM   20  C   UNL     1       2.565  30.183  46.751  1.00  0.00     0.029 A 
BRANCH  17  21
HETATM   21  O   UNL     1       5.524  32.158  44.640  1.00  0.00    -0.361 OA
HETATM   22  H   UNL     1       5.192  33.049  44.437  1.00  0.00     0.217 HD
ENDBRANCH  17  21
ENDBRANCH  12  15
ENDBRANCH   6  11
BRANCH   8  23
HETATM   23  C   UNL     1       4.630  28.249  53.888  1.00  0.00     0.409 C 
HETATM   24  F   UNL     1       3.448  27.855  53.365  1.00  0.00    -0.169 F 
HETATM   25  F   UNL     1       4.680  27.824  55.167  1.00  0.00    -0.169 F 
HETATM   26  F   UNL     1       4.597  29.608  53.932  1.00  0.00    -0.169 F 
ENDBRANCH   8  23
BRANCH   1  27
HETATM   27  C   UNL     1       6.710  24.121  53.878  1.00  0.00    -0.035 A 
HETATM   28  C   UNL     1       7.346  23.457  52.813  1.00  0.00     0.012 A 
HETATM   29  C   UNL     1       8.204  22.378  53.044  1.00  0.00     0.037 A 
HETATM   30  C   UNL     1       8.440  21.940  54.346  1.00  0.00     0.068 A 
HETATM   31  C   UNL     1       7.794  22.577  55.407  1.00  0.00     0.037 A 
HETATM   32  C   UNL     1       6.939  23.661  55.180  1.00  0.00     0.012 A 
BRANCH  30  33
HETATM   33  O   UNL     1       9.258  20.904  54.705  1.00  0.00    -0.356 OA
HETATM   34  C   UNL     1       9.181  20.474  56.059  1.00  0.00     0.210 C 
ENDBRANCH  30  33
ENDBRANCH   1  27
TORSDOF 6
ENDMDL
MODEL 8
REMARK VINA RESULT:      -9.0      2.883      9.754
REMARK  6 active torsions:
REMARK  status: ('A' for Active; 'I' for Inactive)
REMARK    1  A    between atoms: O_2  and  C_3 
REMARK    2  A    between atoms: C_6  and  C_7 
REMARK    3  A    between atoms: C_12  and  C_13 
REMARK       I    between atoms: C_13  and  N_14 
REMARK    4  A    between atoms: N_14  and  C_15 
REMARK    5  A    between atoms: C_17  and  O_18 
REMARK    6  A    between atoms: C_24  and  C_25 
ROOT
HETATM    1  C   UNL     1       6.737  26.409  54.106  1.00  0.00     0.118 C 
HETATM    2  N   UNL     1       7.786  27.259  54.667  1.00  0.00    -0.366 N 
HETATM    3  C   UNL     1       7.528  28.246  55.548  1.00  0.00     0.123 A 
HETATM    4  N   UNL     1       6.250  28.653  55.801  1.00  0.00    -0.240 N 
HETATM    5  N   UNL     1       6.143  29.539  56.808  1.00  0.00    -0.165 NA
HETATM    6  C   UNL     1       7.434  29.776  57.147  1.00  0.00     0.148 A 
HETATM    7  C   UNL     1       8.330  29.007  56.354  1.00  0.00     0.089 A 
HETATM    8  C   UNL     1       5.093  28.065  55.155  1.00  0.00     0.221 C 
HETATM    9  C   UNL     1       5.392  26.591  54.845  1.00  0.00     0.066 C 
HETATM   10  H   UNL     1       8.742  26.959  54.472  1.00  0.00     0.161 HD
ENDROOT
BRANCH   6  11
HETATM   11  C   UNL     1       7.802  30.689  58.246  1.00  0.00     0.276 C 
HETATM   12  N   UNL     1       6.697  31.096  58.967  1.00  0.00    -0.322 N 
HETATM   13  H   UNL     1       5.821  30.731  58.601  1.00  0.00     0.169 HD
HETATM   14  O   UNL     1       8.970  30.995  58.458  1.00  0.00    -0.266 OA
BRANCH  12  15
HETATM   15  C   UNL     1       6.654  31.896  60.122  1.00  0.00     0.037 A 
HETATM   16  C   UNL     1       7.574  31.798  61.168  1.00  0.00     0.066 A 
HETATM   17  C   UNL     1       7.442  32.622  62.285  1.00  0.00     0.067 A 
HETATM   18  C   UNL     1       6.409  33.545  62.378  1.00  0.00     0.036 A 
HETATM   19  C   UNL     1       5.488  33.649  61.338  1.00  0.00     0.005 A 
HETATM   20  C   UNL     1       5.611  32.828  60.215  1.00  0.00     0.029 A 
BRANCH  17  21
HETATM   21  O   UNL     1       8.322  32.548  63.326  1.00  0.00    -0.361 OA
HETATM   22  H   UNL     1       8.797  33.394  63.385  1.00  0.00     0.217 HD
ENDBRANCH  17  21
ENDBRANCH  12  15
ENDBRANCH   6  11
BRANCH   8  23
HETATM   23  C   UNL     1       4.724  28.860  53.923  1.00  0.00     0.409 C 
HETATM   24  F   UNL     1       4.727  30.191  54.150  1.00  0.00    -0.169 F 
HETATM   25  F   UNL     1       5.523  28.618  52.864  1.00  0.00    -0.169 F 
HETATM   26  F   UNL     1       3.461  28.539  53.535  1.00  0.00    -0.169 F 
ENDBRANCH   8  23
BRANCH   1  27
HETATM   27  C   UNL     1       7.196  24.962  54.173  1.00  0.00    -0.035 A 
HETATM   28  C   UNL     1       7.576  24.270  53.008  1.00  0.00     0.012 A 
HETATM   29  C   UNL     1       8.014  22.944  53.066  1.00  0.00     0.037 A 
HETATM   30  C   UNL     1       8.078  22.283  54.291  1.00  0.00     0.068 A 
HETATM   31  C   UNL     1       7.680  22.954  55.449  1.00  0.00     0.037 A 
HETATM   32  C   UNL     1       7.246  24.283  55.396  1.00  0.00     0.012 A 
BRANCH  30  33
HETATM   33  O   UNL     1       8.492  20.994  54.483  1.00  0.00    -0.356 OA
HETATM   34  C   UNL     1       8.759  20.605  55.826  1.00  0.00     0.210 C 
ENDBRANCH  30  33
ENDBRANCH   1  27
TORSDOF 6
ENDMDL
MODEL 9
REMARK VINA RESULT:      -9.0      8.473     10.318
REMARK  6 active torsions:
REMARK  status: ('A' for Active; 'I' for Inactive)
REMARK    1  A    between atoms: O_2  and  C_3 
REMARK    2  A    between atoms: C_6  and  C_7 
REMARK    3  A    between atoms: C_12  and  C_13 
REMARK       I    between atoms: C_13  and  N_14 
REMARK    4  A    between atoms: N_14  and  C_15 
REMARK    5  A    between atoms: C_17  and  O_18 
REMARK    6  A    between atoms: C_24  and  C_25 
ROOT
HETATM    1  C   UNL     1       4.171  29.164  48.781  1.00  0.00     0.118 C 
HETATM    2  N   UNL     1       4.113  28.899  50.218  1.00  0.00    -0.366 N 
HETATM    3  C   UNL     1       4.487  27.720  50.754  1.00  0.00     0.123 A 
HETATM    4  N   UNL     1       4.731  26.630  49.969  1.00  0.00    -0.240 N 
HETATM    5  N   UNL     1       5.236  25.575  50.633  1.00  0.00    -0.165 NA
HETATM    6  C   UNL     1       5.220  25.987  51.924  1.00  0.00     0.148 A 
HETATM    7  C   UNL     1       4.725  27.316  52.039  1.00  0.00     0.089 A 
HETATM    8  C   UNL     1       4.613  26.658  48.524  1.00  0.00     0.221 C 
HETATM    9  C   UNL     1       4.955  28.069  48.024  1.00  0.00     0.066 C 
HETATM   10  H   UNL     1       3.924  29.711  50.805  1.00  0.00     0.161 HD
ENDROOT
BRANCH   6  11
HETATM   11  C   UNL     1       5.717  25.141  53.025  1.00  0.00     0.276 C 
HETATM   12  N   UNL     1       6.727  24.296  52.607  1.00  0.00    -0.322 N 
HETATM   13  H   UNL     1       6.931  24.374  51.614  1.00  0.00     0.169 HD
HETATM   14  O   UNL     1       5.263  25.237  54.160  1.00  0.00    -0.266 OA
BRANCH  12  15
HETATM   15  C   UNL     1       7.495  23.406  53.377  1.00  0.00     0.037 A 
HETATM   16  C   UNL     1       7.728  22.075  53.022  1.00  0.00     0.066 A 
HETATM   17  C   UNL     1       8.489  21.259  53.859  1.00  0.00     0.067 A 
HETATM   18  C   UNL     1       9.024  21.746  55.043  1.00  0.00     0.036 A 
HETATM   19  C   UNL     1       8.797  23.072  55.403  1.00  0.00     0.005 A 
HETATM   20  C   UNL     1       8.035  23.898  54.573  1.00  0.00     0.029 A 
BRANCH  17  21
HETATM   21  O   UNL     1       8.732  19.953  53.542  1.00  0.00    -0.361 OA
HETATM   22  H   UNL     1       7.881  19.521  53.352  1.00  0.00     0.217 HD
ENDBRANCH  17  21
ENDBRANCH  12  15
ENDBRANCH   6  11
BRANCH   8  23
HETATM   23  C   UNL     1       3.233  26.206  48.105  1.00  0.00     0.409 C 
HETATM   24  F   UNL     1       3.065  24.873  48.243  1.00  0.00    -0.169 F 
HETATM   25  F   UNL     1       2.236  26.821  48.774  1.00  0.00    -0.169 F 
HETATM   26  F   UNL     1       3.044  26.483  46.788  1.00  0.00    -0.169 F 
ENDBRANCH   8  23
BRANCH   1  27
HETATM   27  C   UNL     1       4.805  30.528  48.565  1.00  0.00    -0.035 A 
HETATM   28  C   UNL     1       4.598  31.240  47.369  1.00  0.00     0.012 A 
HETATM   29  C   UNL     1       5.166  32.501  47.170  1.00  0.00     0.037 A 
HETATM   30  C   UNL     1       5.957  33.074  48.164  1.00  0.00     0.068 A 
HETATM   31  C   UNL     1       6.189  32.364  49.344  1.00  0.00     0.037 A 
HETATM   32  C   UNL     1       5.617  31.104  49.549  1.00  0.00     0.012 A 
BRANCH  30  33
HETATM   33  O   UNL     1       6.564  34.298  48.097  1.00  0.00    -0.356 OA
HETATM   34  C   UNL     1       7.985  34.301  48.021  1.00  0.00     0.210 C 
ENDBRANCH  30  33
ENDBRANCH   1  27
TORSDOF 6
ENDMDL
MODEL 10
REMARK VINA RESULT:      -8.9      8.297     10.597
REMARK  6 active torsions:
REMARK  status: ('A' for Active; 'I' for Inactive)
REMARK    1  A    between atoms: O_2  and  C_3 
REMARK    2  A    between atoms: C_6  and  C_7 
REMARK    3  A    between atoms: C_12  and  C_13 
REMARK       I    between atoms: C_13  and  N_14 
REMARK    4  A    between atoms: N_14  and  C_15 
REMARK    5  A    between atoms: C_17  and  O_18 
REMARK    6  A    between atoms: C_24  and  C_25 
ROOT
HETATM    1  C   UNL     1       4.156  29.338  48.569  1.00  0.00     0.118 C 
HETATM    2  N   UNL     1       4.096  29.093  50.009  1.00  0.00    -0.366 N 
HETATM    3  C   UNL     1       4.403  27.899  50.556  1.00  0.00     0.123 A 
HETATM    4  N   UNL     1       4.574  26.788  49.781  1.00  0.00    -0.240 N 
HETATM    5  N   UNL     1       5.021  25.712  50.453  1.00  0.00    -0.165 NA
HETATM    6  C   UNL     1       5.043  26.139  51.739  1.00  0.00     0.148 A 
HETATM    7  C   UNL     1       4.629  27.496  51.844  1.00  0.00     0.089 A 
HETATM    8  C   UNL     1       4.444  26.807  48.337  1.00  0.00     0.221 C 
HETATM    9  C   UNL     1       4.866  28.189  47.818  1.00  0.00     0.066 C 
HETATM   10  H   UNL     1       3.962  29.922  50.589  1.00  0.00     0.161 HD
ENDROOT
BRANCH   6  11
HETATM   11  C   UNL     1       5.498  25.277  52.846  1.00  0.00     0.276 C 
HETATM   12  N   UNL     1       6.725  24.703  52.577  1.00  0.00    -0.322 N 
HETATM   13  H   UNL     1       7.088  24.940  51.657  1.00  0.00     0.169 HD
HETATM   14  O   UNL     1       4.832  25.142  53.867  1.00  0.00    -0.266 OA
BRANCH  12  15
HETATM   15  C   UNL     1       7.511  23.891  53.413  1.00  0.00     0.037 A 
HETATM   16  C   UNL     1       7.907  24.258  54.701  1.00  0.00     0.066 A 
HETATM   17  C   UNL     1       8.704  23.395  55.453  1.00  0.00     0.067 A 
HETATM   18  C   UNL     1       9.112  22.169  54.944  1.00  0.00     0.036 A 
HETATM   19  C   UNL     1       8.720  21.796  53.661  1.00  0.00     0.005 A 
HETATM   20  C   UNL     1       7.923  22.654  52.899  1.00  0.00     0.029 A 
BRANCH  17  21
HETATM   21  O   UNL     1       9.111  23.725  56.713  1.00  0.00    -0.361 OA
HETATM   22  H   UNL     1       9.642  24.539  56.660  1.00  0.00     0.217 HD
ENDBRANCH  17  21
ENDBRANCH  12  15
ENDBRANCH   6  11
BRANCH   8  23
HETATM   23  C   UNL     1       3.036  26.434  47.936  1.00  0.00     0.409 C 
HETATM   24  F   UNL     1       2.107  26.997  48.740  1.00  0.00    -0.169 F 
HETATM   25  F   UNL     1       2.732  26.758  46.663  1.00  0.00    -0.169 F 
HETATM   26  F   UNL     1       2.872  25.089  48.043  1.00  0.00    -0.169 F 
ENDBRANCH   8  23
BRANCH   1  27
HETATM   27  C   UNL     1       4.869  30.659  48.331  1.00  0.00    -0.035 A 
HETATM   28  C   UNL     1       5.721  31.207  49.307  1.00  0.00     0.012 A 
HETATM   29  C   UNL     1       6.391  32.413  49.087  1.00  0.00     0.037 A 
HETATM   30  C   UNL     1       6.219  33.098  47.885  1.00  0.00     0.068 A 
HETATM   31  C   UNL     1       5.356  32.574  46.920  1.00  0.00     0.037 A 
HETATM   32  C   UNL     1       4.688  31.363  47.135  1.00  0.00     0.012 A 
BRANCH  30  33
HETATM   33  O   UNL     1       6.818  34.279  47.544  1.00  0.00    -0.356 OA
HETATM   34  C   UNL     1       7.608  34.274  46.360  1.00  0.00     0.210 C 
ENDBRANCH  30  33
ENDBRANCH   1  27
TORSDOF 6
ENDMDL
