MODEL 1
REMARK VINA RESULT:      -9.3      0.000      0.000
REMARK  6 active torsions:
REMARK  status: ('A' for Active; 'I' for Inactive)
REMARK    1  A    between atoms: C_9  and  C_10 
REMARK    2  A    between atoms: C_10  and  N_11 
REMARK       I    between atoms: N_11  and  C_12 
REMARK    3  A    between atoms: N_11  and  C_22 
REMARK    4  A    between atoms: C_12  and  C_13 
REMARK    5  A    between atoms: C_16  and  O_17 
REMARK    6  A    between atoms: C_22  and  C_23 
ROOT
HETATM    1  N   UNL     1       6.434  27.336  56.038  1.00  0.00    -0.341 N 
HETATM    2  C   UNL     1       7.194  27.309  57.213  1.00  0.00     0.254 C 
HETATM    3  O   UNL     1       7.178  26.376  58.015  1.00  0.00    -0.267 OA
ENDROOT
BRANCH   1   4
HETATM    4  C   UNL     1       5.555  26.194  55.784  1.00  0.00     0.170 C 
BRANCH   4   5
HETATM    5  C   UNL     1       6.249  25.087  55.045  1.00  0.00     0.029 A 
HETATM    6  C   UNL     1       6.217  25.122  53.552  1.00  0.00     0.253 A 
HETATM    7  N   UNL     1       6.819  24.081  52.891  1.00  0.00    -0.322 N 
HETATM    8  O   UNL     1       5.667  26.026  52.928  1.00  0.00    -0.268 OA
HETATM    9  C   UNL     1       7.395  22.980  53.535  1.00  0.00     0.045 A 
HETATM   10  H   UNL     1       6.792  24.124  51.883  1.00  0.00     0.169 HD
HETATM   11  C   UNL     1       7.394  22.930  54.932  1.00  0.00    -0.008 A 
HETATM   12  C   UNL     1       7.939  21.936  52.788  1.00  0.00     0.031 A 
HETATM   13  C   UNL     1       7.926  21.812  55.583  1.00  0.00     0.020 A 
HETATM   14  C   UNL     1       6.813  24.042  55.678  1.00  0.00     0.028 A 
HETATM   15  C   UNL     1       8.445  20.740  54.843  1.00  0.00    -0.061 A 
HETATM   16  C   UNL     1       9.018  19.545  55.547  1.00  0.00     0.048 C 
HETATM   17  C   UNL     1       8.467  20.821  53.443  1.00  0.00     0.009 A 
ENDBRANCH   4   5
ENDBRANCH   1   4
BRANCH   1  18
HETATM   18  C   UNL     1       6.031  28.592  55.378  1.00  0.00     0.158 C 
BRANCH  18  19
HETATM   19  C   UNL     1       4.535  28.916  55.578  1.00  0.00     0.139 C 
HETATM   20  O   UNL     1       4.055  29.706  54.469  1.00  0.00    -0.384 OA
HETATM   21  C   UNL     1       3.723  31.018  54.937  1.00  0.00     0.168 C 
HETATM   22  C   UNL     1       4.355  31.165  56.301  1.00  0.00     0.029 C 
HETATM   23  C   UNL     1       4.287  29.753  56.827  1.00  0.00     0.035 C 
ENDBRANCH  18  19
ENDBRANCH   1  18
BRANCH   2  24
HETATM   24  C   UNL     1       8.053  28.471  57.546  1.00  0.00     0.032 A 
HETATM   25  C   UNL     1       7.594  29.388  58.495  1.00  0.00     0.020 A 
HETATM   26  C   UNL     1       8.369  30.505  58.809  1.00  0.00     0.038 A 
HETATM   27  C   UNL     1       9.602  30.714  58.183  1.00  0.00     0.068 A 
HETATM   28  C   UNL     1      10.082  29.767  57.275  1.00  0.00     0.038 A 
HETATM   29  C   UNL     1       9.314  28.637  56.967  1.00  0.00     0.020 A 
BRANCH  27  30
HETATM   30  O   UNL     1      10.245  31.861  58.558  1.00  0.00    -0.356 OA
HETATM   31  C   UNL     1       9.975  32.342  59.870  1.00  0.00     0.210 C 
ENDBRANCH  27  30
ENDBRANCH   2  24
TORSDOF 6
ENDMDL
MODEL 2
REMARK VINA RESULT:      -8.7      2.731      5.492
REMARK  6 active torsions:
REMARK  status: ('A' for Active; 'I' for Inactive)
REMARK    1  A    between atoms: C_9  and  C_10 
REMARK    2  A    between atoms: C_10  and  N_11 
REMARK       I    between atoms: N_11  and  C_12 
REMARK    3  A    between atoms: N_11  and  C_22 
REMARK    4  A    between atoms: C_12  and  C_13 
REMARK    5  A    between atoms: C_16  and  O_17 
REMARK    6  A    between atoms: C_22  and  C_23 
ROOT
HETATM    1  N   UNL     1       6.128  27.397  54.759  1.00  0.00    -0.341 N 
HETATM    2  C   UNL     1       6.749  27.675  53.535  1.00  0.00     0.254 C 
HETATM    3  O   UNL     1       7.968  27.673  53.373  1.00  0.00    -0.267 OA
ENDROOT
BRANCH   1   4
HETATM    4  C   UNL     1       6.999  27.122  55.902  1.00  0.00     0.170 C 
BRANCH   4   5
HETATM    5  C   UNL     1       7.323  25.664  56.042  1.00  0.00     0.029 A 
HETATM    6  C   UNL     1       7.781  25.178  57.378  1.00  0.00     0.253 A 
HETATM    7  N   UNL     1       8.114  23.851  57.479  1.00  0.00    -0.322 N 
HETATM    8  O   UNL     1       7.878  25.924  58.350  1.00  0.00    -0.268 OA
HETATM    9  C   UNL     1       8.104  22.962  56.398  1.00  0.00     0.045 A 
HETATM   10  H   UNL     1       8.418  23.540  58.391  1.00  0.00     0.169 HD
HETATM   11  C   UNL     1       7.707  23.424  55.140  1.00  0.00    -0.008 A 
HETATM   12  C   UNL     1       8.508  21.640  56.573  1.00  0.00     0.031 A 
HETATM   13  C   UNL     1       7.738  22.555  54.045  1.00  0.00     0.020 A 
HETATM   14  C   UNL     1       7.293  24.816  54.997  1.00  0.00     0.028 A 
HETATM   15  C   UNL     1       8.176  21.232  54.200  1.00  0.00    -0.061 A 
HETATM   16  C   UNL     1       8.203  20.303  53.022  1.00  0.00     0.048 C 
HETATM   17  C   UNL     1       8.539  20.777  55.476  1.00  0.00     0.009 A 
ENDBRANCH   4   5
ENDBRANCH   1   4
BRANCH   1  18
HETATM   18  C   UNL     1       4.785  27.900  55.104  1.00  0.00     0.158 C 
BRANCH  18  19
HETATM   19  C   UNL     1       4.822  28.995  56.193  1.00  0.00     0.139 C 
HETATM   20  O   UNL     1       3.474  29.353  56.568  1.00  0.00    -0.384 OA
HETATM   21  C   UNL     1       3.215  30.701  56.155  1.00  0.00     0.168 C 
HETATM   22  C   UNL     1       4.302  31.070  55.173  1.00  0.00     0.029 C 
HETATM   23  C   UNL     1       5.475  30.279  55.698  1.00  0.00     0.035 C 
ENDBRANCH  18  19
ENDBRANCH   1  18
BRANCH   2  24
HETATM   24  C   UNL     1       5.912  28.021  52.361  1.00  0.00     0.032 A 
HETATM   25  C   UNL     1       5.454  26.987  51.541  1.00  0.00     0.020 A 
HETATM   26  C   UNL     1       4.687  27.286  50.414  1.00  0.00     0.038 A 
HETATM   27  C   UNL     1       4.370  28.612  50.101  1.00  0.00     0.068 A 
HETATM   28  C   UNL     1       4.784  29.639  50.953  1.00  0.00     0.038 A 
HETATM   29  C   UNL     1       5.543  29.342  52.092  1.00  0.00     0.020 A 
BRANCH  27  30
HETATM   30  O   UNL     1       3.640  28.768  48.955  1.00  0.00    -0.356 OA
HETATM   31  C   UNL     1       2.518  27.908  48.794  1.00  0.00     0.210 C 
ENDBRANCH  27  30
ENDBRANCH   2  24
TORSDOF 6
ENDMDL
MODEL 3
REMARK VINA RESULT:      -8.7      1.559      1.916
REMARK  6 active torsions:
REMARK  status: ('A' for Active; 'I' for Inactive)
REMARK    1  A    between atoms: C_9  and  C_10 
REMARK    2  A    between atoms: C_10  and  N_11 
REMARK       I    between atoms: N_11  and  C_12 
REMARK    3  A    between atoms: N_11  and  C_22 
REMARK    4  A    between atoms: C_12  and  C_13 
REMARK    5  A    between atoms: C_16  and  O_17 
REMARK    6  A    between atoms: C_22  and  C_23 
ROOT
HETATM    1  N   UNL     1       5.655  27.378  54.965  1.00  0.00    -0.341 N 
HETATM    2  C   UNL     1       5.577  27.438  56.361  1.00  0.00     0.254 C 
HETATM    3  O   UNL     1       5.008  26.593  57.050  1.00  0.00    -0.267 OA
ENDROOT
BRANCH   1   4
HETATM    4  C   UNL     1       4.989  26.253  54.307  1.00  0.00     0.170 C 
BRANCH   4   5
HETATM    5  C   UNL     1       5.931  25.127  53.996  1.00  0.00     0.029 A 
HETATM    6  C   UNL     1       6.270  24.881  52.562  1.00  0.00     0.253 A 
HETATM    7  N   UNL     1       7.099  23.822  52.291  1.00  0.00    -0.322 N 
HETATM    8  O   UNL     1       5.823  25.576  51.653  1.00  0.00    -0.268 OA
HETATM    9  C   UNL     1       7.583  22.942  53.266  1.00  0.00     0.045 A 
HETATM   10  H   UNL     1       7.321  23.673  51.317  1.00  0.00     0.169 HD
HETATM   11  C   UNL     1       7.238  23.152  54.605  1.00  0.00    -0.008 A 
HETATM   12  C   UNL     1       8.378  21.858  52.901  1.00  0.00     0.031 A 
HETATM   13  C   UNL     1       7.679  22.253  55.580  1.00  0.00     0.020 A 
HETATM   14  C   UNL     1       6.401  24.299  54.947  1.00  0.00     0.028 A 
HETATM   15  C   UNL     1       8.450  21.138  55.222  1.00  0.00    -0.061 A 
HETATM   16  C   UNL     1       8.923  20.178  56.274  1.00  0.00     0.048 C 
HETATM   17  C   UNL     1       8.814  20.961  53.879  1.00  0.00     0.009 A 
ENDBRANCH   4   5
ENDBRANCH   1   4
BRANCH   1  18
HETATM   18  C   UNL     1       5.834  28.575  54.124  1.00  0.00     0.158 C 
BRANCH  18  19
HETATM   19  C   UNL     1       4.741  28.710  53.040  1.00  0.00     0.139 C 
HETATM   20  O   UNL     1       5.280  29.391  51.886  1.00  0.00    -0.384 OA
HETATM   21  C   UNL     1       4.640  30.666  51.753  1.00  0.00     0.168 C 
HETATM   22  C   UNL     1       3.946  30.942  53.065  1.00  0.00     0.029 C 
HETATM   23  C   UNL     1       3.562  29.553  53.512  1.00  0.00     0.035 C 
ENDBRANCH  18  19
ENDBRANCH   1  18
BRANCH   2  24
HETATM   24  C   UNL     1       6.183  28.591  57.070  1.00  0.00     0.032 A 
HETATM   25  C   UNL     1       5.435  29.765  57.192  1.00  0.00     0.020 A 
HETATM   26  C   UNL     1       5.990  30.875  57.831  1.00  0.00     0.038 A 
HETATM   27  C   UNL     1       7.287  30.822  58.351  1.00  0.00     0.068 A 
HETATM   28  C   UNL     1       8.011  29.629  58.275  1.00  0.00     0.038 A 
HETATM   29  C   UNL     1       7.454  28.509  57.647  1.00  0.00     0.020 A 
BRANCH  27  30
HETATM   30  O   UNL     1       7.720  31.986  58.924  1.00  0.00    -0.356 OA
HETATM   31  C   UNL     1       8.999  31.952  59.546  1.00  0.00     0.210 C 
ENDBRANCH  27  30
ENDBRANCH   2  24
TORSDOF 6
ENDMDL
MODEL 4
REMARK VINA RESULT:      -8.4      3.973      7.227
REMARK  6 active torsions:
REMARK  status: ('A' for Active; 'I' for Inactive)
REMARK    1  A    between atoms: C_9  and  C_10 
REMARK    2  A    between atoms: C_10  and  N_11 
REMARK       I    between atoms: N_11  and  C_12 
REMARK    3  A    between atoms: N_11  and  C_22 
REMARK    4  A    between atoms: C_12  and  C_13 
REMARK    5  A    between atoms: C_16  and  O_17 
REMARK    6  A    between atoms: C_22  and  C_23 
ROOT
HETATM    1  N   UNL     1       6.260  26.997  53.580  1.00  0.00    -0.341 N 
HETATM    2  C   UNL     1       5.804  25.697  53.831  1.00  0.00     0.254 C 
HETATM    3  O   UNL     1       4.614  25.389  53.876  1.00  0.00    -0.267 OA
ENDROOT
BRANCH   1   4
HETATM    4  C   UNL     1       5.246  28.036  53.394  1.00  0.00     0.170 C 
BRANCH   4   5
HETATM    5  C   UNL     1       4.844  28.197  51.957  1.00  0.00     0.029 A 
HETATM    6  C   UNL     1       4.622  29.585  51.449  1.00  0.00     0.253 A 
HETATM    7  N   UNL     1       4.213  29.714  50.146  1.00  0.00    -0.322 N 
HETATM    8  O   UNL     1       4.778  30.576  52.159  1.00  0.00    -0.268 OA
HETATM    9  C   UNL     1       3.940  28.629  49.305  1.00  0.00     0.045 A 
HETATM   10  H   UNL     1       4.073  30.659  49.819  1.00  0.00     0.169 HD
HETATM   11  C   UNL     1       4.115  27.330  49.790  1.00  0.00    -0.008 A 
HETATM   12  C   UNL     1       3.477  28.845  48.009  1.00  0.00     0.031 A 
HETATM   13  C   UNL     1       3.802  26.239  48.973  1.00  0.00     0.020 A 
HETATM   14  C   UNL     1       4.600  27.145  51.155  1.00  0.00     0.028 A 
HETATM   15  C   UNL     1       3.301  26.443  47.679  1.00  0.00    -0.061 A 
HETATM   16  C   UNL     1       2.970  25.269  46.805  1.00  0.00     0.048 C 
HETATM   17  C   UNL     1       3.163  27.752  47.197  1.00  0.00     0.009 A 
ENDBRANCH   4   5
ENDBRANCH   1   4
BRANCH   1  18
HETATM   18  C   UNL     1       7.575  27.483  54.037  1.00  0.00     0.158 C 
BRANCH  18  19
HETATM   19  C   UNL     1       7.463  28.516  55.180  1.00  0.00     0.139 C 
HETATM   20  O   UNL     1       8.749  29.132  55.407  1.00  0.00    -0.384 OA
HETATM   21  C   UNL     1       9.235  28.740  56.697  1.00  0.00     0.168 C 
HETATM   22  C   UNL     1       8.401  27.560  57.135  1.00  0.00     0.029 C 
HETATM   23  C   UNL     1       7.067  27.871  56.503  1.00  0.00     0.035 C 
ENDBRANCH  18  19
ENDBRANCH   1  18
BRANCH   2  24
HETATM   24  C   UNL     1       6.791  24.622  54.088  1.00  0.00     0.032 A 
HETATM   25  C   UNL     1       7.089  24.294  55.413  1.00  0.00     0.020 A 
HETATM   26  C   UNL     1       8.034  23.304  55.685  1.00  0.00     0.038 A 
HETATM   27  C   UNL     1       8.685  22.636  54.643  1.00  0.00     0.068 A 
HETATM   28  C   UNL     1       8.345  22.928  53.319  1.00  0.00     0.038 A 
HETATM   29  C   UNL     1       7.388  23.912  53.042  1.00  0.00     0.020 A 
BRANCH  27  30
HETATM   30  O   UNL     1       9.609  21.712  55.046  1.00  0.00    -0.356 OA
HETATM   31  C   UNL     1       9.119  20.612  55.805  1.00  0.00     0.210 C 
ENDBRANCH  27  30
ENDBRANCH   2  24
TORSDOF 6
ENDMDL
MODEL 5
REMARK VINA RESULT:      -8.1      3.481      9.433
REMARK  6 active torsions:
REMARK  status: ('A' for Active; 'I' for Inactive)
REMARK    1  A    between atoms: C_9  and  C_10 
REMARK    2  A    between atoms: C_10  and  N_11 
REMARK       I    between atoms: N_11  and  C_12 
REMARK    3  A    between atoms: N_11  and  C_22 
REMARK    4  A    between atoms: C_12  and  C_13 
REMARK    5  A    between atoms: C_16  and  O_17 
REMARK    6  A    between atoms: C_22  and  C_23 
ROOT
HETATM    1  N   UNL     1       8.067  30.287  58.464  1.00  0.00    -0.341 N 
HETATM    2  C   UNL     1       8.722  29.368  57.635  1.00  0.00     0.254 C 
HETATM    3  O   UNL     1       9.904  29.467  57.307  1.00  0.00    -0.267 OA
ENDROOT
BRANCH   1   4
HETATM    4  C   UNL     1       8.843  31.437  58.930  1.00  0.00     0.170 C 
BRANCH   4   5
HETATM    5  C   UNL     1       8.487  31.843  60.330  1.00  0.00     0.029 A 
HETATM    6  C   UNL     1       8.923  30.950  61.445  1.00  0.00     0.253 A 
HETATM    7  N   UNL     1       8.554  31.312  62.715  1.00  0.00    -0.322 N 
HETATM    8  O   UNL     1       9.570  29.923  61.249  1.00  0.00    -0.268 OA
HETATM    9  C   UNL     1       7.753  32.422  63.006  1.00  0.00     0.045 A 
HETATM   10  H   UNL     1       8.862  30.699  63.456  1.00  0.00     0.169 HD
HETATM   11  C   UNL     1       7.316  33.240  61.960  1.00  0.00    -0.008 A 
HETATM   12  C   UNL     1       7.377  32.692  64.320  1.00  0.00     0.031 A 
HETATM   13  C   UNL     1       6.477  34.324  62.235  1.00  0.00     0.020 A 
HETATM   14  C   UNL     1       7.729  32.923  60.596  1.00  0.00     0.028 A 
HETATM   15  C   UNL     1       6.063  34.586  63.549  1.00  0.00    -0.061 A 
HETATM   16  C   UNL     1       5.166  35.753  63.840  1.00  0.00     0.048 C 
HETATM   17  C   UNL     1       6.538  33.775  64.590  1.00  0.00     0.009 A 
ENDBRANCH   4   5
ENDBRANCH   1   4
BRANCH   1  18
HETATM   18  C   UNL     1       6.607  30.492  58.431  1.00  0.00     0.158 C 
BRANCH  18  19
HETATM   19  C   UNL     1       6.155  31.365  57.240  1.00  0.00     0.139 C 
HETATM   20  O   UNL     1       5.740  32.663  57.717  1.00  0.00    -0.384 OA
HETATM   21  C   UNL     1       4.330  32.810  57.507  1.00  0.00     0.168 C 
HETATM   22  C   UNL     1       3.787  31.429  57.226  1.00  0.00     0.029 C 
HETATM   23  C   UNL     1       4.949  30.777  56.518  1.00  0.00     0.035 C 
ENDBRANCH  18  19
ENDBRANCH   1  18
BRANCH   2  24
HETATM   24  C   UNL     1       7.962  28.220  57.086  1.00  0.00     0.032 A 
HETATM   25  C   UNL     1       7.584  28.252  55.742  1.00  0.00     0.020 A 
HETATM   26  C   UNL     1       6.844  27.197  55.206  1.00  0.00     0.038 A 
HETATM   27  C   UNL     1       6.481  26.106  56.002  1.00  0.00     0.068 A 
HETATM   28  C   UNL     1       6.906  26.052  57.331  1.00  0.00     0.038 A 
HETATM   29  C   UNL     1       7.659  27.102  57.871  1.00  0.00     0.020 A 
BRANCH  27  30
HETATM   30  O   UNL     1       5.732  25.157  55.362  1.00  0.00    -0.356 OA
HETATM   31  C   UNL     1       5.617  25.284  53.949  1.00  0.00     0.210 C 
ENDBRANCH  27  30
ENDBRANCH   2  24
TORSDOF 6
ENDMDL
MODEL 6
REMARK VINA RESULT:      -8.1      2.508      7.505
REMARK  6 active torsions:
REMARK  status: ('A' for Active; 'I' for Inactive)
REMARK    1  A    between atoms: C_9  and  C_10 
REMARK    2  A    between atoms: C_10  and  N_11 
REMARK       I    between atoms: N_11  and  C_12 
REMARK    3  A    between atoms: N_11  and  C_22 
REMARK    4  A    between atoms: C_12  and  C_13 
REMARK    5  A    between atoms: C_16  and  O_17 
REMARK    6  A    between atoms: C_22  and  C_23 
ROOT
HETATM    1  N   UNL     1       6.223  26.997  56.037  1.00  0.00    -0.341 N 
HETATM    2  C   UNL     1       5.916  25.681  56.400  1.00  0.00     0.254 C 
HETATM    3  O   UNL     1       4.914  25.366  57.041  1.00  0.00    -0.267 OA
ENDROOT
BRANCH   1   4
HETATM    4  C   UNL     1       5.303  28.044  56.481  1.00  0.00     0.170 C 
BRANCH   4   5
HETATM    5  C   UNL     1       4.844  28.924  55.355  1.00  0.00     0.029 A 
HETATM    6  C   UNL     1       5.020  30.400  55.510  1.00  0.00     0.253 A 
HETATM    7  N   UNL     1       4.558  31.193  54.491  1.00  0.00    -0.322 N 
HETATM    8  O   UNL     1       5.539  30.898  56.507  1.00  0.00    -0.268 OA
HETATM    9  C   UNL     1       3.887  30.702  53.365  1.00  0.00     0.045 A 
HETATM   10  H   UNL     1       4.689  32.187  54.611  1.00  0.00     0.169 HD
HETATM   11  C   UNL     1       3.692  29.324  53.236  1.00  0.00    -0.008 A 
HETATM   12  C   UNL     1       3.401  31.580  52.399  1.00  0.00     0.031 A 
HETATM   13  C   UNL     1       2.984  28.827  52.138  1.00  0.00     0.020 A 
HETATM   14  C   UNL     1       4.216  28.436  54.271  1.00  0.00     0.028 A 
HETATM   15  C   UNL     1       2.458  29.702  51.176  1.00  0.00    -0.061 A 
HETATM   16  C   UNL     1       1.702  29.163  49.998  1.00  0.00     0.048 C 
HETATM   17  C   UNL     1       2.692  31.079  51.305  1.00  0.00     0.009 A 
ENDBRANCH   4   5
ENDBRANCH   1   4
BRANCH   1  18
HETATM   18  C   UNL     1       7.600  27.450  55.769  1.00  0.00     0.158 C 
BRANCH  18  19
HETATM   19  C   UNL     1       8.440  27.597  57.057  1.00  0.00     0.139 C 
HETATM   20  O   UNL     1       7.598  28.060  58.136  1.00  0.00    -0.384 OA
HETATM   21  C   UNL     1       8.002  29.383  58.510  1.00  0.00     0.168 C 
HETATM   22  C   UNL     1       8.878  29.901  57.395  1.00  0.00     0.029 C 
HETATM   23  C   UNL     1       9.544  28.637  56.910  1.00  0.00     0.035 C 
ENDBRANCH  18  19
ENDBRANCH   1  18
BRANCH   2  24
HETATM   24  C   UNL     1       6.849  24.591  56.027  1.00  0.00     0.032 A 
HETATM   25  C   UNL     1       6.824  24.111  54.715  1.00  0.00     0.020 A 
HETATM   26  C   UNL     1       7.672  23.068  54.343  1.00  0.00     0.038 A 
HETATM   27  C   UNL     1       8.550  22.499  55.272  1.00  0.00     0.068 A 
HETATM   28  C   UNL     1       8.611  23.018  56.568  1.00  0.00     0.038 A 
HETATM   29  C   UNL     1       7.771  24.073  56.942  1.00  0.00     0.020 A 
BRANCH  27  30
HETATM   30  O   UNL     1       9.303  21.466  54.786  1.00  0.00    -0.356 OA
HETATM   31  C   UNL     1       8.653  20.570  53.893  1.00  0.00     0.210 C 
ENDBRANCH  27  30
ENDBRANCH   2  24
TORSDOF 6
ENDMDL
MODEL 7
REMARK VINA RESULT:      -8.1      4.040      6.632
REMARK  6 active torsions:
REMARK  status: ('A' for Active; 'I' for Inactive)
REMARK    1  A    between atoms: C_9  and  C_10 
REMARK    2  A    between atoms: C_10  and  N_11 
REMARK       I    between atoms: N_11  and  C_12 
REMARK    3  A    between atoms: N_11  and  C_22 
REMARK    4  A    between atoms: C_12  and  C_13 
REMARK    5  A    between atoms: C_16  and  O_17 
REMARK    6  A    between atoms: C_22  and  C_23 
ROOT
HETATM    1  N   UNL     1       5.622  32.012  58.700  1.00  0.00    -0.341 N 
HETATM    2  C   UNL     1       4.424  32.560  59.172  1.00  0.00     0.254 C 
HETATM    3  O   UNL     1       3.416  32.696  58.479  1.00  0.00    -0.267 OA
ENDROOT
BRANCH   1   4
HETATM    4  C   UNL     1       5.666  31.613  57.293  1.00  0.00     0.170 C 
BRANCH   4   5
HETATM    5  C   UNL     1       5.612  30.124  57.115  1.00  0.00     0.029 A 
HETATM    6  C   UNL     1       4.280  29.504  56.843  1.00  0.00     0.253 A 
HETATM    7  N   UNL     1       4.241  28.138  56.724  1.00  0.00    -0.322 N 
HETATM    8  O   UNL     1       3.253  30.172  56.743  1.00  0.00    -0.268 OA
HETATM    9  C   UNL     1       5.354  27.309  56.903  1.00  0.00     0.045 A 
HETATM   10  H   UNL     1       3.333  27.737  56.536  1.00  0.00     0.169 HD
HETATM   11  C   UNL     1       6.594  27.886  57.191  1.00  0.00    -0.008 A 
HETATM   12  C   UNL     1       5.219  25.925  56.819  1.00  0.00     0.031 A 
HETATM   13  C   UNL     1       7.702  27.064  57.417  1.00  0.00     0.020 A 
HETATM   14  C   UNL     1       6.694  29.340  57.274  1.00  0.00     0.028 A 
HETATM   15  C   UNL     1       7.573  25.668  57.370  1.00  0.00    -0.061 A 
HETATM   16  C   UNL     1       8.766  24.791  57.609  1.00  0.00     0.048 C 
HETATM   17  C   UNL     1       6.329  25.108  57.047  1.00  0.00     0.009 A 
ENDBRANCH   4   5
ENDBRANCH   1   4
BRANCH   1  18
HETATM   18  C   UNL     1       6.933  32.324  59.300  1.00  0.00     0.158 C 
BRANCH  18  19
HETATM   19  C   UNL     1       7.464  31.181  60.194  1.00  0.00     0.139 C 
HETATM   20  O   UNL     1       7.331  31.549  61.584  1.00  0.00    -0.384 OA
HETATM   21  C   UNL     1       8.637  31.711  62.152  1.00  0.00     0.168 C 
HETATM   22  C   UNL     1       9.604  31.805  60.997  1.00  0.00     0.029 C 
HETATM   23  C   UNL     1       8.948  30.916  59.970  1.00  0.00     0.035 C 
ENDBRANCH  18  19
ENDBRANCH   1  18
BRANCH   2  24
HETATM   24  C   UNL     1       4.350  33.038  60.574  1.00  0.00     0.032 A 
HETATM   25  C   UNL     1       4.594  34.389  60.831  1.00  0.00     0.020 A 
HETATM   26  C   UNL     1       4.557  34.861  62.144  1.00  0.00     0.038 A 
HETATM   27  C   UNL     1       4.276  33.993  63.204  1.00  0.00     0.068 A 
HETATM   28  C   UNL     1       3.979  32.654  62.938  1.00  0.00     0.038 A 
HETATM   29  C   UNL     1       4.002  32.179  61.621  1.00  0.00     0.020 A 
BRANCH  27  30
HETATM   30  O   UNL     1       4.301  34.577  64.440  1.00  0.00    -0.356 OA
HETATM   31  C   UNL     1       4.718  33.754  65.524  1.00  0.00     0.210 C 
ENDBRANCH  27  30
ENDBRANCH   2  24
TORSDOF 6
ENDMDL
MODEL 8
REMARK VINA RESULT:      -8.0      3.589      7.826
REMARK  6 active torsions:
REMARK  status: ('A' for Active; 'I' for Inactive)
REMARK    1  A    between atoms: C_9  and  C_10 
REMARK    2  A    between atoms: C_10  and  N_11 
REMARK       I    between atoms: N_11  and  C_12 
REMARK    3  A    between atoms: N_11  and  C_22 
REMARK    4  A    between atoms: C_12  and  C_13 
REMARK    5  A    between atoms: C_16  and  O_17 
REMARK    6  A    between atoms: C_22  and  C_23 
ROOT
HETATM    1  N   UNL     1       5.499  26.625  53.383  1.00  0.00    -0.341 N 
HETATM    2  C   UNL     1       5.302  25.240  53.413  1.00  0.00     0.254 C 
HETATM    3  O   UNL     1       4.223  24.698  53.174  1.00  0.00    -0.267 OA
ENDROOT
BRANCH   1   4
HETATM    4  C   UNL     1       4.335  27.458  53.077  1.00  0.00     0.170 C 
BRANCH   4   5
HETATM    5  C   UNL     1       4.574  28.378  51.915  1.00  0.00     0.029 A 
HETATM    6  C   UNL     1       4.748  27.762  50.565  1.00  0.00     0.253 A 
HETATM    7  N   UNL     1       5.007  28.612  49.521  1.00  0.00    -0.322 N 
HETATM    8  O   UNL     1       4.681  26.548  50.384  1.00  0.00    -0.268 OA
HETATM    9  C   UNL     1       5.175  29.994  49.665  1.00  0.00     0.045 A 
HETATM   10  H   UNL     1       5.117  28.178  48.615  1.00  0.00     0.169 HD
HETATM   11  C   UNL     1       5.046  30.567  50.933  1.00  0.00    -0.008 A 
HETATM   12  C   UNL     1       5.490  30.782  48.560  1.00  0.00     0.031 A 
HETATM   13  C   UNL     1       5.256  31.940  51.095  1.00  0.00     0.020 A 
HETATM   14  C   UNL     1       4.716  29.707  52.066  1.00  0.00     0.028 A 
HETATM   15  C   UNL     1       5.608  32.738  49.997  1.00  0.00    -0.061 A 
HETATM   16  C   UNL     1       5.830  34.212  50.176  1.00  0.00     0.048 C 
HETATM   17  C   UNL     1       5.701  32.152  48.727  1.00  0.00     0.009 A 
ENDBRANCH   4   5
ENDBRANCH   1   4
BRANCH   1  18
HETATM   18  C   UNL     1       6.562  27.297  54.152  1.00  0.00     0.158 C 
BRANCH  18  19
HETATM   19  C   UNL     1       6.014  28.077  55.368  1.00  0.00     0.139 C 
HETATM   20  O   UNL     1       6.813  29.260  55.588  1.00  0.00    -0.384 OA
HETATM   21  C   UNL     1       7.518  29.126  56.827  1.00  0.00     0.168 C 
HETATM   22  C   UNL     1       7.443  27.668  57.214  1.00  0.00     0.029 C 
HETATM   23  C   UNL     1       6.098  27.269  56.657  1.00  0.00     0.035 C 
ENDBRANCH  18  19
ENDBRANCH   1  18
BRANCH   2  24
HETATM   24  C   UNL     1       6.435  24.356  53.779  1.00  0.00     0.032 A 
HETATM   25  C   UNL     1       6.620  24.032  55.125  1.00  0.00     0.020 A 
HETATM   26  C   UNL     1       7.694  23.225  55.502  1.00  0.00     0.038 A 
HETATM   27  C   UNL     1       8.586  22.735  54.542  1.00  0.00     0.068 A 
HETATM   28  C   UNL     1       8.367  23.017  53.192  1.00  0.00     0.038 A 
HETATM   29  C   UNL     1       7.284  23.816  52.808  1.00  0.00     0.020 A 
BRANCH  27  30
HETATM   30  O   UNL     1       9.610  21.982  55.048  1.00  0.00    -0.356 OA
HETATM   31  C   UNL     1       9.250  20.754  55.670  1.00  0.00     0.210 C 
ENDBRANCH  27  30
ENDBRANCH   2  24
TORSDOF 6
ENDMDL
MODEL 9
REMARK VINA RESULT:      -7.9      2.535      4.623
REMARK  6 active torsions:
REMARK  status: ('A' for Active; 'I' for Inactive)
REMARK    1  A    between atoms: C_9  and  C_10 
REMARK    2  A    between atoms: C_10  and  N_11 
REMARK       I    between atoms: N_11  and  C_12 
REMARK    3  A    between atoms: N_11  and  C_22 
REMARK    4  A    between atoms: C_12  and  C_13 
REMARK    5  A    between atoms: C_16  and  O_17 
REMARK    6  A    between atoms: C_22  and  C_23 
ROOT
HETATM    1  N   UNL     1       6.596  28.404  54.892  1.00  0.00    -0.341 N 
HETATM    2  C   UNL     1       6.312  29.440  55.789  1.00  0.00     0.254 C 
HETATM    3  O   UNL     1       7.077  29.798  56.684  1.00  0.00    -0.267 OA
ENDROOT
BRANCH   1   4
HETATM    4  C   UNL     1       7.868  27.702  55.065  1.00  0.00     0.170 C 
BRANCH   4   5
HETATM    5  C   UNL     1       7.686  26.231  55.304  1.00  0.00     0.029 A 
HETATM    6  C   UNL     1       7.408  25.783  56.701  1.00  0.00     0.253 A 
HETATM    7  N   UNL     1       7.286  24.433  56.910  1.00  0.00    -0.322 N 
HETATM    8  O   UNL     1       7.306  26.574  57.637  1.00  0.00    -0.268 OA
HETATM    9  C   UNL     1       7.467  23.471  55.910  1.00  0.00     0.045 A 
HETATM   10  H   UNL     1       7.093  24.149  57.860  1.00  0.00     0.169 HD
HETATM   11  C   UNL     1       7.761  23.888  54.609  1.00  0.00    -0.008 A 
HETATM   12  C   UNL     1       7.378  22.114  56.216  1.00  0.00     0.031 A 
HETATM   13  C   UNL     1       7.989  22.934  53.613  1.00  0.00     0.020 A 
HETATM   14  C   UNL     1       7.847  25.318  54.329  1.00  0.00     0.028 A 
HETATM   15  C   UNL     1       7.938  21.565  53.915  1.00  0.00    -0.061 A 
HETATM   16  C   UNL     1       8.180  20.546  52.842  1.00  0.00     0.048 C 
HETATM   17  C   UNL     1       7.609  21.165  55.218  1.00  0.00     0.009 A 
ENDBRANCH   4   5
ENDBRANCH   1   4
BRANCH   1  18
HETATM   18  C   UNL     1       5.545  27.630  54.208  1.00  0.00     0.158 C 
BRANCH  18  19
HETATM   19  C   UNL     1       5.795  27.499  52.689  1.00  0.00     0.139 C 
HETATM   20  O   UNL     1       6.246  28.765  52.159  1.00  0.00    -0.384 OA
HETATM   21  C   UNL     1       5.244  29.288  51.279  1.00  0.00     0.168 C 
HETATM   22  C   UNL     1       3.979  28.508  51.550  1.00  0.00     0.029 C 
HETATM   23  C   UNL     1       4.525  27.152  51.923  1.00  0.00     0.035 C 
ENDBRANCH  18  19
ENDBRANCH   1  18
BRANCH   2  24
HETATM   24  C   UNL     1       5.008  30.141  55.695  1.00  0.00     0.032 A 
HETATM   25  C   UNL     1       4.175  30.153  56.816  1.00  0.00     0.020 A 
HETATM   26  C   UNL     1       2.932  30.782  56.747  1.00  0.00     0.038 A 
HETATM   27  C   UNL     1       2.513  31.403  55.566  1.00  0.00     0.068 A 
HETATM   28  C   UNL     1       3.371  31.436  54.464  1.00  0.00     0.038 A 
HETATM   29  C   UNL     1       4.625  30.817  54.532  1.00  0.00     0.020 A 
BRANCH  27  30
HETATM   30  O   UNL     1       1.263  31.954  55.624  1.00  0.00    -0.356 OA
HETATM   31  C   UNL     1       1.069  33.168  54.907  1.00  0.00     0.210 C 
ENDBRANCH  27  30
ENDBRANCH   2  24
TORSDOF 6
ENDMDL
MODEL 10
REMARK VINA RESULT:      -7.9      5.079      8.323
REMARK  6 active torsions:
REMARK  status: ('A' for Active; 'I' for Inactive)
REMARK    1  A    between atoms: C_9  and  C_10 
REMARK    2  A    between atoms: C_10  and  N_11 
REMARK       I    between atoms: N_11  and  C_12 
REMARK    3  A    between atoms: N_11  and  C_22 
REMARK    4  A    between atoms: C_12  and  C_13 
REMARK    5  A    between atoms: C_16  and  O_17 
REMARK    6  A    between atoms: C_22  and  C_23 
ROOT
HETATM    1  N   UNL     1       4.434  28.449  50.588  1.00  0.00    -0.341 N 
HETATM    2  C   UNL     1       4.561  28.072  49.246  1.00  0.00     0.254 C 
HETATM    3  O   UNL     1       5.639  27.832  48.704  1.00  0.00    -0.267 OA
ENDROOT
BRANCH   1   4
HETATM    4  C   UNL     1       5.667  28.588  51.363  1.00  0.00     0.170 C 
BRANCH   4   5
HETATM    5  C   UNL     1       5.871  27.459  52.329  1.00  0.00     0.029 A 
HETATM    6  C   UNL     1       5.580  27.717  53.772  1.00  0.00     0.253 A 
HETATM    7  N   UNL     1       5.811  26.688  54.648  1.00  0.00    -0.322 N 
HETATM    8  O   UNL     1       5.167  28.803  54.174  1.00  0.00    -0.268 OA
HETATM    9  C   UNL     1       6.354  25.454  54.274  1.00  0.00     0.045 A 
HETATM   10  H   UNL     1       5.605  26.879  55.618  1.00  0.00     0.169 HD
HETATM   11  C   UNL     1       6.658  25.223  52.929  1.00  0.00    -0.008 A 
HETATM   12  C   UNL     1       6.608  24.478  55.235  1.00  0.00     0.031 A 
HETATM   13  C   UNL     1       7.242  24.010  52.552  1.00  0.00     0.020 A 
HETATM   14  C   UNL     1       6.378  26.271  51.952  1.00  0.00     0.028 A 
HETATM   15  C   UNL     1       7.536  23.033  53.514  1.00  0.00    -0.061 A 
HETATM   16  C   UNL     1       8.160  21.732  53.104  1.00  0.00     0.048 C 
HETATM   17  C   UNL     1       7.194  23.269  54.854  1.00  0.00     0.009 A 
ENDBRANCH   4   5
ENDBRANCH   1   4
BRANCH   1  18
HETATM   18  C   UNL     1       3.290  29.231  51.091  1.00  0.00     0.158 C 
BRANCH  18  19
HETATM   19  C   UNL     1       3.670  30.688  51.435  1.00  0.00     0.139 C 
HETATM   20  O   UNL     1       2.641  31.278  52.259  1.00  0.00    -0.384 OA
HETATM   21  C   UNL     1       1.990  32.320  51.521  1.00  0.00     0.168 C 
HETATM   22  C   UNL     1       2.376  32.132  50.074  1.00  0.00     0.029 C 
HETATM   23  C   UNL     1       3.769  31.567  50.195  1.00  0.00     0.035 C 
ENDBRANCH  18  19
ENDBRANCH   1  18
BRANCH   2  24
HETATM   24  C   UNL     1       3.345  27.978  48.402  1.00  0.00     0.032 A 
HETATM   25  C   UNL     1       2.618  26.786  48.412  1.00  0.00     0.020 A 
HETATM   26  C   UNL     1       1.485  26.660  47.608  1.00  0.00     0.038 A 
HETATM   27  C   UNL     1       1.070  27.718  46.793  1.00  0.00     0.068 A 
HETATM   28  C   UNL     1       1.769  28.928  46.826  1.00  0.00     0.038 A 
HETATM   29  C   UNL     1       2.899  29.063  47.641  1.00  0.00     0.020 A 
BRANCH  27  30
HETATM   30  O   UNL     1      -0.036  27.453  46.033  1.00  0.00    -0.356 OA
HETATM   31  C   UNL     1      -1.041  28.461  45.998  1.00  0.00     0.210 C 
ENDBRANCH  27  30
ENDBRANCH   2  24
TORSDOF 6
ENDMDL
