MODEL 1
REMARK VINA RESULT:      -8.5      0.000      0.000
REMARK  4 active torsions:
REMARK  status: ('A' for Active; 'I' for Inactive)
REMARK    1  A    between atoms: N_6  and  N_7 
REMARK       I    between atoms: N_7  and  C_8 
REMARK    2  A    between atoms: C_8  and  C_9 
REMARK    3  A    between atoms: C_10  and  O_11 
REMARK    4  A    between atoms: C_14  and  N_15 
ROOT
HETATM    1  N   UNL     1       7.550  24.426  57.212  1.00  0.00    -0.242 N 
HETATM    2  C   UNL     1       8.714  23.943  56.639  1.00  0.00     0.274 C 
HETATM    3  O   UNL     1       9.813  24.493  56.658  1.00  0.00    -0.266 OA
HETATM    4  H   UNL     1       6.695  23.892  57.171  1.00  0.00     0.192 HD
ENDROOT
BRANCH   1   5
HETATM    5  N   UNL     1       7.505  25.677  57.739  1.00  0.00    -0.166 NA
HETATM    6  C   UNL     1       7.020  26.641  57.022  1.00  0.00     0.157 A 
HETATM    7  C   UNL     1       7.136  28.109  57.474  1.00  0.00     0.279 A 
HETATM    8  C   UNL     1       6.310  26.670  55.734  1.00  0.00     0.029 A 
HETATM    9  N   UNL     1       6.599  28.852  56.437  1.00  0.00    -0.316 N 
HETATM   10  O   UNL     1       7.625  28.491  58.515  1.00  0.00    -0.265 OA
HETATM   11  C   UNL     1       6.494  30.286  56.438  1.00  0.00     0.159 C 
HETATM   12  C   UNL     1       6.106  28.019  55.424  1.00  0.00     0.050 A 
HETATM   13  C   UNL     1       5.459  28.399  54.259  1.00  0.00     0.032 A 
HETATM   14  C   UNL     1       4.996  27.392  53.407  1.00  0.00     0.026 A 
HETATM   15  C   UNL     1       5.169  26.040  53.742  1.00  0.00     0.035 A 
HETATM   16  C   UNL     1       5.819  25.662  54.920  1.00  0.00     0.040 A 
HETATM   17 CL   UNL     1       4.563  24.823  52.688  1.00  0.00    -0.084 Cl
ENDBRANCH   1   5
BRANCH   2  18
HETATM   18  C   UNL     1       8.618  22.582  56.051  1.00  0.00     0.068 A 
HETATM   19  C   UNL     1       8.371  21.491  56.894  1.00  0.00     0.081 A 
HETATM   20  C   UNL     1       8.152  20.228  56.357  1.00  0.00     0.039 A 
HETATM   21  C   UNL     1       8.216  20.040  54.974  1.00  0.00     0.026 A 
HETATM   22  C   UNL     1       8.565  21.094  54.125  1.00  0.00     0.006 A 
HETATM   23  C   UNL     1       8.724  22.373  54.667  1.00  0.00     0.043 A 
BRANCH  19  24
HETATM   24  O   UNL     1       8.299  21.600  58.256  1.00  0.00    -0.360 OA
HETATM   25  H   UNL     1       8.873  22.352  58.531  1.00  0.00     0.217 HD
ENDBRANCH  19  24
BRANCH  22  26
HETATM   26  N   UNL     1       8.519  20.924  52.736  1.00  0.00    -0.303 NA
HETATM   27  H   UNL     1       9.360  21.237  52.259  1.00  0.00     0.124 HD
HETATM   28  H   UNL     1       7.680  21.293  52.296  1.00  0.00     0.124 HD
ENDBRANCH  22  26
ENDBRANCH   2  18
TORSDOF 4
ENDMDL
MODEL 2
REMARK VINA RESULT:      -8.3      3.378      7.011
REMARK  4 active torsions:
REMARK  status: ('A' for Active; 'I' for Inactive)
REMARK    1  A    between atoms: N_6  and  N_7 
REMARK       I    between atoms: N_7  and  C_8 
REMARK    2  A    between atoms: C_8  and  C_9 
REMARK    3  A    between atoms: C_10  and  O_11 
REMARK    4  A    between atoms: C_14  and  N_15 
ROOT
HETATM    1  N   UNL     1       6.562  24.650  52.503  1.00  0.00    -0.242 N 
HETATM    2  C   UNL     1       5.283  25.177  52.507  1.00  0.00     0.274 C 
HETATM    3  O   UNL     1       4.279  24.637  52.967  1.00  0.00    -0.266 OA
HETATM    4  H   UNL     1       7.336  25.177  52.127  1.00  0.00     0.192 HD
ENDROOT
BRANCH   1   5
HETATM    5  N   UNL     1       6.785  23.370  52.899  1.00  0.00    -0.166 NA
HETATM    6  C   UNL     1       7.322  23.157  54.059  1.00  0.00     0.157 A 
HETATM    7  C   UNL     1       7.795  21.752  54.475  1.00  0.00     0.279 A 
HETATM    8  C   UNL     1       7.625  24.038  55.197  1.00  0.00     0.029 A 
HETATM    9  N   UNL     1       8.387  21.920  55.714  1.00  0.00    -0.316 N 
HETATM   10  O   UNL     1       7.677  20.742  53.815  1.00  0.00    -0.265 OA
HETATM   11  C   UNL     1       8.965  20.853  56.488  1.00  0.00     0.159 C 
HETATM   12  C   UNL     1       8.282  23.248  56.146  1.00  0.00     0.050 A 
HETATM   13  C   UNL     1       8.712  23.780  57.351  1.00  0.00     0.032 A 
HETATM   14  C   UNL     1       8.454  25.131  57.602  1.00  0.00     0.026 A 
HETATM   15  C   UNL     1       7.759  25.909  56.662  1.00  0.00     0.035 A 
HETATM   16  C   UNL     1       7.324  25.367  55.450  1.00  0.00     0.040 A 
HETATM   17 CL   UNL     1       7.430  27.562  57.012  1.00  0.00    -0.084 Cl
ENDBRANCH   1   5
BRANCH   2  18
HETATM   18  C   UNL     1       5.165  26.569  52.002  1.00  0.00     0.068 A 
HETATM   19  C   UNL     1       4.824  27.592  52.896  1.00  0.00     0.081 A 
HETATM   20  C   UNL     1       4.831  28.918  52.478  1.00  0.00     0.039 A 
HETATM   21  C   UNL     1       5.143  29.226  51.151  1.00  0.00     0.026 A 
HETATM   22  C   UNL     1       5.381  28.212  50.219  1.00  0.00     0.006 A 
HETATM   23  C   UNL     1       5.432  26.887  50.661  1.00  0.00     0.043 A 
BRANCH  19  24
HETATM   24  O   UNL     1       4.505  27.364  54.207  1.00  0.00    -0.360 OA
HETATM   25  H   UNL     1       3.745  27.947  54.439  1.00  0.00     0.217 HD
ENDBRANCH  19  24
BRANCH  22  26
HETATM   26  N   UNL     1       5.800  28.533  48.921  1.00  0.00    -0.303 NA
HETATM   27  H   UNL     1       6.724  28.178  48.692  1.00  0.00     0.124 HD
HETATM   28  H   UNL     1       5.706  29.515  48.682  1.00  0.00     0.124 HD
ENDBRANCH  22  26
ENDBRANCH   2  18
TORSDOF 4
ENDMDL
MODEL 3
REMARK VINA RESULT:      -8.3      3.106      3.877
REMARK  4 active torsions:
REMARK  status: ('A' for Active; 'I' for Inactive)
REMARK    1  A    between atoms: N_6  and  N_7 
REMARK       I    between atoms: N_7  and  C_8 
REMARK    2  A    between atoms: C_8  and  C_9 
REMARK    3  A    between atoms: C_10  and  O_11 
REMARK    4  A    between atoms: C_14  and  N_15 
ROOT
HETATM    1  N   UNL     1       5.357  25.031  53.569  1.00  0.00    -0.242 N 
HETATM    2  C   UNL     1       6.530  24.579  52.991  1.00  0.00     0.274 C 
HETATM    3  O   UNL     1       7.142  25.123  52.074  1.00  0.00    -0.266 OA
HETATM    4  H   UNL     1       4.936  24.532  54.340  1.00  0.00     0.192 HD
ENDROOT
BRANCH   1   5
HETATM    5  N   UNL     1       4.685  26.085  53.039  1.00  0.00    -0.166 NA
HETATM    6  C   UNL     1       4.780  27.242  53.615  1.00  0.00     0.157 A 
HETATM    7  C   UNL     1       3.881  28.420  53.195  1.00  0.00     0.279 A 
HETATM    8  C   UNL     1       5.633  27.752  54.700  1.00  0.00     0.029 A 
HETATM    9  N   UNL     1       4.192  29.445  54.072  1.00  0.00    -0.316 N 
HETATM   10  O   UNL     1       3.068  28.403  52.296  1.00  0.00    -0.265 OA
HETATM   11  C   UNL     1       3.590  30.751  54.037  1.00  0.00     0.159 C 
HETATM   12  C   UNL     1       5.220  29.066  54.945  1.00  0.00     0.050 A 
HETATM   13  C   UNL     1       5.826  29.840  55.921  1.00  0.00     0.032 A 
HETATM   14  C   UNL     1       6.879  29.275  56.647  1.00  0.00     0.026 A 
HETATM   15  C   UNL     1       7.315  27.970  56.370  1.00  0.00     0.035 A 
HETATM   16  C   UNL     1       6.704  27.195  55.381  1.00  0.00     0.040 A 
HETATM   17 CL   UNL     1       8.634  27.312  57.259  1.00  0.00    -0.084 Cl
ENDBRANCH   1   5
BRANCH   2  18
HETATM   18  C   UNL     1       7.140  23.386  53.634  1.00  0.00     0.068 A 
HETATM   19  C   UNL     1       7.193  23.317  55.032  1.00  0.00     0.081 A 
HETATM   20  C   UNL     1       7.642  22.161  55.659  1.00  0.00     0.039 A 
HETATM   21  C   UNL     1       8.077  21.078  54.891  1.00  0.00     0.026 A 
HETATM   22  C   UNL     1       8.132  21.167  53.497  1.00  0.00     0.006 A 
HETATM   23  C   UNL     1       7.622  22.310  52.873  1.00  0.00     0.043 A 
BRANCH  19  24
HETATM   24  O   UNL     1       6.787  24.339  55.847  1.00  0.00    -0.360 OA
HETATM   25  H   UNL     1       6.641  25.135  55.285  1.00  0.00     0.217 HD
ENDBRANCH  19  24
BRANCH  22  26
HETATM   26  N   UNL     1       8.465  20.043  52.732  1.00  0.00    -0.303 NA
HETATM   27  H   UNL     1       9.111  19.410  53.196  1.00  0.00     0.124 HD
HETATM   28  H   UNL     1       8.765  20.254  51.785  1.00  0.00     0.124 HD
ENDBRANCH  22  26
ENDBRANCH   2  18
TORSDOF 4
ENDMDL
MODEL 4
REMARK VINA RESULT:      -8.3      1.923      2.502
REMARK  4 active torsions:
REMARK  status: ('A' for Active; 'I' for Inactive)
REMARK    1  A    between atoms: N_6  and  N_7 
REMARK       I    between atoms: N_7  and  C_8 
REMARK    2  A    between atoms: C_8  and  C_9 
REMARK    3  A    between atoms: C_10  and  O_11 
REMARK    4  A    between atoms: C_14  and  N_15 
ROOT
HETATM    1  N   UNL     1       6.152  24.753  55.560  1.00  0.00    -0.242 N 
HETATM    2  C   UNL     1       7.256  24.010  55.941  1.00  0.00     0.274 C 
HETATM    3  O   UNL     1       7.922  24.174  56.961  1.00  0.00    -0.266 OA
HETATM    4  H   UNL     1       5.647  24.531  54.715  1.00  0.00     0.192 HD
ENDROOT
BRANCH   1   5
HETATM    5  N   UNL     1       5.796  25.868  56.249  1.00  0.00    -0.166 NA
HETATM    6  C   UNL     1       5.484  26.939  55.590  1.00  0.00     0.157 A 
HETATM    7  C   UNL     1       5.282  28.288  56.307  1.00  0.00     0.279 A 
HETATM    8  C   UNL     1       5.259  27.204  54.161  1.00  0.00     0.029 A 
HETATM    9  N   UNL     1       5.055  29.206  55.296  1.00  0.00    -0.316 N 
HETATM   10  O   UNL     1       5.341  28.467  57.504  1.00  0.00    -0.265 OA
HETATM   11  C   UNL     1       4.804  30.605  55.515  1.00  0.00     0.159 C 
HETATM   12  C   UNL     1       5.030  28.579  54.044  1.00  0.00     0.050 A 
HETATM   13  C   UNL     1       4.783  29.165  52.812  1.00  0.00     0.032 A 
HETATM   14  C   UNL     1       4.750  28.336  51.687  1.00  0.00     0.026 A 
HETATM   15  C   UNL     1       4.942  26.951  51.816  1.00  0.00     0.035 A 
HETATM   16  C   UNL     1       5.187  26.365  53.060  1.00  0.00     0.040 A 
HETATM   17 CL   UNL     1       4.866  25.954  50.416  1.00  0.00    -0.084 Cl
ENDBRANCH   1   5
BRANCH   2  18
HETATM   18  C   UNL     1       7.570  22.845  55.073  1.00  0.00     0.068 A 
HETATM   19  C   UNL     1       7.621  23.022  53.686  1.00  0.00     0.081 A 
HETATM   20  C   UNL     1       8.035  21.982  52.862  1.00  0.00     0.039 A 
HETATM   21  C   UNL     1       8.365  20.744  53.420  1.00  0.00     0.026 A 
HETATM   22  C   UNL     1       8.218  20.516  54.791  1.00  0.00     0.006 A 
HETATM   23  C   UNL     1       7.860  21.584  55.618  1.00  0.00     0.043 A 
BRANCH  19  24
HETATM   24  O   UNL     1       7.309  24.204  53.070  1.00  0.00    -0.360 OA
HETATM   25  H   UNL     1       7.474  24.933  53.712  1.00  0.00     0.217 HD
ENDBRANCH  19  24
BRANCH  22  26
HETATM   26  N   UNL     1       8.654  19.310  55.355  1.00  0.00    -0.303 NA
HETATM   27  H   UNL     1       8.256  18.486  54.913  1.00  0.00     0.124 HD
HETATM   28  H   UNL     1       8.573  19.268  56.367  1.00  0.00     0.124 HD
ENDBRANCH  22  26
ENDBRANCH   2  18
TORSDOF 4
ENDMDL
MODEL 5
REMARK VINA RESULT:      -8.3      2.264      3.056
REMARK  4 active torsions:
REMARK  status: ('A' for Active; 'I' for Inactive)
REMARK    1  A    between atoms: N_6  and  N_7 
REMARK       I    between atoms: N_7  and  C_8 
REMARK    2  A    between atoms: C_8  and  C_9 
REMARK    3  A    between atoms: C_10  and  O_11 
REMARK    4  A    between atoms: C_14  and  N_15 
ROOT
HETATM    1  N   UNL     1       8.298  26.865  56.463  1.00  0.00    -0.242 N 
HETATM    2  C   UNL     1       7.658  25.640  56.521  1.00  0.00     0.274 C 
HETATM    3  O   UNL     1       6.962  25.229  57.447  1.00  0.00    -0.266 OA
HETATM    4  H   UNL     1       8.829  27.132  55.647  1.00  0.00     0.192 HD
ENDROOT
BRANCH   1   5
HETATM    5  N   UNL     1       8.324  27.684  57.546  1.00  0.00    -0.166 NA
HETATM    6  C   UNL     1       7.579  28.745  57.547  1.00  0.00     0.157 A 
HETATM    7  C   UNL     1       7.721  29.821  58.641  1.00  0.00     0.279 A 
HETATM    8  C   UNL     1       6.517  29.222  56.647  1.00  0.00     0.029 A 
HETATM    9  N   UNL     1       6.848  30.829  58.274  1.00  0.00    -0.316 N 
HETATM   10  O   UNL     1       8.470  29.765  59.592  1.00  0.00    -0.265 OA
HETATM   11  C   UNL     1       6.647  32.039  59.025  1.00  0.00     0.159 C 
HETATM   12  C   UNL     1       6.135  30.483  57.119  1.00  0.00     0.050 A 
HETATM   13  C   UNL     1       5.144  31.216  56.487  1.00  0.00     0.032 A 
HETATM   14  C   UNL     1       4.521  30.652  55.370  1.00  0.00     0.026 A 
HETATM   15  C   UNL     1       4.881  29.370  54.925  1.00  0.00     0.035 A 
HETATM   16  C   UNL     1       5.878  28.633  55.568  1.00  0.00     0.040 A 
HETATM   17 CL   UNL     1       4.075  28.690  53.566  1.00  0.00    -0.084 Cl
ENDBRANCH   1   5
BRANCH   2  18
HETATM   18  C   UNL     1       7.746  24.816  55.288  1.00  0.00     0.068 A 
HETATM   19  C   UNL     1       7.923  23.432  55.403  1.00  0.00     0.081 A 
HETATM   20  C   UNL     1       7.884  22.624  54.272  1.00  0.00     0.039 A 
HETATM   21  C   UNL     1       7.704  23.201  53.013  1.00  0.00     0.026 A 
HETATM   22  C   UNL     1       7.631  24.589  52.866  1.00  0.00     0.006 A 
HETATM   23  C   UNL     1       7.611  25.389  54.013  1.00  0.00     0.043 A 
BRANCH  19  24
HETATM   24  O   UNL     1       8.108  22.799  56.602  1.00  0.00    -0.360 OA
HETATM   25  H   UNL     1       7.950  21.836  56.464  1.00  0.00     0.217 HD
ENDBRANCH  19  24
BRANCH  22  26
HETATM   26  N   UNL     1       7.342  25.152  51.617  1.00  0.00    -0.303 NA
HETATM   27  H   UNL     1       7.407  26.166  51.601  1.00  0.00     0.124 HD
HETATM   28  H   UNL     1       6.473  24.827  51.203  1.00  0.00     0.124 HD
ENDBRANCH  22  26
ENDBRANCH   2  18
TORSDOF 4
ENDMDL
MODEL 6
REMARK VINA RESULT:      -8.3      3.140      4.666
REMARK  4 active torsions:
REMARK  status: ('A' for Active; 'I' for Inactive)
REMARK    1  A    between atoms: N_6  and  N_7 
REMARK       I    between atoms: N_7  and  C_8 
REMARK    2  A    between atoms: C_8  and  C_9 
REMARK    3  A    between atoms: C_10  and  O_11 
REMARK    4  A    between atoms: C_14  and  N_15 
ROOT
HETATM    1  N   UNL     1       6.290  27.509  56.530  1.00  0.00    -0.242 N 
HETATM    2  C   UNL     1       5.897  26.194  56.709  1.00  0.00     0.274 C 
HETATM    3  O   UNL     1       4.797  25.814  57.104  1.00  0.00    -0.266 OA
HETATM    4  H   UNL     1       7.208  27.729  56.175  1.00  0.00     0.192 HD
ENDROOT
BRANCH   1   5
HETATM    5  N   UNL     1       5.494  28.531  56.938  1.00  0.00    -0.166 NA
HETATM    6  C   UNL     1       6.035  29.547  57.533  1.00  0.00     0.157 A 
HETATM    7  C   UNL     1       5.172  30.631  58.207  1.00  0.00     0.279 A 
HETATM    8  C   UNL     1       7.432  29.952  57.749  1.00  0.00     0.029 A 
HETATM    9  N   UNL     1       6.073  31.491  58.808  1.00  0.00    -0.316 N 
HETATM   10  O   UNL     1       3.960  30.670  58.206  1.00  0.00    -0.265 OA
HETATM   11  C   UNL     1       5.701  32.667  59.549  1.00  0.00     0.159 C 
HETATM   12  C   UNL     1       7.393  31.108  58.536  1.00  0.00     0.050 A 
HETATM   13  C   UNL     1       8.556  31.752  58.927  1.00  0.00     0.032 A 
HETATM   14  C   UNL     1       9.776  31.222  58.494  1.00  0.00     0.026 A 
HETATM   15  C   UNL     1       9.807  30.085  57.672  1.00  0.00     0.035 A 
HETATM   16  C   UNL     1       8.632  29.442  57.278  1.00  0.00     0.040 A 
HETATM   17 CL   UNL     1      11.323  29.475  57.131  1.00  0.00    -0.084 Cl
ENDBRANCH   1   5
BRANCH   2  18
HETATM   18  C   UNL     1       6.879  25.170  56.270  1.00  0.00     0.068 A 
HETATM   19  C   UNL     1       7.920  24.807  57.133  1.00  0.00     0.081 A 
HETATM   20  C   UNL     1       8.776  23.765  56.799  1.00  0.00     0.039 A 
HETATM   21  C   UNL     1       8.620  23.102  55.579  1.00  0.00     0.026 A 
HETATM   22  C   UNL     1       7.655  23.519  54.658  1.00  0.00     0.006 A 
HETATM   23  C   UNL     1       6.760  24.527  55.027  1.00  0.00     0.043 A 
BRANCH  19  24
HETATM   24  O   UNL     1       8.135  25.414  58.341  1.00  0.00    -0.360 OA
HETATM   25  H   UNL     1       7.265  25.508  58.793  1.00  0.00     0.217 HD
ENDBRANCH  19  24
BRANCH  22  26
HETATM   26  N   UNL     1       7.433  22.781  53.488  1.00  0.00    -0.303 NA
HETATM   27  H   UNL     1       7.899  23.165  52.670  1.00  0.00     0.124 HD
HETATM   28  H   UNL     1       6.456  22.577  53.300  1.00  0.00     0.124 HD
ENDBRANCH  22  26
ENDBRANCH   2  18
TORSDOF 4
ENDMDL
MODEL 7
REMARK VINA RESULT:      -8.2      3.198      4.120
REMARK  4 active torsions:
REMARK  status: ('A' for Active; 'I' for Inactive)
REMARK    1  A    between atoms: N_6  and  N_7 
REMARK       I    between atoms: N_7  and  C_8 
REMARK    2  A    between atoms: C_8  and  C_9 
REMARK    3  A    between atoms: C_10  and  O_11 
REMARK    4  A    between atoms: C_14  and  N_15 
ROOT
HETATM    1  N   UNL     1       6.206  23.936  53.386  1.00  0.00    -0.242 N 
HETATM    2  C   UNL     1       7.421  23.290  53.245  1.00  0.00     0.274 C 
HETATM    3  O   UNL     1       8.284  23.546  52.408  1.00  0.00    -0.266 OA
HETATM    4  H   UNL     1       5.566  23.677  54.123  1.00  0.00     0.192 HD
ENDROOT
BRANCH   1   5
HETATM    5  N   UNL     1       5.797  24.850  52.468  1.00  0.00    -0.166 NA
HETATM    6  C   UNL     1       5.650  26.084  52.837  1.00  0.00     0.157 A 
HETATM    7  C   UNL     1       4.988  27.122  51.910  1.00  0.00     0.279 A 
HETATM    8  C   UNL     1       5.998  26.809  54.069  1.00  0.00     0.029 A 
HETATM    9  N   UNL     1       4.921  28.285  52.656  1.00  0.00    -0.316 N 
HETATM   10  O   UNL     1       4.602  26.914  50.780  1.00  0.00    -0.265 OA
HETATM   11  C   UNL     1       4.377  29.526  52.173  1.00  0.00     0.159 C 
HETATM   12  C   UNL     1       5.517  28.113  53.911  1.00  0.00     0.050 A 
HETATM   13  C   UNL     1       5.680  29.064  54.906  1.00  0.00     0.032 A 
HETATM   14  C   UNL     1       6.359  28.688  56.069  1.00  0.00     0.026 A 
HETATM   15  C   UNL     1       6.874  27.389  56.204  1.00  0.00     0.035 A 
HETATM   16  C   UNL     1       6.710  26.435  55.197  1.00  0.00     0.040 A 
HETATM   17 CL   UNL     1       7.732  26.965  57.635  1.00  0.00    -0.084 Cl
ENDBRANCH   1   5
BRANCH   2  18
HETATM   18  C   UNL     1       7.729  22.275  54.286  1.00  0.00     0.068 A 
HETATM   19  C   UNL     1       8.000  20.959  53.896  1.00  0.00     0.081 A 
HETATM   20  C   UNL     1       8.412  20.021  54.836  1.00  0.00     0.039 A 
HETATM   21  C   UNL     1       8.520  20.386  56.180  1.00  0.00     0.026 A 
HETATM   22  C   UNL     1       8.152  21.666  56.604  1.00  0.00     0.006 A 
HETATM   23  C   UNL     1       7.796  22.619  55.646  1.00  0.00     0.043 A 
BRANCH  19  24
HETATM   24  O   UNL     1       7.912  20.529  52.599  1.00  0.00    -0.360 OA
HETATM   25  H   UNL     1       7.697  21.308  52.036  1.00  0.00     0.217 HD
ENDBRANCH  19  24
BRANCH  22  26
HETATM   26  N   UNL     1       8.366  22.056  57.932  1.00  0.00    -0.303 NA
HETATM   27  H   UNL     1       7.635  21.751  58.570  1.00  0.00     0.124 HD
HETATM   28  H   UNL     1       8.576  23.043  58.050  1.00  0.00     0.124 HD
ENDBRANCH  22  26
ENDBRANCH   2  18
TORSDOF 4
ENDMDL
MODEL 8
REMARK VINA RESULT:      -8.2      1.844      6.640
REMARK  4 active torsions:
REMARK  status: ('A' for Active; 'I' for Inactive)
REMARK    1  A    between atoms: N_6  and  N_7 
REMARK       I    between atoms: N_7  and  C_8 
REMARK    2  A    between atoms: C_8  and  C_9 
REMARK    3  A    between atoms: C_10  and  O_11 
REMARK    4  A    between atoms: C_14  and  N_15 
ROOT
HETATM    1  N   UNL     1       7.079  26.749  57.460  1.00  0.00    -0.242 N 
HETATM    2  C   UNL     1       7.880  27.877  57.461  1.00  0.00     0.274 C 
HETATM    3  O   UNL     1       9.104  27.897  57.347  1.00  0.00    -0.266 OA
HETATM    4  H   UNL     1       6.075  26.828  57.531  1.00  0.00     0.192 HD
ENDROOT
BRANCH   1   5
HETATM    5  N   UNL     1       7.631  25.508  57.479  1.00  0.00    -0.166 NA
HETATM    6  C   UNL     1       7.575  24.780  56.408  1.00  0.00     0.157 A 
HETATM    7  C   UNL     1       7.985  23.296  56.427  1.00  0.00     0.279 A 
HETATM    8  C   UNL     1       7.159  25.066  55.026  1.00  0.00     0.029 A 
HETATM    9  N   UNL     1       7.712  22.827  55.155  1.00  0.00    -0.316 N 
HETATM   10  O   UNL     1       8.428  22.699  57.385  1.00  0.00    -0.265 OA
HETATM   11  C   UNL     1       7.954  21.477  54.720  1.00  0.00     0.159 C 
HETATM   12  C   UNL     1       7.240  23.855  54.330  1.00  0.00     0.050 A 
HETATM   13  C   UNL     1       6.911  23.775  52.986  1.00  0.00     0.032 A 
HETATM   14  C   UNL     1       6.510  24.948  52.338  1.00  0.00     0.026 A 
HETATM   15  C   UNL     1       6.469  26.167  53.032  1.00  0.00     0.035 A 
HETATM   16  C   UNL     1       6.806  26.243  54.386  1.00  0.00     0.040 A 
HETATM   17 CL   UNL     1       6.001  27.598  52.199  1.00  0.00    -0.084 Cl
ENDBRANCH   1   5
BRANCH   2  18
HETATM   18  C   UNL     1       7.155  29.174  57.492  1.00  0.00     0.068 A 
HETATM   19  C   UNL     1       7.361  30.045  58.568  1.00  0.00     0.081 A 
HETATM   20  C   UNL     1       6.794  31.314  58.560  1.00  0.00     0.039 A 
HETATM   21  C   UNL     1       5.985  31.706  57.490  1.00  0.00     0.026 A 
HETATM   22  C   UNL     1       5.682  30.813  56.458  1.00  0.00     0.006 A 
HETATM   23  C   UNL     1       6.304  29.562  56.444  1.00  0.00     0.043 A 
BRANCH  19  24
HETATM   24  O   UNL     1       8.137  29.727  59.650  1.00  0.00    -0.360 OA
HETATM   25  H   UNL     1       7.544  29.642  60.433  1.00  0.00     0.217 HD
ENDBRANCH  19  24
BRANCH  22  26
HETATM   26  N   UNL     1       4.962  31.249  55.339  1.00  0.00    -0.303 NA
HETATM   27  H   UNL     1       3.954  31.187  55.453  1.00  0.00     0.124 HD
HETATM   28  H   UNL     1       5.265  30.837  54.461  1.00  0.00     0.124 HD
ENDBRANCH  22  26
ENDBRANCH   2  18
TORSDOF 4
ENDMDL
MODEL 9
REMARK VINA RESULT:      -8.2      3.509      4.515
REMARK  4 active torsions:
REMARK  status: ('A' for Active; 'I' for Inactive)
REMARK    1  A    between atoms: N_6  and  N_7 
REMARK       I    between atoms: N_7  and  C_8 
REMARK    2  A    between atoms: C_8  and  C_9 
REMARK    3  A    between atoms: C_10  and  O_11 
REMARK    4  A    between atoms: C_14  and  N_15 
ROOT
HETATM    1  N   UNL     1       6.147  24.887  52.111  1.00  0.00    -0.242 N 
HETATM    2  C   UNL     1       7.485  24.765  52.444  1.00  0.00     0.274 C 
HETATM    3  O   UNL     1       8.387  25.530  52.110  1.00  0.00    -0.266 OA
HETATM    4  H   UNL     1       5.467  24.224  52.454  1.00  0.00     0.192 HD
ENDROOT
BRANCH   1   5
HETATM    5  N   UNL     1       5.738  25.830  51.223  1.00  0.00    -0.166 NA
HETATM    6  C   UNL     1       5.123  26.882  51.665  1.00  0.00     0.157 A 
HETATM    7  C   UNL     1       4.448  27.877  50.702  1.00  0.00     0.279 A 
HETATM    8  C   UNL     1       4.886  27.406  53.019  1.00  0.00     0.029 A 
HETATM    9  N   UNL     1       3.826  28.806  51.517  1.00  0.00    -0.316 N 
HETATM   10  O   UNL     1       4.464  27.809  49.492  1.00  0.00    -0.265 OA
HETATM   11  C   UNL     1       3.076  29.934  51.034  1.00  0.00     0.159 C 
HETATM   12  C   UNL     1       4.085  28.544  52.868  1.00  0.00     0.050 A 
HETATM   13  C   UNL     1       3.673  29.282  53.966  1.00  0.00     0.032 A 
HETATM   14  C   UNL     1       4.096  28.868  55.233  1.00  0.00     0.026 A 
HETATM   15  C   UNL     1       4.931  27.749  55.374  1.00  0.00     0.035 A 
HETATM   16  C   UNL     1       5.348  27.010  54.264  1.00  0.00     0.040 A 
HETATM   17 CL   UNL     1       5.460  27.282  56.943  1.00  0.00    -0.084 Cl
ENDBRANCH   1   5
BRANCH   2  18
HETATM   18  C   UNL     1       7.809  23.662  53.385  1.00  0.00     0.068 A 
HETATM   19  C   UNL     1       7.912  23.941  54.753  1.00  0.00     0.081 A 
HETATM   20  C   UNL     1       8.090  22.908  55.667  1.00  0.00     0.039 A 
HETATM   21  C   UNL     1       8.203  21.591  55.213  1.00  0.00     0.026 A 
HETATM   22  C   UNL     1       8.208  21.305  53.845  1.00  0.00     0.006 A 
HETATM   23  C   UNL     1       7.969  22.341  52.937  1.00  0.00     0.043 A 
BRANCH  19  24
HETATM   24  O   UNL     1       7.815  25.205  55.269  1.00  0.00    -0.360 OA
HETATM   25  H   UNL     1       7.254  25.160  56.077  1.00  0.00     0.217 HD
ENDBRANCH  19  24
BRANCH  22  26
HETATM   26  N   UNL     1       8.212  19.976  53.404  1.00  0.00    -0.303 NA
HETATM   27  H   UNL     1       7.282  19.597  53.243  1.00  0.00     0.124 HD
HETATM   28  H   UNL     1       8.779  19.349  53.967  1.00  0.00     0.124 HD
ENDBRANCH  22  26
ENDBRANCH   2  18
TORSDOF 4
ENDMDL
MODEL 10
REMARK VINA RESULT:      -8.2      6.675     10.022
REMARK  4 active torsions:
REMARK  status: ('A' for Active; 'I' for Inactive)
REMARK    1  A    between atoms: N_6  and  N_7 
REMARK       I    between atoms: N_7  and  C_8 
REMARK    2  A    between atoms: C_8  and  C_9 
REMARK    3  A    between atoms: C_10  and  O_11 
REMARK    4  A    between atoms: C_14  and  N_15 
ROOT
HETATM    1  N   UNL     1       4.009  31.673  60.428  1.00  0.00    -0.242 N 
HETATM    2  C   UNL     1       4.355  32.155  59.177  1.00  0.00     0.274 C 
HETATM    3  O   UNL     1       4.294  33.326  58.810  1.00  0.00    -0.266 OA
HETATM    4  H   UNL     1       4.118  30.695  60.652  1.00  0.00     0.192 HD
ENDROOT
BRANCH   1   5
HETATM    5  N   UNL     1       3.409  32.481  61.339  1.00  0.00    -0.166 NA
HETATM    6  C   UNL     1       4.091  32.880  62.367  1.00  0.00     0.157 A 
HETATM    7  C   UNL     1       3.414  33.615  63.539  1.00  0.00     0.279 A 
HETATM    8  C   UNL     1       5.515  32.781  62.722  1.00  0.00     0.029 A 
HETATM    9  N   UNL     1       4.413  33.801  64.477  1.00  0.00    -0.316 N 
HETATM   10  O   UNL     1       2.243  33.924  63.596  1.00  0.00    -0.265 OA
HETATM   11  C   UNL     1       4.225  34.464  65.741  1.00  0.00     0.159 C 
HETATM   12  C   UNL     1       5.643  33.327  64.004  1.00  0.00     0.050 A 
HETATM   13  C   UNL     1       6.872  33.385  64.641  1.00  0.00     0.032 A 
HETATM   14  C   UNL     1       7.990  32.898  63.957  1.00  0.00     0.026 A 
HETATM   15  C   UNL     1       7.862  32.387  62.656  1.00  0.00     0.035 A 
HETATM   16  C   UNL     1       6.621  32.334  62.016  1.00  0.00     0.040 A 
HETATM   17 CL   UNL     1       9.260  31.822  61.828  1.00  0.00    -0.084 Cl
ENDBRANCH   1   5
BRANCH   2  18
HETATM   18  C   UNL     1       4.956  31.157  58.254  1.00  0.00     0.068 A 
HETATM   19  C   UNL     1       6.342  31.159  58.057  1.00  0.00     0.081 A 
HETATM   20  C   UNL     1       6.942  30.161  57.299  1.00  0.00     0.039 A 
HETATM   21  C   UNL     1       6.155  29.174  56.701  1.00  0.00     0.026 A 
HETATM   22  C   UNL     1       4.761  29.216  56.798  1.00  0.00     0.006 A 
HETATM   23  C   UNL     1       4.170  30.187  57.612  1.00  0.00     0.043 A 
BRANCH  19  24
HETATM   24  O   UNL     1       7.175  32.096  58.607  1.00  0.00    -0.360 OA
HETATM   25  H   UNL     1       7.401  32.750  57.906  1.00  0.00     0.217 HD
ENDBRANCH  19  24
BRANCH  22  26
HETATM   26  N   UNL     1       3.987  28.165  56.290  1.00  0.00    -0.303 NA
HETATM   27  H   UNL     1       4.184  27.267  56.724  1.00  0.00     0.124 HD
HETATM   28  H   UNL     1       3.986  28.097  55.277  1.00  0.00     0.124 HD
ENDBRANCH  22  26
ENDBRANCH   2  18
TORSDOF 4
ENDMDL
