MODEL 1
REMARK VINA RESULT:      -8.4      0.000      0.000
REMARK  6 active torsions:
REMARK  status: ('A' for Active; 'I' for Inactive)
REMARK    1  A    between atoms: C_2  and  N_3 
REMARK    2  A    between atoms: C_2  and  C_21 
REMARK    3  A    between atoms: N_3  and  C_6 
REMARK    4  A    between atoms: C_6  and  C_7 
REMARK       I    between atoms: C_7  and  N_8 
REMARK    5  A    between atoms: N_8  and  C_9 
REMARK    6  A    between atoms: C_16  and  C_17 
REMARK       I    between atoms: C_17  and  N_18 
ROOT
HETATM    1  C   UNL     1       6.158  26.728  53.902  1.00  0.00     0.248 C 
HETATM    2  N   UNL     1       7.298  26.029  54.213  1.00  0.00    -0.319 N 
HETATM    3  O   UNL     1       5.053  26.300  53.569  1.00  0.00    -0.271 OA
HETATM    4  H   UNL     1       8.110  26.520  54.595  1.00  0.00     0.169 HD
ENDROOT
BRANCH   2   5
HETATM    5  C   UNL     1       7.468  24.650  54.199  1.00  0.00     0.093 A 
HETATM    6  S   UNL     1       7.758  23.801  52.745  1.00  0.00    -0.075 SA
HETATM    7  C   UNL     1       7.860  22.362  53.579  1.00  0.00    -0.008 A 
HETATM    8  C   UNL     1       7.682  22.479  54.931  1.00  0.00    -0.026 A 
HETATM    9  C   UNL     1       8.110  20.981  53.104  1.00  0.00     0.047 C 
HETATM   10  C   UNL     1       7.790  21.143  55.579  1.00  0.00     0.041 C 
HETATM   11  C   UNL     1       7.443  23.827  55.331  1.00  0.00     0.072 A 
HETATM   12  C   UNL     1       8.398  20.257  54.450  1.00  0.00     0.010 C 
BRANCH  11  13
HETATM   13  C   UNL     1       7.189  24.383  56.661  1.00  0.00     0.252 C 
HETATM   14  N   UNL     1       8.161  24.238  57.601  1.00  0.00    -0.366 N 
HETATM   15  H   UNL     1       9.005  23.708  57.457  1.00  0.00     0.159 HD
HETATM   16  H   UNL     1       7.974  24.582  58.534  1.00  0.00     0.159 HD
HETATM   17  O   UNL     1       6.126  24.939  56.940  1.00  0.00    -0.268 OA
ENDBRANCH  11  13
ENDBRANCH   2   5
BRANCH   1  18
HETATM   18  C   UNL     1       6.296  28.239  54.084  1.00  0.00     0.335 C 
BRANCH  18  19
HETATM   19  N   UNL     1       7.564  28.525  54.832  1.00  0.00    -0.057 N 
HETATM   20  H   UNL     1       8.207  29.054  54.219  1.00  0.00     0.278 HD
HETATM   21  H   UNL     1       8.068  27.631  54.957  1.00  0.00     0.278 HD
BRANCH  19  22
HETATM   22  C   UNL     1       7.447  29.280  56.113  1.00  0.00     0.239 C 
HETATM   23  C   UNL     1       6.683  28.420  57.112  1.00  0.00     0.047 C 
BRANCH  22  24
HETATM   24  C   UNL     1       8.799  29.654  56.623  1.00  0.00     0.082 A 
HETATM   25  O   UNL     1       8.834  30.256  57.853  1.00  0.00    -0.325 OA
HETATM   26  C   UNL     1      10.139  30.497  58.139  1.00  0.00     0.142 A 
HETATM   27  C   UNL     1      10.945  30.045  57.121  1.00  0.00     0.027 A 
HETATM   28  C   UNL     1      10.082  29.497  56.141  1.00  0.00     0.037 A 
ENDBRANCH  22  24
ENDBRANCH  19  22
ENDBRANCH  18  19
ENDBRANCH   1  18
TORSDOF 6
ENDMDL
MODEL 2
REMARK VINA RESULT:      -8.0      2.891      4.167
REMARK  6 active torsions:
REMARK  status: ('A' for Active; 'I' for Inactive)
REMARK    1  A    between atoms: C_2  and  N_3 
REMARK    2  A    between atoms: C_2  and  C_21 
REMARK    3  A    between atoms: N_3  and  C_6 
REMARK    4  A    between atoms: C_6  and  C_7 
REMARK       I    between atoms: C_7  and  N_8 
REMARK    5  A    between atoms: N_8  and  C_9 
REMARK    6  A    between atoms: C_16  and  C_17 
REMARK       I    between atoms: C_17  and  N_18 
ROOT
HETATM    1  C   UNL     1       7.915  28.651  57.201  1.00  0.00     0.248 C 
HETATM    2  N   UNL     1       7.018  28.266  56.235  1.00  0.00    -0.319 N 
HETATM    3  O   UNL     1       9.007  28.160  57.483  1.00  0.00    -0.271 OA
HETATM    4  H   UNL     1       6.203  28.850  56.032  1.00  0.00     0.169 HD
ENDROOT
BRANCH   2   5
HETATM    5  C   UNL     1       7.137  27.196  55.356  1.00  0.00     0.093 A 
HETATM    6  S   UNL     1       7.576  27.430  53.721  1.00  0.00    -0.075 SA
HETATM    7  C   UNL     1       7.519  25.787  53.448  1.00  0.00    -0.008 A 
HETATM    8  C   UNL     1       7.176  25.044  54.545  1.00  0.00    -0.026 A 
HETATM    9  C   UNL     1       7.775  24.997  52.221  1.00  0.00     0.047 C 
HETATM   10  C   UNL     1       7.152  23.596  54.197  1.00  0.00     0.041 C 
HETATM   11  C   UNL     1       6.939  25.853  55.695  1.00  0.00     0.072 A 
HETATM   12  C   UNL     1       7.865  23.561  52.810  1.00  0.00     0.010 C 
BRANCH  11  13
HETATM   13  C   UNL     1       6.540  25.470  57.050  1.00  0.00     0.252 C 
HETATM   14  N   UNL     1       7.525  25.289  57.970  1.00  0.00    -0.366 N 
HETATM   15  H   UNL     1       8.508  25.330  57.754  1.00  0.00     0.159 HD
HETATM   16  H   UNL     1       7.259  24.982  58.897  1.00  0.00     0.159 HD
HETATM   17  O   UNL     1       5.360  25.284  57.352  1.00  0.00    -0.268 OA
ENDBRANCH  11  13
ENDBRANCH   2   5
BRANCH   1  18
HETATM   18  C   UNL     1       7.502  29.916  57.952  1.00  0.00     0.335 C 
BRANCH  18  19
HETATM   19  N   UNL     1       7.851  29.756  59.402  1.00  0.00    -0.057 N 
HETATM   20  H   UNL     1       8.183  28.791  59.567  1.00  0.00     0.278 HD
HETATM   21  H   UNL     1       6.971  29.780  59.945  1.00  0.00     0.278 HD
BRANCH  19  22
HETATM   22  C   UNL     1       8.875  30.683  59.966  1.00  0.00     0.239 C 
HETATM   23  C   UNL     1       9.335  31.624  58.859  1.00  0.00     0.047 C 
BRANCH  22  24
HETATM   24  C   UNL     1       8.319  31.428  61.132  1.00  0.00     0.082 A 
HETATM   25  O   UNL     1       6.988  31.746  61.065  1.00  0.00    -0.325 OA
HETATM   26  C   UNL     1       6.678  32.397  62.215  1.00  0.00     0.142 A 
HETATM   27  C   UNL     1       7.782  32.487  63.029  1.00  0.00     0.027 A 
HETATM   28  C   UNL     1       8.844  31.858  62.333  1.00  0.00     0.037 A 
ENDBRANCH  22  24
ENDBRANCH  19  22
ENDBRANCH  18  19
ENDBRANCH   1  18
TORSDOF 6
ENDMDL
MODEL 3
REMARK VINA RESULT:      -8.0      1.805      2.221
REMARK  6 active torsions:
REMARK  status: ('A' for Active; 'I' for Inactive)
REMARK    1  A    between atoms: C_2  and  N_3 
REMARK    2  A    between atoms: C_2  and  C_21 
REMARK    3  A    between atoms: N_3  and  C_6 
REMARK    4  A    between atoms: C_6  and  C_7 
REMARK       I    between atoms: C_7  and  N_8 
REMARK    5  A    between atoms: N_8  and  C_9 
REMARK    6  A    between atoms: C_16  and  C_17 
REMARK       I    between atoms: C_17  and  N_18 
ROOT
HETATM    1  C   UNL     1       5.254  25.616  53.436  1.00  0.00     0.248 C 
HETATM    2  N   UNL     1       6.476  25.385  54.018  1.00  0.00    -0.319 N 
HETATM    3  O   UNL     1       4.388  24.807  53.107  1.00  0.00    -0.271 OA
HETATM    4  H   UNL     1       7.041  26.171  54.350  1.00  0.00     0.169 HD
ENDROOT
BRANCH   2   5
HETATM    5  C   UNL     1       7.028  24.155  54.354  1.00  0.00     0.093 A 
HETATM    6  S   UNL     1       7.511  23.037  53.155  1.00  0.00    -0.075 SA
HETATM    7  C   UNL     1       8.035  21.973  54.326  1.00  0.00    -0.008 A 
HETATM    8  C   UNL     1       7.863  22.417  55.610  1.00  0.00    -0.026 A 
HETATM    9  C   UNL     1       8.653  20.631  54.212  1.00  0.00     0.047 C 
HETATM   10  C   UNL     1       8.359  21.398  56.575  1.00  0.00     0.041 C 
HETATM   11  C   UNL     1       7.263  23.710  55.660  1.00  0.00     0.072 A 
HETATM   12  C   UNL     1       9.166  20.421  55.666  1.00  0.00     0.010 C 
BRANCH  11  13
HETATM   13  C   UNL     1       6.894  24.532  56.813  1.00  0.00     0.252 C 
HETATM   14  N   UNL     1       7.812  24.674  57.806  1.00  0.00    -0.366 N 
HETATM   15  H   UNL     1       8.694  24.188  57.828  1.00  0.00     0.159 HD
HETATM   16  H   UNL     1       7.547  25.205  58.626  1.00  0.00     0.159 HD
HETATM   17  O   UNL     1       5.783  25.057  56.908  1.00  0.00    -0.268 OA
ENDBRANCH  11  13
ENDBRANCH   2   5
BRANCH   1  18
HETATM   18  C   UNL     1       4.928  27.098  53.262  1.00  0.00     0.335 C 
BRANCH  18  19
HETATM   19  N   UNL     1       4.412  27.639  54.562  1.00  0.00    -0.057 N 
HETATM   20  H   UNL     1       4.525  26.921  55.297  1.00  0.00     0.278 HD
HETATM   21  H   UNL     1       3.383  27.716  54.489  1.00  0.00     0.278 HD
BRANCH  19  22
HETATM   22  C   UNL     1       5.027  28.899  55.072  1.00  0.00     0.239 C 
HETATM   23  C   UNL     1       3.934  29.743  55.716  1.00  0.00     0.047 C 
BRANCH  22  24
HETATM   24  C   UNL     1       6.127  28.591  56.031  1.00  0.00     0.082 A 
HETATM   25  O   UNL     1       7.307  28.167  55.479  1.00  0.00    -0.325 OA
HETATM   26  C   UNL     1       8.172  27.959  56.503  1.00  0.00     0.142 A 
HETATM   27  C   UNL     1       7.575  28.259  57.705  1.00  0.00     0.027 A 
HETATM   28  C   UNL     1       6.254  28.671  57.402  1.00  0.00     0.037 A 
ENDBRANCH  22  24
ENDBRANCH  19  22
ENDBRANCH  18  19
ENDBRANCH   1  18
TORSDOF 6
ENDMDL
MODEL 4
REMARK VINA RESULT:      -7.9      1.708      2.485
REMARK  6 active torsions:
REMARK  status: ('A' for Active; 'I' for Inactive)
REMARK    1  A    between atoms: C_2  and  N_3 
REMARK    2  A    between atoms: C_2  and  C_21 
REMARK    3  A    between atoms: N_3  and  C_6 
REMARK    4  A    between atoms: C_6  and  C_7 
REMARK       I    between atoms: C_7  and  N_8 
REMARK    5  A    between atoms: N_8  and  C_9 
REMARK    6  A    between atoms: C_16  and  C_17 
REMARK       I    between atoms: C_17  and  N_18 
ROOT
HETATM    1  C   UNL     1       6.717  27.113  54.611  1.00  0.00     0.248 C 
HETATM    2  N   UNL     1       6.260  25.904  55.074  1.00  0.00    -0.319 N 
HETATM    3  O   UNL     1       7.703  27.353  53.915  1.00  0.00    -0.271 OA
HETATM    4  H   UNL     1       5.352  25.845  55.541  1.00  0.00     0.169 HD
ENDROOT
BRANCH   2   5
HETATM    5  C   UNL     1       6.836  24.655  54.873  1.00  0.00     0.093 A 
HETATM    6  S   UNL     1       7.534  23.776  56.161  1.00  0.00    -0.075 SA
HETATM    7  C   UNL     1       7.906  22.520  55.131  1.00  0.00    -0.008 A 
HETATM    8  C   UNL     1       7.529  22.724  53.831  1.00  0.00    -0.026 A 
HETATM    9  C   UNL     1       8.576  21.223  55.385  1.00  0.00     0.047 C 
HETATM   10  C   UNL     1       7.907  21.550  52.997  1.00  0.00     0.041 C 
HETATM   11  C   UNL     1       6.893  23.986  53.644  1.00  0.00     0.072 A 
HETATM   12  C   UNL     1       8.263  20.468  54.062  1.00  0.00     0.010 C 
BRANCH  11  13
HETATM   13  C   UNL     1       6.359  24.601  52.427  1.00  0.00     0.252 C 
HETATM   14  N   UNL     1       7.248  25.142  51.552  1.00  0.00    -0.366 N 
HETATM   15  H   UNL     1       8.237  25.210  51.728  1.00  0.00     0.159 HD
HETATM   16  H   UNL     1       6.882  25.606  50.731  1.00  0.00     0.159 HD
HETATM   17  O   UNL     1       5.148  24.659  52.207  1.00  0.00    -0.268 OA
ENDBRANCH  11  13
ENDBRANCH   2   5
BRANCH   1  18
HETATM   18  C   UNL     1       5.805  28.288  54.962  1.00  0.00     0.335 C 
BRANCH  18  19
HETATM   19  N   UNL     1       6.652  29.494  55.242  1.00  0.00    -0.057 N 
HETATM   20  H   UNL     1       6.204  30.327  54.824  1.00  0.00     0.278 HD
HETATM   21  H   UNL     1       7.519  29.410  54.687  1.00  0.00     0.278 HD
BRANCH  19  22
HETATM   22  C   UNL     1       6.937  29.812  56.672  1.00  0.00     0.239 C 
HETATM   23  C   UNL     1       6.237  28.779  57.545  1.00  0.00     0.047 C 
BRANCH  22  24
HETATM   24  C   UNL     1       8.408  29.841  56.916  1.00  0.00     0.082 A 
HETATM   25  O   UNL     1       9.205  29.670  55.815  1.00  0.00    -0.325 OA
HETATM   26  C   UNL     1      10.492  29.745  56.241  1.00  0.00     0.142 A 
HETATM   27  C   UNL     1      10.536  29.978  57.596  1.00  0.00     0.027 A 
HETATM   28  C   UNL     1       9.190  30.043  58.034  1.00  0.00     0.037 A 
ENDBRANCH  22  24
ENDBRANCH  19  22
ENDBRANCH  18  19
ENDBRANCH   1  18
TORSDOF 6
ENDMDL
MODEL 5
REMARK VINA RESULT:      -7.9      1.598      2.479
REMARK  6 active torsions:
REMARK  status: ('A' for Active; 'I' for Inactive)
REMARK    1  A    between atoms: C_2  and  N_3 
REMARK    2  A    between atoms: C_2  and  C_21 
REMARK    3  A    between atoms: N_3  and  C_6 
REMARK    4  A    between atoms: C_6  and  C_7 
REMARK       I    between atoms: C_7  and  N_8 
REMARK    5  A    between atoms: N_8  and  C_9 
REMARK    6  A    between atoms: C_16  and  C_17 
REMARK       I    between atoms: C_17  and  N_18 
ROOT
HETATM    1  C   UNL     1       5.828  25.979  56.704  1.00  0.00     0.248 C 
HETATM    2  N   UNL     1       6.937  25.734  55.932  1.00  0.00    -0.319 N 
HETATM    3  O   UNL     1       5.028  25.179  57.186  1.00  0.00    -0.271 OA
HETATM    4  H   UNL     1       7.581  26.496  55.706  1.00  0.00     0.169 HD
ENDROOT
BRANCH   2   5
HETATM    5  C   UNL     1       7.400  24.498  55.496  1.00  0.00     0.093 A 
HETATM    6  S   UNL     1       8.352  23.497  56.500  1.00  0.00    -0.075 SA
HETATM    7  C   UNL     1       8.420  22.331  55.312  1.00  0.00    -0.008 A 
HETATM    8  C   UNL     1       7.751  22.656  54.163  1.00  0.00    -0.026 A 
HETATM    9  C   UNL     1       9.082  21.005  55.289  1.00  0.00     0.047 C 
HETATM   10  C   UNL     1       7.875  21.555  53.169  1.00  0.00     0.041 C 
HETATM   11  C   UNL     1       7.137  23.941  54.239  1.00  0.00     0.072 A 
HETATM   12  C   UNL     1       8.433  20.376  54.023  1.00  0.00     0.010 C 
BRANCH  11  13
HETATM   13  C   UNL     1       6.351  24.669  53.242  1.00  0.00     0.252 C 
HETATM   14  N   UNL     1       6.980  25.046  52.097  1.00  0.00    -0.366 N 
HETATM   15  H   UNL     1       7.965  24.920  51.930  1.00  0.00     0.159 HD
HETATM   16  H   UNL     1       6.454  25.588  51.422  1.00  0.00     0.159 HD
HETATM   17  O   UNL     1       5.170  24.963  53.434  1.00  0.00    -0.268 OA
ENDBRANCH  11  13
ENDBRANCH   2   5
BRANCH   1  18
HETATM   18  C   UNL     1       5.641  27.454  57.058  1.00  0.00     0.335 C 
BRANCH  18  19
HETATM   19  N   UNL     1       6.970  28.035  57.440  1.00  0.00    -0.057 N 
HETATM   20  H   UNL     1       7.723  27.434  57.064  1.00  0.00     0.278 HD
HETATM   21  H   UNL     1       7.087  27.918  58.460  1.00  0.00     0.278 HD
BRANCH  19  22
HETATM   22  C   UNL     1       7.256  29.433  57.005  1.00  0.00     0.239 C 
HETATM   23  C   UNL     1       6.405  30.381  57.841  1.00  0.00     0.047 C 
BRANCH  22  24
HETATM   24  C   UNL     1       8.712  29.732  57.136  1.00  0.00     0.082 A 
HETATM   25  O   UNL     1       9.042  30.762  57.976  1.00  0.00    -0.325 OA
HETATM   26  C   UNL     1      10.396  30.860  57.969  1.00  0.00     0.142 A 
HETATM   27  C   UNL     1      10.943  29.900  57.152  1.00  0.00     0.027 A 
HETATM   28  C   UNL     1       9.857  29.167  56.614  1.00  0.00     0.037 A 
ENDBRANCH  22  24
ENDBRANCH  19  22
ENDBRANCH  18  19
ENDBRANCH   1  18
TORSDOF 6
ENDMDL
MODEL 6
REMARK VINA RESULT:      -7.8      2.342      3.437
REMARK  6 active torsions:
REMARK  status: ('A' for Active; 'I' for Inactive)
REMARK    1  A    between atoms: C_2  and  N_3 
REMARK    2  A    between atoms: C_2  and  C_21 
REMARK    3  A    between atoms: N_3  and  C_6 
REMARK    4  A    between atoms: C_6  and  C_7 
REMARK       I    between atoms: C_7  and  N_8 
REMARK    5  A    between atoms: N_8  and  C_9 
REMARK    6  A    between atoms: C_16  and  C_17 
REMARK       I    between atoms: C_17  and  N_18 
ROOT
HETATM    1  C   UNL     1       7.502  27.016  57.065  1.00  0.00     0.248 C 
HETATM    2  N   UNL     1       6.742  26.225  56.238  1.00  0.00    -0.319 N 
HETATM    3  O   UNL     1       8.657  26.845  57.453  1.00  0.00    -0.271 OA
HETATM    4  H   UNL     1       5.837  26.561  55.901  1.00  0.00     0.169 HD
ENDROOT
BRANCH   2   5
HETATM    5  C   UNL     1       7.110  25.015  55.662  1.00  0.00     0.093 A 
HETATM    6  S   UNL     1       7.474  23.647  56.617  1.00  0.00    -0.075 SA
HETATM    7  C   UNL     1       7.746  22.736  55.249  1.00  0.00    -0.008 A 
HETATM    8  C   UNL     1       7.578  23.418  54.074  1.00  0.00    -0.026 A 
HETATM    9  C   UNL     1       8.140  21.316  55.090  1.00  0.00     0.047 C 
HETATM   10  C   UNL     1       7.846  22.520  52.917  1.00  0.00     0.041 C 
HETATM   11  C   UNL     1       7.203  24.777  54.286  1.00  0.00     0.072 A 
HETATM   12  C   UNL     1       7.868  21.105  53.573  1.00  0.00     0.010 C 
BRANCH  11  13
HETATM   13  C   UNL     1       6.943  25.844  53.318  1.00  0.00     0.252 C 
HETATM   14  N   UNL     1       6.022  25.604  52.347  1.00  0.00    -0.366 N 
HETATM   15  H   UNL     1       5.568  24.715  52.212  1.00  0.00     0.159 HD
HETATM   16  H   UNL     1       5.869  26.321  51.649  1.00  0.00     0.159 HD
HETATM   17  O   UNL     1       7.552  26.915  53.352  1.00  0.00    -0.268 OA
ENDBRANCH  11  13
ENDBRANCH   2   5
BRANCH   1  18
HETATM   18  C   UNL     1       6.814  28.319  57.470  1.00  0.00     0.335 C 
BRANCH  18  19
HETATM   19  N   UNL     1       7.596  28.958  58.579  1.00  0.00    -0.057 N 
HETATM   20  H   UNL     1       8.518  28.497  58.653  1.00  0.00     0.278 HD
HETATM   21  H   UNL     1       7.149  28.698  59.474  1.00  0.00     0.278 HD
BRANCH  19  22
HETATM   22  C   UNL     1       7.838  30.428  58.486  1.00  0.00     0.239 C 
HETATM   23  C   UNL     1       6.502  31.124  58.263  1.00  0.00     0.047 C 
BRANCH  22  24
HETATM   24  C   UNL     1       8.523  30.921  59.716  1.00  0.00     0.082 A 
HETATM   25  O   UNL     1       8.676  30.010  60.727  1.00  0.00    -0.325 OA
HETATM   26  C   UNL     1       9.329  30.643  61.736  1.00  0.00     0.142 A 
HETATM   27  C   UNL     1       9.613  31.941  61.384  1.00  0.00     0.027 A 
HETATM   28  C   UNL     1       9.096  32.123  60.077  1.00  0.00     0.037 A 
ENDBRANCH  22  24
ENDBRANCH  19  22
ENDBRANCH  18  19
ENDBRANCH   1  18
TORSDOF 6
ENDMDL
MODEL 7
REMARK VINA RESULT:      -7.7      1.217      1.727
REMARK  6 active torsions:
REMARK  status: ('A' for Active; 'I' for Inactive)
REMARK    1  A    between atoms: C_2  and  N_3 
REMARK    2  A    between atoms: C_2  and  C_21 
REMARK    3  A    between atoms: N_3  and  C_6 
REMARK    4  A    between atoms: C_6  and  C_7 
REMARK       I    between atoms: C_7  and  N_8 
REMARK    5  A    between atoms: N_8  and  C_9 
REMARK    6  A    between atoms: C_16  and  C_17 
REMARK       I    between atoms: C_17  and  N_18 
ROOT
HETATM    1  C   UNL     1       6.139  26.836  54.042  1.00  0.00     0.248 C 
HETATM    2  N   UNL     1       7.290  26.123  54.277  1.00  0.00    -0.319 N 
HETATM    3  O   UNL     1       5.016  26.422  53.758  1.00  0.00    -0.271 OA
HETATM    4  H   UNL     1       8.124  26.600  54.627  1.00  0.00     0.169 HD
ENDROOT
BRANCH   2   5
HETATM    5  C   UNL     1       7.449  24.743  54.223  1.00  0.00     0.093 A 
HETATM    6  S   UNL     1       7.693  23.931  52.740  1.00  0.00    -0.075 SA
HETATM    7  C   UNL     1       7.807  22.470  53.533  1.00  0.00    -0.008 A 
HETATM    8  C   UNL     1       7.666  22.553  54.892  1.00  0.00    -0.026 A 
HETATM    9  C   UNL     1       8.033  21.100  53.016  1.00  0.00     0.047 C 
HETATM   10  C   UNL     1       7.781  21.200  55.502  1.00  0.00     0.041 C 
HETATM   11  C   UNL     1       7.448  23.891  55.334  1.00  0.00     0.072 A 
HETATM   12  C   UNL     1       8.352  20.339  54.334  1.00  0.00     0.010 C 
BRANCH  11  13
HETATM   13  C   UNL     1       7.234  24.414  56.684  1.00  0.00     0.252 C 
HETATM   14  N   UNL     1       8.211  24.200  57.604  1.00  0.00    -0.366 N 
HETATM   15  H   UNL     1       9.032  23.642  57.432  1.00  0.00     0.159 HD
HETATM   16  H   UNL     1       8.050  24.521  58.551  1.00  0.00     0.159 HD
HETATM   17  O   UNL     1       6.197  25.002  56.996  1.00  0.00    -0.268 OA
ENDBRANCH  11  13
ENDBRANCH   2   5
BRANCH   1  18
HETATM   18  C   UNL     1       6.298  28.341  54.252  1.00  0.00     0.335 C 
BRANCH  18  19
HETATM   19  N   UNL     1       7.462  28.586  55.165  1.00  0.00    -0.057 N 
HETATM   20  H   UNL     1       7.800  29.553  55.031  1.00  0.00     0.278 HD
HETATM   21  H   UNL     1       8.260  28.026  54.821  1.00  0.00     0.278 HD
BRANCH  19  22
HETATM   22  C   UNL     1       7.237  28.391  56.627  1.00  0.00     0.239 C 
HETATM   23  C   UNL     1       8.508  27.812  57.237  1.00  0.00     0.047 C 
BRANCH  22  24
HETATM   24  C   UNL     1       6.849  29.679  57.271  1.00  0.00     0.082 A 
HETATM   25  O   UNL     1       7.756  30.212  58.149  1.00  0.00    -0.325 OA
HETATM   26  C   UNL     1       7.229  31.376  58.606  1.00  0.00     0.142 A 
HETATM   27  C   UNL     1       6.006  31.611  58.024  1.00  0.00     0.027 A 
HETATM   28  C   UNL     1       5.759  30.517  57.158  1.00  0.00     0.037 A 
ENDBRANCH  22  24
ENDBRANCH  19  22
ENDBRANCH  18  19
ENDBRANCH   1  18
TORSDOF 6
ENDMDL
MODEL 8
REMARK VINA RESULT:      -7.6      3.679      6.259
REMARK  6 active torsions:
REMARK  status: ('A' for Active; 'I' for Inactive)
REMARK    1  A    between atoms: C_2  and  N_3 
REMARK    2  A    between atoms: C_2  and  C_21 
REMARK    3  A    between atoms: N_3  and  C_6 
REMARK    4  A    between atoms: C_6  and  C_7 
REMARK       I    between atoms: C_7  and  N_8 
REMARK    5  A    between atoms: N_8  and  C_9 
REMARK    6  A    between atoms: C_16  and  C_17 
REMARK       I    between atoms: C_17  and  N_18 
ROOT
HETATM    1  C   UNL     1       6.846  25.418  52.413  1.00  0.00     0.248 C 
HETATM    2  N   UNL     1       6.377  24.687  53.477  1.00  0.00    -0.319 N 
HETATM    3  O   UNL     1       7.873  25.257  51.755  1.00  0.00    -0.271 OA
HETATM    4  H   UNL     1       5.440  24.865  53.846  1.00  0.00     0.169 HD
ENDROOT
BRANCH   2   5
HETATM    5  C   UNL     1       6.984  23.588  54.073  1.00  0.00     0.093 A 
HETATM    6  S   UNL     1       7.607  22.298  53.142  1.00  0.00    -0.075 SA
HETATM    7  C   UNL     1       8.126  21.523  54.523  1.00  0.00    -0.008 A 
HETATM    8  C   UNL     1       7.850  22.192  55.685  1.00  0.00    -0.026 A 
HETATM    9  C   UNL     1       8.832  20.233  54.705  1.00  0.00     0.047 C 
HETATM   10  C   UNL     1       8.349  21.418  56.854  1.00  0.00     0.041 C 
HETATM   11  C   UNL     1       7.168  23.423  55.452  1.00  0.00     0.072 A 
HETATM   12  C   UNL     1       9.269  20.346  56.193  1.00  0.00     0.010 C 
BRANCH  11  13
HETATM   13  C   UNL     1       6.679  24.423  56.401  1.00  0.00     0.252 C 
HETATM   14  N   UNL     1       7.472  24.723  57.464  1.00  0.00    -0.366 N 
HETATM   15  H   UNL     1       8.334  24.246  57.673  1.00  0.00     0.159 HD
HETATM   16  H   UNL     1       7.121  25.382  58.148  1.00  0.00     0.159 HD
HETATM   17  O   UNL     1       5.577  24.959  56.271  1.00  0.00    -0.268 OA
ENDBRANCH  11  13
ENDBRANCH   2   5
BRANCH   1  18
HETATM   18  C   UNL     1       5.895  26.527  51.965  1.00  0.00     0.335 C 
BRANCH  18  19
HETATM   19  N   UNL     1       5.836  26.541  50.466  1.00  0.00    -0.057 N 
HETATM   20  H   UNL     1       5.646  25.584  50.125  1.00  0.00     0.278 HD
HETATM   21  H   UNL     1       6.792  26.713  50.112  1.00  0.00     0.278 HD
BRANCH  19  22
HETATM   22  C   UNL     1       4.837  27.448  49.829  1.00  0.00     0.239 C 
HETATM   23  C   UNL     1       5.584  28.606  49.179  1.00  0.00     0.047 C 
BRANCH  22  24
HETATM   24  C   UNL     1       4.007  26.699  48.842  1.00  0.00     0.082 A 
HETATM   25  O   UNL     1       3.437  27.444  47.845  1.00  0.00    -0.325 OA
HETATM   26  C   UNL     1       2.747  26.584  47.053  1.00  0.00     0.142 A 
HETATM   27  C   UNL     1       2.878  25.296  47.514  1.00  0.00     0.027 A 
HETATM   28  C   UNL     1       3.695  25.366  48.669  1.00  0.00     0.037 A 
ENDBRANCH  22  24
ENDBRANCH  19  22
ENDBRANCH  18  19
ENDBRANCH   1  18
TORSDOF 6
ENDMDL
MODEL 9
REMARK VINA RESULT:      -7.4      3.371      4.777
REMARK  6 active torsions:
REMARK  status: ('A' for Active; 'I' for Inactive)
REMARK    1  A    between atoms: C_2  and  N_3 
REMARK    2  A    between atoms: C_2  and  C_21 
REMARK    3  A    between atoms: N_3  and  C_6 
REMARK    4  A    between atoms: C_6  and  C_7 
REMARK       I    between atoms: C_7  and  N_8 
REMARK    5  A    between atoms: N_8  and  C_9 
REMARK    6  A    between atoms: C_16  and  C_17 
REMARK       I    between atoms: C_17  and  N_18 
ROOT
HETATM    1  C   UNL     1       5.375  25.604  53.379  1.00  0.00     0.248 C 
HETATM    2  N   UNL     1       6.615  25.343  53.909  1.00  0.00    -0.319 N 
HETATM    3  O   UNL     1       4.447  24.827  53.159  1.00  0.00    -0.271 OA
HETATM    4  H   UNL     1       7.241  26.115  54.150  1.00  0.00     0.169 HD
ENDROOT
BRANCH   2   5
HETATM    5  C   UNL     1       7.117  24.108  54.303  1.00  0.00     0.093 A 
HETATM    6  S   UNL     1       7.634  22.949  53.159  1.00  0.00    -0.075 SA
HETATM    7  C   UNL     1       8.067  21.903  54.382  1.00  0.00    -0.008 A 
HETATM    8  C   UNL     1       7.838  22.383  55.644  1.00  0.00    -0.026 A 
HETATM    9  C   UNL     1       8.656  20.544  54.334  1.00  0.00     0.047 C 
HETATM   10  C   UNL     1       8.256  21.377  56.658  1.00  0.00     0.041 C 
HETATM   11  C   UNL     1       7.270  23.691  55.631  1.00  0.00     0.072 A 
HETATM   12  C   UNL     1       9.085  20.358  55.818  1.00  0.00     0.010 C 
BRANCH  11  13
HETATM   13  C   UNL     1       6.861  24.551  56.742  1.00  0.00     0.252 C 
HETATM   14  N   UNL     1       7.785  24.823  57.702  1.00  0.00    -0.366 N 
HETATM   15  H   UNL     1       8.702  24.408  57.730  1.00  0.00     0.159 HD
HETATM   16  H   UNL     1       7.496  25.381  58.495  1.00  0.00     0.159 HD
HETATM   17  O   UNL     1       5.715  24.995  56.832  1.00  0.00    -0.268 OA
ENDBRANCH  11  13
ENDBRANCH   2   5
BRANCH   1  18
HETATM   18  C   UNL     1       5.122  27.088  53.115  1.00  0.00     0.335 C 
BRANCH  18  19
HETATM   19  N   UNL     1       4.345  27.230  51.840  1.00  0.00    -0.057 N 
HETATM   20  H   UNL     1       3.614  27.950  51.967  1.00  0.00     0.278 HD
HETATM   21  H   UNL     1       3.784  26.371  51.712  1.00  0.00     0.278 HD
BRANCH  19  22
HETATM   22  C   UNL     1       5.109  27.582  50.608  1.00  0.00     0.239 C 
HETATM   23  C   UNL     1       4.624  26.693  49.470  1.00  0.00     0.047 C 
BRANCH  22  24
HETATM   24  C   UNL     1       4.945  29.030  50.289  1.00  0.00     0.082 A 
HETATM   25  O   UNL     1       6.061  29.810  50.438  1.00  0.00    -0.325 OA
HETATM   26  C   UNL     1       5.711  31.074  50.086  1.00  0.00     0.142 A 
HETATM   27  C   UNL     1       4.393  31.117  49.698  1.00  0.00     0.027 A 
HETATM   28  C   UNL     1       3.896  29.796  49.825  1.00  0.00     0.037 A 
ENDBRANCH  22  24
ENDBRANCH  19  22
ENDBRANCH  18  19
ENDBRANCH   1  18
TORSDOF 6
ENDMDL
MODEL 10
REMARK VINA RESULT:      -7.4      3.638      5.435
REMARK  6 active torsions:
REMARK  status: ('A' for Active; 'I' for Inactive)
REMARK    1  A    between atoms: C_2  and  N_3 
REMARK    2  A    between atoms: C_2  and  C_21 
REMARK    3  A    between atoms: N_3  and  C_6 
REMARK    4  A    between atoms: C_6  and  C_7 
REMARK       I    between atoms: C_7  and  N_8 
REMARK    5  A    between atoms: N_8  and  C_9 
REMARK    6  A    between atoms: C_16  and  C_17 
REMARK       I    between atoms: C_17  and  N_18 
ROOT
HETATM    1  C   UNL     1       5.184  27.618  54.043  1.00  0.00     0.248 C 
HETATM    2  N   UNL     1       4.933  26.359  54.532  1.00  0.00    -0.319 N 
HETATM    3  O   UNL     1       6.207  28.054  53.516  1.00  0.00    -0.271 OA
HETATM    4  H   UNL     1       3.987  26.106  54.831  1.00  0.00     0.169 HD
ENDROOT
BRANCH   2   5
HETATM    5  C   UNL     1       5.806  25.279  54.561  1.00  0.00     0.093 A 
HETATM    6  S   UNL     1       6.437  24.681  56.032  1.00  0.00    -0.075 SA
HETATM    7  C   UNL     1       7.271  23.491  55.216  1.00  0.00    -0.008 A 
HETATM    8  C   UNL     1       7.104  23.514  53.858  1.00  0.00    -0.026 A 
HETATM    9  C   UNL     1       8.163  22.416  55.712  1.00  0.00     0.047 C 
HETATM   10  C   UNL     1       7.888  22.418  53.226  1.00  0.00     0.041 C 
HETATM   11  C   UNL     1       6.241  24.568  53.436  1.00  0.00     0.072 A 
HETATM   12  C   UNL     1       8.280  21.525  54.443  1.00  0.00     0.010 C 
BRANCH  11  13
HETATM   13  C   UNL     1       5.814  24.954  52.090  1.00  0.00     0.252 C 
HETATM   14  N   UNL     1       6.706  25.625  51.315  1.00  0.00    -0.366 N 
HETATM   15  H   UNL     1       7.609  25.935  51.638  1.00  0.00     0.159 HD
HETATM   16  H   UNL     1       6.403  25.933  50.400  1.00  0.00     0.159 HD
HETATM   17  O   UNL     1       4.680  24.712  51.674  1.00  0.00    -0.268 OA
ENDBRANCH  11  13
ENDBRANCH   2   5
BRANCH   1  18
HETATM   18  C   UNL     1       3.977  28.552  54.107  1.00  0.00     0.335 C 
BRANCH  18  19
HETATM   19  N   UNL     1       3.105  28.304  52.912  1.00  0.00    -0.057 N 
HETATM   20  H   UNL     1       2.127  28.188  53.224  1.00  0.00     0.278 HD
HETATM   21  H   UNL     1       3.330  27.364  52.545  1.00  0.00     0.278 HD
BRANCH  19  22
HETATM   22  C   UNL     1       3.111  29.336  51.834  1.00  0.00     0.239 C 
HETATM   23  C   UNL     1       3.470  30.680  52.456  1.00  0.00     0.047 C 
BRANCH  22  24
HETATM   24  C   UNL     1       4.062  28.953  50.751  1.00  0.00     0.082 A 
HETATM   25  O   UNL     1       3.745  27.825  50.042  1.00  0.00    -0.325 OA
HETATM   26  C   UNL     1       4.712  27.661  49.104  1.00  0.00     0.142 A 
HETATM   27  C   UNL     1       5.637  28.675  49.186  1.00  0.00     0.027 A 
HETATM   28  C   UNL     1       5.217  29.514  50.248  1.00  0.00     0.037 A 
ENDBRANCH  22  24
ENDBRANCH  19  22
ENDBRANCH  18  19
ENDBRANCH   1  18
TORSDOF 6
ENDMDL
