MODEL 1
REMARK VINA RESULT:      -9.8      0.000      0.000
REMARK  7 active torsions:
REMARK  status: ('A' for Active; 'I' for Inactive)
REMARK    1  A    between atoms: C_2  and  C_3 
REMARK    2  A    between atoms: C_3  and  N_4 
REMARK    3  A    between atoms: C_10  and  N_11 
REMARK       I    between atoms: N_11  and  C_12 
REMARK    4  A    between atoms: C_12  and  C_13 
REMARK    5  A    between atoms: C_13  and  N_14 
REMARK       I    between atoms: N_14  and  C_15 
REMARK       I    between atoms: C_15  and  N_16 
REMARK    6  A    between atoms: N_16  and  C_17 
REMARK    7  A    between atoms: C_17  and  C_18 
ROOT
HETATM    1  N   UNL     1       7.220  28.948  55.092  1.00  0.00    -0.325 N 
HETATM    2  C   UNL     1       6.345  27.879  55.156  1.00  0.00     0.239 C 
HETATM    3  O   UNL     1       6.308  27.053  56.065  1.00  0.00    -0.271 OA
HETATM    4  H   UNL     1       7.228  29.448  54.203  1.00  0.00     0.169 HD
ENDROOT
BRANCH   2   5
HETATM    5  C   UNL     1       5.456  27.734  53.918  1.00  0.00     0.227 C 
BRANCH   5   6
HETATM    6  N   UNL     1       4.764  26.455  53.871  1.00  0.00    -0.334 N 
HETATM    7  C   UNL     1       5.309  25.352  53.281  1.00  0.00     0.316 C 
HETATM    8  N   UNL     1       6.646  25.201  53.497  1.00  0.00    -0.339 N 
HETATM    9  O   UNL     1       4.622  24.610  52.594  1.00  0.00    -0.247 OA
HETATM   10  H   UNL     1       6.865  25.215  54.484  1.00  0.00     0.164 HD
HETATM   11  H   UNL     1       3.776  26.508  53.648  1.00  0.00     0.164 HD
BRANCH   8  12
HETATM   12  C   UNL     1       7.404  24.243  52.718  1.00  0.00     0.162 C 
BRANCH  12  13
HETATM   13  C   UNL     1       7.619  23.001  53.547  1.00  0.00    -0.040 A 
HETATM   14  C   UNL     1       7.567  23.041  54.947  1.00  0.00     0.012 A 
HETATM   15  C   UNL     1       7.800  21.881  55.692  1.00  0.00     0.043 A 
HETATM   16  C   UNL     1       8.076  20.686  55.037  1.00  0.00     0.116 A 
HETATM   17  F   UNL     1       8.308  19.580  55.756  1.00  0.00    -0.206 F 
HETATM   18  C   UNL     1       8.121  20.622  53.652  1.00  0.00     0.043 A 
HETATM   19  C   UNL     1       7.891  21.778  52.906  1.00  0.00     0.012 A 
ENDBRANCH  12  13
ENDBRANCH   8  12
ENDBRANCH   5   6
ENDBRANCH   2   5
BRANCH   1  20
HETATM   20  C   UNL     1       8.211  29.329  56.023  1.00  0.00     0.043 A 
HETATM   21  C   UNL     1       8.014  29.743  57.339  1.00  0.00     0.002 A 
HETATM   22  C   UNL     1       6.756  29.946  58.122  1.00  0.00     0.276 C 
HETATM   23  C   UNL     1       9.110  30.092  58.152  1.00  0.00    -0.022 A 
HETATM   24  N   UNL     1       7.155  30.705  59.398  1.00  0.00    -0.063 N 
HETATM   25  H   UNL     1       6.732  30.215  60.192  1.00  0.00     0.280 HD
HETATM   26  C   UNL     1       8.661  30.529  59.505  1.00  0.00     0.274 C 
HETATM   27  C   UNL     1      10.414  30.023  57.691  1.00  0.00     0.009 A 
HETATM   28  C   UNL     1      10.622  29.632  56.375  1.00  0.00     0.003 A 
HETATM   29  C   UNL     1       9.534  29.305  55.551  1.00  0.00     0.030 A 
BRANCH  24  30
HETATM   30  C   UNL     1       6.733  32.149  59.424  1.00  0.00     0.239 C 
BRANCH  30  31
HETATM   31  C   UNL     1       6.040  32.548  60.739  1.00  0.00     0.003 C 
HETATM   32  C   UNL     1       4.827  33.426  60.418  1.00  0.00     0.011 C 
HETATM   33  C   UNL     1       6.968  33.285  61.705  1.00  0.00     0.011 C 
ENDBRANCH  30  31
ENDBRANCH  24  30
ENDBRANCH   1  20
TORSDOF 7
ENDMDL
MODEL 2
REMARK VINA RESULT:      -9.4      3.751     10.102
REMARK  7 active torsions:
REMARK  status: ('A' for Active; 'I' for Inactive)
REMARK    1  A    between atoms: C_2  and  C_3 
REMARK    2  A    between atoms: C_3  and  N_4 
REMARK    3  A    between atoms: C_10  and  N_11 
REMARK       I    between atoms: N_11  and  C_12 
REMARK    4  A    between atoms: C_12  and  C_13 
REMARK    5  A    between atoms: C_13  and  N_14 
REMARK       I    between atoms: N_14  and  C_15 
REMARK       I    between atoms: C_15  and  N_16 
REMARK    6  A    between atoms: N_16  and  C_17 
REMARK    7  A    between atoms: C_17  and  C_18 
ROOT
HETATM    1  N   UNL     1       7.811  27.843  56.629  1.00  0.00    -0.325 N 
HETATM    2  C   UNL     1       7.150  28.876  57.268  1.00  0.00     0.239 C 
HETATM    3  O   UNL     1       6.131  29.422  56.853  1.00  0.00    -0.271 OA
HETATM    4  H   UNL     1       8.722  27.604  57.021  1.00  0.00     0.169 HD
ENDROOT
BRANCH   2   5
HETATM    5  C   UNL     1       7.859  29.376  58.529  1.00  0.00     0.227 C 
BRANCH   5   6
HETATM    6  N   UNL     1       9.074  30.119  58.233  1.00  0.00    -0.334 N 
HETATM    7  C   UNL     1       9.528  31.125  59.035  1.00  0.00     0.316 C 
HETATM    8  N   UNL     1       9.389  30.886  60.369  1.00  0.00    -0.339 N 
HETATM    9  O   UNL     1       9.981  32.151  58.550  1.00  0.00    -0.247 OA
HETATM   10  H   UNL     1       9.813  30.007  60.635  1.00  0.00     0.164 HD
HETATM   11  H   UNL     1       9.193  30.379  57.260  1.00  0.00     0.164 HD
BRANCH   8  12
HETATM   12  C   UNL     1       9.570  31.963  61.323  1.00  0.00     0.162 C 
BRANCH  12  13
HETATM   13  C   UNL     1       8.275  32.178  62.066  1.00  0.00    -0.040 A 
HETATM   14  C   UNL     1       7.038  31.882  61.477  1.00  0.00     0.012 A 
HETATM   15  C   UNL     1       5.852  32.119  62.178  1.00  0.00     0.043 A 
HETATM   16  C   UNL     1       5.905  32.644  63.465  1.00  0.00     0.116 A 
HETATM   17  F   UNL     1       4.766  32.879  64.127  1.00  0.00    -0.206 F 
HETATM   18  C   UNL     1       7.120  32.934  64.070  1.00  0.00     0.043 A 
HETATM   19  C   UNL     1       8.305  32.699  63.374  1.00  0.00     0.012 A 
ENDBRANCH  12  13
ENDBRANCH   8  12
ENDBRANCH   5   6
ENDBRANCH   2   5
BRANCH   1  20
HETATM   20  C   UNL     1       7.471  27.196  55.421  1.00  0.00     0.043 A 
HETATM   21  C   UNL     1       7.321  25.826  55.213  1.00  0.00     0.002 A 
HETATM   22  C   UNL     1       7.508  24.670  56.143  1.00  0.00     0.276 C 
HETATM   23  C   UNL     1       6.974  25.328  53.943  1.00  0.00    -0.022 A 
HETATM   24  N   UNL     1       7.509  23.404  55.271  1.00  0.00    -0.063 N 
HETATM   25  H   UNL     1       6.863  22.734  55.701  1.00  0.00     0.280 HD
HETATM   26  C   UNL     1       6.897  23.839  53.948  1.00  0.00     0.274 C 
HETATM   27  C   UNL     1       6.753  26.167  52.863  1.00  0.00     0.009 A 
HETATM   28  C   UNL     1       6.921  27.533  53.052  1.00  0.00     0.003 A 
HETATM   29  C   UNL     1       7.289  28.036  54.309  1.00  0.00     0.030 A 
BRANCH  24  30
HETATM   30  C   UNL     1       8.857  22.760  55.107  1.00  0.00     0.239 C 
BRANCH  30  31
HETATM   31  C   UNL     1       8.787  21.223  55.067  1.00  0.00     0.003 C 
HETATM   32  C   UNL     1       8.570  20.769  53.621  1.00  0.00     0.011 C 
HETATM   33  C   UNL     1       7.684  20.650  55.957  1.00  0.00     0.011 C 
ENDBRANCH  30  31
ENDBRANCH  24  30
ENDBRANCH   1  20
TORSDOF 7
ENDMDL
MODEL 3
REMARK VINA RESULT:      -9.2      3.662      9.691
REMARK  7 active torsions:
REMARK  status: ('A' for Active; 'I' for Inactive)
REMARK    1  A    between atoms: C_2  and  C_3 
REMARK    2  A    between atoms: C_3  and  N_4 
REMARK    3  A    between atoms: C_10  and  N_11 
REMARK       I    between atoms: N_11  and  C_12 
REMARK    4  A    between atoms: C_12  and  C_13 
REMARK    5  A    between atoms: C_13  and  N_14 
REMARK       I    between atoms: N_14  and  C_15 
REMARK       I    between atoms: C_15  and  N_16 
REMARK    6  A    between atoms: N_16  and  C_17 
REMARK    7  A    between atoms: C_17  and  C_18 
ROOT
HETATM    1  N   UNL     1       7.343  26.413  56.267  1.00  0.00    -0.325 N 
HETATM    2  C   UNL     1       6.145  27.017  56.605  1.00  0.00     0.239 C 
HETATM    3  O   UNL     1       5.047  26.705  56.149  1.00  0.00    -0.271 OA
HETATM    4  H   UNL     1       8.178  26.886  56.614  1.00  0.00     0.169 HD
ENDROOT
BRANCH   2   5
HETATM    5  C   UNL     1       6.300  28.211  57.550  1.00  0.00     0.227 C 
BRANCH   5   6
HETATM    6  N   UNL     1       7.689  28.498  57.869  1.00  0.00    -0.334 N 
HETATM    7  C   UNL     1       8.122  29.753  58.183  1.00  0.00     0.316 C 
HETATM    8  N   UNL     1       7.262  30.465  58.964  1.00  0.00    -0.339 N 
HETATM    9  O   UNL     1       9.183  30.172  57.746  1.00  0.00    -0.247 OA
HETATM   10  H   UNL     1       7.018  29.958  59.804  1.00  0.00     0.164 HD
HETATM   11  H   UNL     1       8.371  28.041  57.273  1.00  0.00     0.164 HD
BRANCH   8  12
HETATM   12  C   UNL     1       7.457  31.890  59.147  1.00  0.00     0.162 C 
BRANCH  12  13
HETATM   13  C   UNL     1       7.567  32.181  60.623  1.00  0.00    -0.040 A 
HETATM   14  C   UNL     1       8.570  31.599  61.409  1.00  0.00     0.012 A 
HETATM   15  C   UNL     1       8.631  31.863  62.780  1.00  0.00     0.043 A 
HETATM   16  C   UNL     1       7.694  32.712  63.360  1.00  0.00     0.116 A 
HETATM   17  F   UNL     1       7.750  32.953  64.676  1.00  0.00    -0.206 F 
HETATM   18  C   UNL     1       6.699  33.308  62.598  1.00  0.00     0.043 A 
HETATM   19  C   UNL     1       6.636  33.046  61.230  1.00  0.00     0.012 A 
ENDBRANCH  12  13
ENDBRANCH   8  12
ENDBRANCH   5   6
ENDBRANCH   2   5
BRANCH   1  20
HETATM   20  C   UNL     1       7.566  25.339  55.379  1.00  0.00     0.043 A 
HETATM   21  C   UNL     1       7.486  25.367  53.988  1.00  0.00     0.002 A 
HETATM   22  C   UNL     1       7.114  26.472  53.052  1.00  0.00     0.276 C 
HETATM   23  C   UNL     1       7.740  24.206  53.233  1.00  0.00    -0.022 A 
HETATM   24  N   UNL     1       6.900  25.824  51.675  1.00  0.00    -0.063 N 
HETATM   25  H   UNL     1       7.427  26.375  50.990  1.00  0.00     0.280 HD
HETATM   26  C   UNL     1       7.569  24.462  51.774  1.00  0.00     0.274 C 
HETATM   27  C   UNL     1       8.093  23.007  53.829  1.00  0.00     0.009 A 
HETATM   28  C   UNL     1       8.155  22.960  55.216  1.00  0.00     0.003 A 
HETATM   29  C   UNL     1       7.881  24.107  55.978  1.00  0.00     0.030 A 
BRANCH  24  30
HETATM   30  C   UNL     1       5.462  25.737  51.242  1.00  0.00     0.239 C 
BRANCH  30  31
HETATM   31  C   UNL     1       5.070  26.836  50.238  1.00  0.00     0.003 C 
HETATM   32  C   UNL     1       4.341  27.958  50.984  1.00  0.00     0.011 C 
HETATM   33  C   UNL     1       4.191  26.319  49.098  1.00  0.00     0.011 C 
ENDBRANCH  30  31
ENDBRANCH  24  30
ENDBRANCH   1  20
TORSDOF 7
ENDMDL
MODEL 4
REMARK VINA RESULT:      -9.1      5.078     11.059
REMARK  7 active torsions:
REMARK  status: ('A' for Active; 'I' for Inactive)
REMARK    1  A    between atoms: C_2  and  C_3 
REMARK    2  A    between atoms: C_3  and  N_4 
REMARK    3  A    between atoms: C_10  and  N_11 
REMARK       I    between atoms: N_11  and  C_12 
REMARK    4  A    between atoms: C_12  and  C_13 
REMARK    5  A    between atoms: C_13  and  N_14 
REMARK       I    between atoms: N_14  and  C_15 
REMARK       I    between atoms: C_15  and  N_16 
REMARK    6  A    between atoms: N_16  and  C_17 
REMARK    7  A    between atoms: C_17  and  C_18 
ROOT
HETATM    1  N   UNL     1       8.020  31.063  59.785  1.00  0.00    -0.325 N 
HETATM    2  C   UNL     1       8.295  30.886  61.128  1.00  0.00     0.239 C 
HETATM    3  O   UNL     1       9.181  30.162  61.576  1.00  0.00    -0.271 OA
HETATM    4  H   UNL     1       7.159  31.572  59.583  1.00  0.00     0.169 HD
ENDROOT
BRANCH   2   5
HETATM    5  C   UNL     1       7.317  31.607  62.059  1.00  0.00     0.227 C 
BRANCH   5   6
HETATM    6  N   UNL     1       5.946  31.564  61.576  1.00  0.00    -0.334 N 
HETATM    7  C   UNL     1       4.916  32.159  62.245  1.00  0.00     0.316 C 
HETATM    8  N   UNL     1       5.226  33.367  62.792  1.00  0.00    -0.339 N 
HETATM    9  O   UNL     1       3.836  31.598  62.349  1.00  0.00    -0.247 OA
HETATM   10  H   UNL     1       5.608  34.000  62.103  1.00  0.00     0.164 HD
HETATM   11  H   UNL     1       5.644  30.665  61.216  1.00  0.00     0.164 HD
BRANCH   8  12
HETATM   12  C   UNL     1       4.330  33.981  63.753  1.00  0.00     0.162 C 
BRANCH  12  13
HETATM   13  C   UNL     1       5.031  34.071  65.085  1.00  0.00    -0.040 A 
HETATM   14  C   UNL     1       6.429  34.022  65.179  1.00  0.00     0.012 A 
HETATM   15  C   UNL     1       7.052  34.077  66.428  1.00  0.00     0.043 A 
HETATM   16  C   UNL     1       6.279  34.188  67.579  1.00  0.00     0.116 A 
HETATM   17  F   UNL     1       6.880  34.230  68.775  1.00  0.00    -0.206 F 
HETATM   18  C   UNL     1       4.894  34.250  67.509  1.00  0.00     0.043 A 
HETATM   19  C   UNL     1       4.269  34.193  66.263  1.00  0.00     0.012 A 
ENDBRANCH  12  13
ENDBRANCH   8  12
ENDBRANCH   5   6
ENDBRANCH   2   5
BRANCH   1  20
HETATM   20  C   UNL     1       8.677  30.495  58.671  1.00  0.00     0.043 A 
HETATM   21  C   UNL     1       8.168  29.543  57.790  1.00  0.00     0.002 A 
HETATM   22  C   UNL     1       6.856  28.827  57.775  1.00  0.00     0.276 C 
HETATM   23  C   UNL     1       8.949  29.071  56.717  1.00  0.00    -0.022 A 
HETATM   24  N   UNL     1       6.995  27.681  56.761  1.00  0.00    -0.063 N 
HETATM   25  H   UNL     1       6.180  27.717  56.141  1.00  0.00     0.280 HD
HETATM   26  C   UNL     1       8.215  28.041  55.927  1.00  0.00     0.274 C 
HETATM   27  C   UNL     1      10.231  29.539  56.483  1.00  0.00     0.009 A 
HETATM   28  C   UNL     1      10.757  30.473  57.366  1.00  0.00     0.003 A 
HETATM   29  C   UNL     1       9.995  30.931  58.452  1.00  0.00     0.030 A 
BRANCH  24  30
HETATM   30  C   UNL     1       7.092  26.311  57.375  1.00  0.00     0.239 C 
BRANCH  30  31
HETATM   31  C   UNL     1       7.914  25.328  56.523  1.00  0.00     0.003 C 
HETATM   32  C   UNL     1       6.962  24.349  55.831  1.00  0.00     0.011 C 
HETATM   33  C   UNL     1       8.950  24.551  57.337  1.00  0.00     0.011 C 
ENDBRANCH  30  31
ENDBRANCH  24  30
ENDBRANCH   1  20
TORSDOF 7
ENDMDL
MODEL 5
REMARK VINA RESULT:      -9.1      2.850      5.195
REMARK  7 active torsions:
REMARK  status: ('A' for Active; 'I' for Inactive)
REMARK    1  A    between atoms: C_2  and  C_3 
REMARK    2  A    between atoms: C_3  and  N_4 
REMARK    3  A    between atoms: C_10  and  N_11 
REMARK       I    between atoms: N_11  and  C_12 
REMARK    4  A    between atoms: C_12  and  C_13 
REMARK    5  A    between atoms: C_13  and  N_14 
REMARK       I    between atoms: N_14  and  C_15 
REMARK       I    between atoms: C_15  and  N_16 
REMARK    6  A    between atoms: N_16  and  C_17 
REMARK    7  A    between atoms: C_17  and  C_18 
ROOT
HETATM    1  N   UNL     1       6.953  30.996  59.811  1.00  0.00    -0.325 N 
HETATM    2  C   UNL     1       6.516  31.596  58.645  1.00  0.00     0.239 C 
HETATM    3  O   UNL     1       6.223  32.784  58.531  1.00  0.00    -0.271 OA
HETATM    4  H   UNL     1       7.006  29.978  59.780  1.00  0.00     0.169 HD
ENDROOT
BRANCH   2   5
HETATM    5  C   UNL     1       6.322  30.619  57.482  1.00  0.00     0.227 C 
BRANCH   5   6
HETATM    6  N   UNL     1       7.332  29.572  57.455  1.00  0.00    -0.334 N 
HETATM    7  C   UNL     1       7.011  28.247  57.481  1.00  0.00     0.316 C 
HETATM    8  N   UNL     1       5.917  27.919  56.738  1.00  0.00    -0.339 N 
HETATM    9  O   UNL     1       7.658  27.463  58.159  1.00  0.00    -0.247 OA
HETATM   10  H   UNL     1       6.008  28.239  55.783  1.00  0.00     0.164 HD
HETATM   11  H   UNL     1       8.140  29.738  58.045  1.00  0.00     0.164 HD
BRANCH   8  12
HETATM   12  C   UNL     1       5.300  26.616  56.888  1.00  0.00     0.162 C 
BRANCH  12  13
HETATM   13  C   UNL     1       5.803  25.710  55.791  1.00  0.00    -0.040 A 
HETATM   14  C   UNL     1       5.395  25.878  54.461  1.00  0.00     0.012 A 
HETATM   15  C   UNL     1       5.854  25.007  53.469  1.00  0.00     0.043 A 
HETATM   16  C   UNL     1       6.722  23.974  53.808  1.00  0.00     0.116 A 
HETATM   17  F   UNL     1       7.150  23.135  52.856  1.00  0.00    -0.206 F 
HETATM   18  C   UNL     1       7.148  23.797  55.117  1.00  0.00     0.043 A 
HETATM   19  C   UNL     1       6.691  24.664  56.108  1.00  0.00     0.012 A 
ENDBRANCH  12  13
ENDBRANCH   8  12
ENDBRANCH   5   6
ENDBRANCH   2   5
BRANCH   1  20
HETATM   20  C   UNL     1       7.171  31.587  61.075  1.00  0.00     0.043 A 
HETATM   21  C   UNL     1       6.205  32.047  61.967  1.00  0.00     0.002 A 
HETATM   22  C   UNL     1       4.715  32.099  61.853  1.00  0.00     0.276 C 
HETATM   23  C   UNL     1       6.581  32.615  63.200  1.00  0.00    -0.022 A 
HETATM   24  N   UNL     1       4.220  32.990  63.004  1.00  0.00    -0.063 N 
HETATM   25  H   UNL     1       3.460  32.490  63.475  1.00  0.00     0.280 HD
HETATM   26  C   UNL     1       5.387  33.061  63.976  1.00  0.00     0.274 C 
HETATM   27  C   UNL     1       7.907  32.724  63.582  1.00  0.00     0.009 A 
HETATM   28  C   UNL     1       8.881  32.289  62.692  1.00  0.00     0.003 A 
HETATM   29  C   UNL     1       8.517  31.743  61.452  1.00  0.00     0.030 A 
BRANCH  24  30
HETATM   30  C   UNL     1       3.733  34.347  62.577  1.00  0.00     0.239 C 
BRANCH  30  31
HETATM   31  C   UNL     1       4.614  35.494  63.105  1.00  0.00     0.003 C 
HETATM   32  C   UNL     1       3.727  36.516  63.823  1.00  0.00     0.011 C 
HETATM   33  C   UNL     1       5.413  36.191  62.003  1.00  0.00     0.011 C 
ENDBRANCH  30  31
ENDBRANCH  24  30
ENDBRANCH   1  20
TORSDOF 7
ENDMDL
MODEL 6
REMARK VINA RESULT:      -9.0      1.992      3.606
REMARK  7 active torsions:
REMARK  status: ('A' for Active; 'I' for Inactive)
REMARK    1  A    between atoms: C_2  and  C_3 
REMARK    2  A    between atoms: C_3  and  N_4 
REMARK    3  A    between atoms: C_10  and  N_11 
REMARK       I    between atoms: N_11  and  C_12 
REMARK    4  A    between atoms: C_12  and  C_13 
REMARK    5  A    between atoms: C_13  and  N_14 
REMARK       I    between atoms: N_14  and  C_15 
REMARK       I    between atoms: C_15  and  N_16 
REMARK    6  A    between atoms: N_16  and  C_17 
REMARK    7  A    between atoms: C_17  and  C_18 
ROOT
HETATM    1  N   UNL     1       7.501  30.889  58.464  1.00  0.00    -0.325 N 
HETATM    2  C   UNL     1       7.595  29.626  57.910  1.00  0.00     0.239 C 
HETATM    3  O   UNL     1       7.973  28.621  58.507  1.00  0.00    -0.271 OA
HETATM    4  H   UNL     1       7.319  31.641  57.799  1.00  0.00     0.169 HD
ENDROOT
BRANCH   2   5
HETATM    5  C   UNL     1       7.273  29.583  56.413  1.00  0.00     0.227 C 
BRANCH   5   6
HETATM    6  N   UNL     1       6.142  28.722  56.107  1.00  0.00    -0.334 N 
HETATM    7  C   UNL     1       6.137  27.875  55.038  1.00  0.00     0.316 C 
HETATM    8  N   UNL     1       7.328  27.252  54.810  1.00  0.00    -0.339 N 
HETATM    9  O   UNL     1       5.136  27.745  54.350  1.00  0.00    -0.247 OA
HETATM   10  H   UNL     1       7.660  26.773  55.636  1.00  0.00     0.164 HD
HETATM   11  H   UNL     1       5.231  29.159  56.199  1.00  0.00     0.164 HD
BRANCH   8  12
HETATM   12  C   UNL     1       7.551  26.545  53.564  1.00  0.00     0.162 C 
BRANCH  12  13
HETATM   13  C   UNL     1       7.554  25.062  53.839  1.00  0.00    -0.040 A 
HETATM   14  C   UNL     1       7.402  24.561  55.139  1.00  0.00     0.012 A 
HETATM   15  C   UNL     1       7.439  23.183  55.370  1.00  0.00     0.043 A 
HETATM   16  C   UNL     1       7.620  22.311  54.302  1.00  0.00     0.116 A 
HETATM   17  F   UNL     1       7.665  20.992  54.530  1.00  0.00    -0.206 F 
HETATM   18  C   UNL     1       7.762  22.785  53.006  1.00  0.00     0.043 A 
HETATM   19  C   UNL     1       7.727  24.160  52.772  1.00  0.00     0.012 A 
ENDBRANCH  12  13
ENDBRANCH   8  12
ENDBRANCH   5   6
ENDBRANCH   2   5
BRANCH   1  20
HETATM   20  C   UNL     1       7.786  31.291  59.787  1.00  0.00     0.043 A 
HETATM   21  C   UNL     1       6.912  31.896  60.690  1.00  0.00     0.002 A 
HETATM   22  C   UNL     1       5.489  32.328  60.533  1.00  0.00     0.276 C 
HETATM   23  C   UNL     1       7.345  32.239  61.985  1.00  0.00    -0.022 A 
HETATM   24  N   UNL     1       5.164  33.207  61.750  1.00  0.00    -0.063 N 
HETATM   25  H   UNL     1       4.278  32.873  62.144  1.00  0.00     0.280 HD
HETATM   26  C   UNL     1       6.256  32.897  62.762  1.00  0.00     0.274 C 
HETATM   27  C   UNL     1       8.634  31.979  62.419  1.00  0.00     0.009 A 
HETATM   28  C   UNL     1       9.521  31.396  61.522  1.00  0.00     0.003 A 
HETATM   29  C   UNL     1       9.104  31.072  60.222  1.00  0.00     0.030 A 
BRANCH  24  30
HETATM   30  C   UNL     1       5.049  34.676  61.448  1.00  0.00     0.239 C 
BRANCH  30  31
HETATM   31  C   UNL     1       5.181  35.559  62.701  1.00  0.00     0.003 C 
HETATM   32  C   UNL     1       3.797  35.739  63.333  1.00  0.00     0.011 C 
HETATM   33  C   UNL     1       5.794  36.929  62.407  1.00  0.00     0.011 C 
ENDBRANCH  30  31
ENDBRANCH  24  30
ENDBRANCH   1  20
TORSDOF 7
ENDMDL
MODEL 7
REMARK VINA RESULT:      -9.0      3.718     10.000
REMARK  7 active torsions:
REMARK  status: ('A' for Active; 'I' for Inactive)
REMARK    1  A    between atoms: C_2  and  C_3 
REMARK    2  A    between atoms: C_3  and  N_4 
REMARK    3  A    between atoms: C_10  and  N_11 
REMARK       I    between atoms: N_11  and  C_12 
REMARK    4  A    between atoms: C_12  and  C_13 
REMARK    5  A    between atoms: C_13  and  N_14 
REMARK       I    between atoms: N_14  and  C_15 
REMARK       I    between atoms: C_15  and  N_16 
REMARK    6  A    between atoms: N_16  and  C_17 
REMARK    7  A    between atoms: C_17  and  C_18 
ROOT
HETATM    1  N   UNL     1       6.328  29.032  56.605  1.00  0.00    -0.325 N 
HETATM    2  C   UNL     1       7.625  29.500  56.706  1.00  0.00     0.239 C 
HETATM    3  O   UNL     1       8.486  29.380  55.838  1.00  0.00    -0.271 OA
HETATM    4  H   UNL     1       5.785  29.074  57.468  1.00  0.00     0.169 HD
ENDROOT
BRANCH   2   5
HETATM    5  C   UNL     1       7.955  30.119  58.067  1.00  0.00     0.227 C 
BRANCH   5   6
HETATM    6  N   UNL     1       9.324  30.605  58.146  1.00  0.00    -0.334 N 
HETATM    7  C   UNL     1       9.778  31.340  59.202  1.00  0.00     0.316 C 
HETATM    8  N   UNL     1       9.312  30.928  60.414  1.00  0.00    -0.339 N 
HETATM    9  O   UNL     1      10.511  32.301  59.022  1.00  0.00    -0.247 OA
HETATM   10  H   UNL     1       9.494  29.945  60.567  1.00  0.00     0.164 HD
HETATM   11  H   UNL     1       9.697  30.984  57.282  1.00  0.00     0.164 HD
BRANCH   8  12
HETATM   12  C   UNL     1       9.486  31.768  61.582  1.00  0.00     0.162 C 
BRANCH  12  13
HETATM   13  C   UNL     1       8.127  32.125  62.132  1.00  0.00    -0.040 A 
HETATM   14  C   UNL     1       6.971  32.020  61.345  1.00  0.00     0.012 A 
HETATM   15  C   UNL     1       5.729  32.385  61.870  1.00  0.00     0.043 A 
HETATM   16  C   UNL     1       5.643  32.848  63.179  1.00  0.00     0.116 A 
HETATM   17  F   UNL     1       4.451  33.207  63.673  1.00  0.00    -0.206 F 
HETATM   18  C   UNL     1       6.772  32.949  63.978  1.00  0.00     0.043 A 
HETATM   19  C   UNL     1       8.014  32.587  63.457  1.00  0.00     0.012 A 
ENDBRANCH  12  13
ENDBRANCH   8  12
ENDBRANCH   5   6
ENDBRANCH   2   5
BRANCH   1  20
HETATM   20  C   UNL     1       5.719  28.357  55.525  1.00  0.00     0.043 A 
HETATM   21  C   UNL     1       5.718  26.985  55.283  1.00  0.00     0.002 A 
HETATM   22  C   UNL     1       6.368  25.861  56.026  1.00  0.00     0.276 C 
HETATM   23  C   UNL     1       5.060  26.456  54.156  1.00  0.00    -0.022 A 
HETATM   24  N   UNL     1       6.279  24.626  55.114  1.00  0.00    -0.063 N 
HETATM   25  H   UNL     1       5.915  23.852  55.679  1.00  0.00     0.280 HD
HETATM   26  C   UNL     1       5.215  24.975  54.084  1.00  0.00     0.274 C 
HETATM   27  C   UNL     1       4.379  27.264  53.260  1.00  0.00     0.009 A 
HETATM   28  C   UNL     1       4.390  28.636  53.479  1.00  0.00     0.003 A 
HETATM   29  C   UNL     1       5.063  29.173  54.587  1.00  0.00     0.030 A 
BRANCH  24  30
HETATM   30  C   UNL     1       7.584  24.216  54.489  1.00  0.00     0.239 C 
BRANCH  30  31
HETATM   31  C   UNL     1       7.429  23.743  53.032  1.00  0.00     0.003 C 
HETATM   32  C   UNL     1       8.055  22.352  52.889  1.00  0.00     0.011 C 
HETATM   33  C   UNL     1       8.062  24.699  52.021  1.00  0.00     0.011 C 
ENDBRANCH  30  31
ENDBRANCH  24  30
ENDBRANCH   1  20
TORSDOF 7
ENDMDL
MODEL 8
REMARK VINA RESULT:      -9.0      2.653      5.332
REMARK  7 active torsions:
REMARK  status: ('A' for Active; 'I' for Inactive)
REMARK    1  A    between atoms: C_2  and  C_3 
REMARK    2  A    between atoms: C_3  and  N_4 
REMARK    3  A    between atoms: C_10  and  N_11 
REMARK       I    between atoms: N_11  and  C_12 
REMARK    4  A    between atoms: C_12  and  C_13 
REMARK    5  A    between atoms: C_13  and  N_14 
REMARK       I    between atoms: N_14  and  C_15 
REMARK       I    between atoms: C_15  and  N_16 
REMARK    6  A    between atoms: N_16  and  C_17 
REMARK    7  A    between atoms: C_17  and  C_18 
ROOT
HETATM    1  N   UNL     1       7.119  31.078  60.518  1.00  0.00    -0.325 N 
HETATM    2  C   UNL     1       6.959  31.539  59.225  1.00  0.00     0.239 C 
HETATM    3  O   UNL     1       6.634  32.684  58.921  1.00  0.00    -0.271 OA
HETATM    4  H   UNL     1       7.240  30.068  60.605  1.00  0.00     0.169 HD
ENDROOT
BRANCH   2   5
HETATM    5  C   UNL     1       7.129  30.455  58.157  1.00  0.00     0.227 C 
BRANCH   5   6
HETATM    6  N   UNL     1       5.976  29.574  58.064  1.00  0.00    -0.334 N 
HETATM    7  C   UNL     1       5.853  28.633  57.083  1.00  0.00     0.316 C 
HETATM    8  N   UNL     1       7.013  27.990  56.773  1.00  0.00    -0.339 N 
HETATM    9  O   UNL     1       4.778  28.446  56.532  1.00  0.00    -0.247 OA
HETATM   10  H   UNL     1       7.444  27.586  57.593  1.00  0.00     0.164 HD
HETATM   11  H   UNL     1       5.079  30.020  58.223  1.00  0.00     0.164 HD
BRANCH   8  12
HETATM   12  C   UNL     1       7.094  27.174  55.578  1.00  0.00     0.162 C 
BRANCH  12  13
HETATM   13  C   UNL     1       7.494  25.773  55.970  1.00  0.00    -0.040 A 
HETATM   14  C   UNL     1       7.028  24.656  55.264  1.00  0.00     0.012 A 
HETATM   15  C   UNL     1       7.390  23.368  55.668  1.00  0.00     0.043 A 
HETATM   16  C   UNL     1       8.222  23.200  56.770  1.00  0.00     0.116 A 
HETATM   17  F   UNL     1       8.558  21.963  57.159  1.00  0.00    -0.206 F 
HETATM   18  C   UNL     1       8.705  24.293  57.476  1.00  0.00     0.043 A 
HETATM   19  C   UNL     1       8.344  25.579  57.076  1.00  0.00     0.012 A 
ENDBRANCH  12  13
ENDBRANCH   8  12
ENDBRANCH   5   6
ENDBRANCH   2   5
BRANCH   1  20
HETATM   20  C   UNL     1       6.971  31.788  61.729  1.00  0.00     0.043 A 
HETATM   21  C   UNL     1       5.784  32.249  62.294  1.00  0.00     0.002 A 
HETATM   22  C   UNL     1       4.374  32.181  61.800  1.00  0.00     0.276 C 
HETATM   23  C   UNL     1       5.796  32.946  63.518  1.00  0.00    -0.022 A 
HETATM   24  N   UNL     1       3.553  33.128  62.689  1.00  0.00    -0.063 N 
HETATM   25  H   UNL     1       2.722  32.615  62.999  1.00  0.00     0.280 HD
HETATM   26  C   UNL     1       4.422  33.367  63.915  1.00  0.00     0.274 C 
HETATM   27  C   UNL     1       6.970  33.185  64.213  1.00  0.00     0.009 A 
HETATM   28  C   UNL     1       8.163  32.749  63.650  1.00  0.00     0.003 A 
HETATM   29  C   UNL     1       8.162  32.074  62.419  1.00  0.00     0.030 A 
BRANCH  24  30
HETATM   30  C   UNL     1       3.128  34.405  62.018  1.00  0.00     0.239 C 
BRANCH  30  31
HETATM   31  C   UNL     1       4.195  34.963  61.059  1.00  0.00     0.003 C 
HETATM   32  C   UNL     1       4.724  36.288  61.616  1.00  0.00     0.011 C 
HETATM   33  C   UNL     1       3.671  35.175  59.638  1.00  0.00     0.011 C 
ENDBRANCH  30  31
ENDBRANCH  24  30
ENDBRANCH   1  20
TORSDOF 7
ENDMDL
MODEL 9
REMARK VINA RESULT:      -8.9      4.118     10.295
REMARK  7 active torsions:
REMARK  status: ('A' for Active; 'I' for Inactive)
REMARK    1  A    between atoms: C_2  and  C_3 
REMARK    2  A    between atoms: C_3  and  N_4 
REMARK    3  A    between atoms: C_10  and  N_11 
REMARK       I    between atoms: N_11  and  C_12 
REMARK    4  A    between atoms: C_12  and  C_13 
REMARK    5  A    between atoms: C_13  and  N_14 
REMARK       I    between atoms: N_14  and  C_15 
REMARK       I    between atoms: C_15  and  N_16 
REMARK    6  A    between atoms: N_16  and  C_17 
REMARK    7  A    between atoms: C_17  and  C_18 
ROOT
HETATM    1  N   UNL     1       7.246  27.418  57.181  1.00  0.00    -0.325 N 
HETATM    2  C   UNL     1       8.134  28.401  57.578  1.00  0.00     0.239 C 
HETATM    3  O   UNL     1       9.303  28.484  57.210  1.00  0.00    -0.271 OA
HETATM    4  H   UNL     1       6.363  27.400  57.692  1.00  0.00     0.169 HD
ENDROOT
BRANCH   2   5
HETATM    5  C   UNL     1       7.563  29.362  58.625  1.00  0.00     0.227 C 
BRANCH   5   6
HETATM    6  N   UNL     1       8.546  30.325  59.097  1.00  0.00    -0.334 N 
HETATM    7  C   UNL     1       8.194  31.556  59.569  1.00  0.00     0.316 C 
HETATM    8  N   UNL     1       7.065  31.563  60.332  1.00  0.00    -0.339 N 
HETATM    9  O   UNL     1       8.847  32.545  59.273  1.00  0.00    -0.247 OA
HETATM   10  H   UNL     1       7.128  30.901  61.093  1.00  0.00     0.164 HD
HETATM   11  H   UNL     1       9.380  30.405  58.525  1.00  0.00     0.164 HD
BRANCH   8  12
HETATM   12  C   UNL     1       6.423  32.819  60.668  1.00  0.00     0.162 C 
BRANCH  12  13
HETATM   13  C   UNL     1       6.497  33.019  62.161  1.00  0.00    -0.040 A 
HETATM   14  C   UNL     1       5.373  33.414  62.901  1.00  0.00     0.012 A 
HETATM   15  C   UNL     1       5.476  33.622  64.279  1.00  0.00     0.043 A 
HETATM   16  C   UNL     1       6.698  33.428  64.915  1.00  0.00     0.116 A 
HETATM   17  F   UNL     1       6.794  33.638  66.234  1.00  0.00    -0.206 F 
HETATM   18  C   UNL     1       7.820  33.025  64.204  1.00  0.00     0.043 A 
HETATM   19  C   UNL     1       7.720  32.818  62.828  1.00  0.00     0.012 A 
ENDBRANCH  12  13
ENDBRANCH   8  12
ENDBRANCH   5   6
ENDBRANCH   2   5
BRANCH   1  20
HETATM   20  C   UNL     1       7.464  26.347  56.288  1.00  0.00     0.043 A 
HETATM   21  C   UNL     1       7.518  26.408  54.897  1.00  0.00     0.002 A 
HETATM   22  C   UNL     1       7.327  27.559  53.961  1.00  0.00     0.276 C 
HETATM   23  C   UNL     1       7.747  25.245  54.136  1.00  0.00    -0.022 A 
HETATM   24  N   UNL     1       7.192  26.959  52.553  1.00  0.00    -0.063 N 
HETATM   25  H   UNL     1       7.824  27.477  51.935  1.00  0.00     0.280 HD
HETATM   26  C   UNL     1       7.736  25.544  52.675  1.00  0.00     0.274 C 
HETATM   27  C   UNL     1       7.943  24.009  54.730  1.00  0.00     0.009 A 
HETATM   28  C   UNL     1       7.870  23.931  56.115  1.00  0.00     0.003 A 
HETATM   29  C   UNL     1       7.619  25.081  56.879  1.00  0.00     0.030 A 
BRANCH  24  30
HETATM   30  C   UNL     1       5.799  27.001  51.986  1.00  0.00     0.239 C 
BRANCH  30  31
HETATM   31  C   UNL     1       5.433  25.731  51.198  1.00  0.00     0.003 C 
HETATM   32  C   UNL     1       4.739  26.134  49.894  1.00  0.00     0.011 C 
HETATM   33  C   UNL     1       4.534  24.776  51.985  1.00  0.00     0.011 C 
ENDBRANCH  30  31
ENDBRANCH  24  30
ENDBRANCH   1  20
TORSDOF 7
ENDMDL
MODEL 10
REMARK VINA RESULT:      -8.9      2.450      3.715
REMARK  7 active torsions:
REMARK  status: ('A' for Active; 'I' for Inactive)
REMARK    1  A    between atoms: C_2  and  C_3 
REMARK    2  A    between atoms: C_3  and  N_4 
REMARK    3  A    between atoms: C_10  and  N_11 
REMARK       I    between atoms: N_11  and  C_12 
REMARK    4  A    between atoms: C_12  and  C_13 
REMARK    5  A    between atoms: C_13  and  N_14 
REMARK       I    between atoms: N_14  and  C_15 
REMARK       I    between atoms: C_15  and  N_16 
REMARK    6  A    between atoms: N_16  and  C_17 
REMARK    7  A    between atoms: C_17  and  C_18 
ROOT
HETATM    1  N   UNL     1       6.107  29.199  56.919  1.00  0.00    -0.325 N 
HETATM    2  C   UNL     1       6.158  28.813  55.592  1.00  0.00     0.239 C 
HETATM    3  O   UNL     1       5.598  29.397  54.667  1.00  0.00    -0.271 OA
HETATM    4  H   UNL     1       6.494  28.526  57.580  1.00  0.00     0.169 HD
ENDROOT
BRANCH   2   5
HETATM    5  C   UNL     1       6.911  27.501  55.359  1.00  0.00     0.227 C 
BRANCH   5   6
HETATM    6  N   UNL     1       7.859  27.202  56.421  1.00  0.00    -0.334 N 
HETATM    7  C   UNL     1       7.952  25.965  56.990  1.00  0.00     0.316 C 
HETATM    8  N   UNL     1       7.829  24.932  56.110  1.00  0.00    -0.339 N 
HETATM    9  O   UNL     1       8.097  25.844  58.197  1.00  0.00    -0.247 OA
HETATM   10  H   UNL     1       8.485  25.017  55.344  1.00  0.00     0.164 HD
HETATM   11  H   UNL     1       7.940  27.914  57.139  1.00  0.00     0.164 HD
BRANCH   8  12
HETATM   12  C   UNL     1       7.634  23.581  56.598  1.00  0.00     0.162 C 
BRANCH  12  13
HETATM   13  C   UNL     1       7.779  22.620  55.445  1.00  0.00    -0.040 A 
HETATM   14  C   UNL     1       7.926  21.242  55.657  1.00  0.00     0.012 A 
HETATM   15  C   UNL     1       8.088  20.377  54.571  1.00  0.00     0.043 A 
HETATM   16  C   UNL     1       8.098  20.889  53.278  1.00  0.00     0.116 A 
HETATM   17  F   UNL     1       8.265  20.058  52.242  1.00  0.00    -0.206 F 
HETATM   18  C   UNL     1       7.943  22.249  53.045  1.00  0.00     0.043 A 
HETATM   19  C   UNL     1       7.781  23.114  54.126  1.00  0.00     0.012 A 
ENDBRANCH  12  13
ENDBRANCH   8  12
ENDBRANCH   5   6
ENDBRANCH   2   5
BRANCH   1  20
HETATM   20  C   UNL     1       5.447  30.312  57.485  1.00  0.00     0.043 A 
HETATM   21  C   UNL     1       5.943  31.179  58.457  1.00  0.00     0.002 A 
HETATM   22  C   UNL     1       7.242  31.177  59.198  1.00  0.00     0.276 C 
HETATM   23  C   UNL     1       5.161  32.253  58.925  1.00  0.00    -0.022 A 
HETATM   24  N   UNL     1       7.087  32.180  60.352  1.00  0.00    -0.063 N 
HETATM   25  H   UNL     1       7.907  32.794  60.338  1.00  0.00     0.280 HD
HETATM   26  C   UNL     1       5.880  33.026  59.978  1.00  0.00     0.274 C 
HETATM   27  C   UNL     1       3.890  32.501  58.434  1.00  0.00     0.009 A 
HETATM   28  C   UNL     1       3.376  31.632  57.481  1.00  0.00     0.003 A 
HETATM   29  C   UNL     1       4.139  30.545  57.026  1.00  0.00     0.030 A 
BRANCH  24  30
HETATM   30  C   UNL     1       6.959  31.552  61.713  1.00  0.00     0.239 C 
BRANCH  30  31
HETATM   31  C   UNL     1       8.233  31.700  62.565  1.00  0.00     0.003 C 
HETATM   32  C   UNL     1       8.006  32.786  63.620  1.00  0.00     0.011 C 
HETATM   33  C   UNL     1       9.472  32.039  61.735  1.00  0.00     0.011 C 
ENDBRANCH  30  31
ENDBRANCH  24  30
ENDBRANCH   1  20
TORSDOF 7
ENDMDL
