MODEL 1
REMARK VINA RESULT:      -8.7      0.000      0.000
REMARK  4 active torsions:
REMARK  status: ('A' for Active; 'I' for Inactive)
REMARK    1  A    between atoms: C_3  and  N_4 
REMARK       I    between atoms: N_4  and  C_5 
REMARK    2  A    between atoms: C_5  and  C_6 
REMARK    3  A    between atoms: C_7  and  C_8 
REMARK    4  A    between atoms: C_15  and  C_16 
ROOT
HETATM    1  C   UNL     1       7.742  24.950  52.243  1.00  0.00     0.003 A 
HETATM    2  C   UNL     1       7.325  25.919  53.157  1.00  0.00     0.029 A 
HETATM    3  C   UNL     1       7.178  25.598  54.504  1.00  0.00     0.035 A 
HETATM    4  C   UNL     1       7.468  24.291  54.927  1.00  0.00     0.043 A 
HETATM    5  C   UNL     1       7.881  23.301  54.019  1.00  0.00    -0.006 A 
HETATM    6  C   UNL     1       8.012  23.648  52.669  1.00  0.00     0.014 A 
ENDROOT
BRANCH   3   7
HETATM    7  N   UNL     1       6.726  26.510  55.483  1.00  0.00    -0.324 N 
HETATM    8  C   UNL     1       7.307  26.775  56.705  1.00  0.00     0.245 C 
HETATM    9  O   UNL     1       8.305  26.270  57.199  1.00  0.00    -0.268 OA
HETATM   10  H   UNL     1       5.894  27.036  55.254  1.00  0.00     0.169 HD
BRANCH   8  11
HETATM   11  C   UNL     1       6.631  27.908  57.387  1.00  0.00     0.077 C 
HETATM   12  C   UNL     1       7.155  29.130  57.551  1.00  0.00     0.042 C 
BRANCH  12  13
HETATM   13  C   UNL     1       8.487  29.478  57.202  1.00  0.00     0.075 A 
HETATM   14  O   UNL     1       8.982  29.456  55.917  1.00  0.00    -0.323 OA
HETATM   15  C   UNL     1      10.285  29.825  55.953  1.00  0.00     0.142 A 
HETATM   16  C   UNL     1      10.675  30.077  57.242  1.00  0.00     0.027 A 
HETATM   17  C   UNL     1       9.531  29.846  58.043  1.00  0.00     0.039 A 
ENDBRANCH  12  13
ENDBRANCH   8  11
ENDBRANCH   3   7
BRANCH   5  18
HETATM   18  C   UNL     1       8.139  21.935  54.482  1.00  0.00     0.061 A 
HETATM   19  N   UNL     1       8.549  20.909  53.664  1.00  0.00    -0.278 N 
HETATM   20  H   UNL     1       8.740  20.948  52.670  1.00  0.00     0.189 HD
HETATM   21  N   UNL     1       8.716  19.733  54.293  1.00  0.00    -0.187 NA
HETATM   22  C   UNL     1       8.416  20.012  55.561  1.00  0.00     0.141 A 
HETATM   23  C   UNL     1       8.059  21.360  55.738  1.00  0.00     0.053 A 
ENDBRANCH   5  18
TORSDOF 4
ENDMDL
MODEL 2
REMARK VINA RESULT:      -8.5      2.647      4.535
REMARK  4 active torsions:
REMARK  status: ('A' for Active; 'I' for Inactive)
REMARK    1  A    between atoms: C_3  and  N_4 
REMARK       I    between atoms: N_4  and  C_5 
REMARK    2  A    between atoms: C_5  and  C_6 
REMARK    3  A    between atoms: C_7  and  C_8 
REMARK    4  A    between atoms: C_15  and  C_16 
ROOT
HETATM    1  C   UNL     1       8.733  24.498  57.435  1.00  0.00     0.003 A 
HETATM    2  C   UNL     1       7.786  25.492  57.181  1.00  0.00     0.029 A 
HETATM    3  C   UNL     1       6.934  25.388  56.084  1.00  0.00     0.035 A 
HETATM    4  C   UNL     1       7.035  24.262  55.250  1.00  0.00     0.043 A 
HETATM    5  C   UNL     1       7.988  23.256  55.487  1.00  0.00    -0.006 A 
HETATM    6  C   UNL     1       8.838  23.391  56.591  1.00  0.00     0.014 A 
ENDROOT
BRANCH   3   7
HETATM    7  N   UNL     1       5.977  26.366  55.737  1.00  0.00    -0.324 N 
HETATM    8  C   UNL     1       6.221  27.638  55.262  1.00  0.00     0.245 C 
HETATM    9  O   UNL     1       7.297  28.184  55.066  1.00  0.00    -0.268 OA
HETATM   10  H   UNL     1       5.007  26.097  55.834  1.00  0.00     0.169 HD
BRANCH   8  11
HETATM   11  C   UNL     1       4.960  28.312  54.862  1.00  0.00     0.077 C 
HETATM   12  C   UNL     1       4.217  27.984  53.796  1.00  0.00     0.042 C 
BRANCH  12  13
HETATM   13  C   UNL     1       4.600  27.019  52.826  1.00  0.00     0.075 A 
HETATM   14  O   UNL     1       4.610  25.660  53.047  1.00  0.00    -0.323 OA
HETATM   15  C   UNL     1       5.044  25.046  51.920  1.00  0.00     0.142 A 
HETATM   16  C   UNL     1       5.342  25.972  50.955  1.00  0.00     0.027 A 
HETATM   17  C   UNL     1       5.069  27.233  51.535  1.00  0.00     0.039 A 
ENDBRANCH  12  13
ENDBRANCH   8  11
ENDBRANCH   3   7
BRANCH   5  18
HETATM   18  C   UNL     1       8.097  22.113  54.579  1.00  0.00     0.061 A 
HETATM   19  N   UNL     1       8.495  20.856  54.967  1.00  0.00    -0.278 N 
HETATM   20  H   UNL     1       8.744  20.545  55.898  1.00  0.00     0.189 HD
HETATM   21  N   UNL     1       8.537  19.955  53.970  1.00  0.00    -0.187 NA
HETATM   22  C   UNL     1       8.141  20.651  52.904  1.00  0.00     0.141 A 
HETATM   23  C   UNL     1       7.849  21.989  53.222  1.00  0.00     0.053 A 
ENDBRANCH   5  18
TORSDOF 4
ENDMDL
MODEL 3
REMARK VINA RESULT:      -8.4      3.077      7.928
REMARK  4 active torsions:
REMARK  status: ('A' for Active; 'I' for Inactive)
REMARK    1  A    between atoms: C_3  and  N_4 
REMARK       I    between atoms: N_4  and  C_5 
REMARK    2  A    between atoms: C_5  and  C_6 
REMARK    3  A    between atoms: C_7  and  C_8 
REMARK    4  A    between atoms: C_15  and  C_16 
ROOT
HETATM    1  C   UNL     1      10.151  29.918  56.917  1.00  0.00     0.003 A 
HETATM    2  C   UNL     1       9.251  28.915  56.550  1.00  0.00     0.029 A 
HETATM    3  C   UNL     1       8.187  28.585  57.385  1.00  0.00     0.035 A 
HETATM    4  C   UNL     1       8.027  29.287  58.592  1.00  0.00     0.043 A 
HETATM    5  C   UNL     1       8.928  30.293  58.980  1.00  0.00    -0.006 A 
HETATM    6  C   UNL     1       9.994  30.598  58.126  1.00  0.00     0.014 A 
ENDROOT
BRANCH   3   7
HETATM    7  N   UNL     1       7.258  27.560  57.105  1.00  0.00    -0.324 N 
HETATM    8  C   UNL     1       7.388  26.217  57.390  1.00  0.00     0.245 C 
HETATM    9  O   UNL     1       8.327  25.638  57.916  1.00  0.00    -0.268 OA
HETATM   10  H   UNL     1       6.397  27.847  56.660  1.00  0.00     0.169 HD
BRANCH   8  11
HETATM   11  C   UNL     1       6.136  25.479  57.086  1.00  0.00     0.077 C 
HETATM   12  C   UNL     1       5.861  24.879  55.919  1.00  0.00     0.042 C 
BRANCH  12  13
HETATM   13  C   UNL     1       6.682  24.971  54.765  1.00  0.00     0.075 A 
HETATM   14  O   UNL     1       7.043  26.155  54.162  1.00  0.00    -0.323 OA
HETATM   15  C   UNL     1       7.809  25.870  53.081  1.00  0.00     0.142 A 
HETATM   16  C   UNL     1       7.952  24.515  52.940  1.00  0.00     0.027 A 
HETATM   17  C   UNL     1       7.225  23.938  54.008  1.00  0.00     0.039 A 
ENDBRANCH  12  13
ENDBRANCH   8  11
ENDBRANCH   3   7
BRANCH   5  18
HETATM   18  C   UNL     1       8.759  30.981  60.262  1.00  0.00     0.061 A 
HETATM   19  N   UNL     1       7.680  30.804  61.095  1.00  0.00    -0.278 N 
HETATM   20  H   UNL     1       6.888  30.187  60.960  1.00  0.00     0.189 HD
HETATM   21  N   UNL     1       7.719  31.543  62.217  1.00  0.00    -0.187 NA
HETATM   22  C   UNL     1       8.867  32.211  62.110  1.00  0.00     0.141 A 
HETATM   23  C   UNL     1       9.556  31.898  60.925  1.00  0.00     0.053 A 
ENDBRANCH   5  18
TORSDOF 4
ENDMDL
MODEL 4
REMARK VINA RESULT:      -8.3      5.590      9.527
REMARK  4 active torsions:
REMARK  status: ('A' for Active; 'I' for Inactive)
REMARK    1  A    between atoms: C_3  and  N_4 
REMARK       I    between atoms: N_4  and  C_5 
REMARK    2  A    between atoms: C_5  and  C_6 
REMARK    3  A    between atoms: C_7  and  C_8 
REMARK    4  A    between atoms: C_15  and  C_16 
ROOT
HETATM    1  C   UNL     1       8.357  32.116  62.669  1.00  0.00     0.003 A 
HETATM    2  C   UNL     1       9.162  31.500  61.708  1.00  0.00     0.029 A 
HETATM    3  C   UNL     1       8.666  31.248  60.432  1.00  0.00     0.035 A 
HETATM    4  C   UNL     1       7.351  31.635  60.125  1.00  0.00     0.043 A 
HETATM    5  C   UNL     1       6.525  32.248  61.083  1.00  0.00    -0.006 A 
HETATM    6  C   UNL     1       7.046  32.482  62.361  1.00  0.00     0.014 A 
ENDROOT
BRANCH   3   7
HETATM    7  N   UNL     1       9.402  30.597  59.418  1.00  0.00    -0.324 N 
HETATM    8  C   UNL     1      10.122  31.189  58.402  1.00  0.00     0.245 C 
HETATM    9  O   UNL     1      10.255  32.379  58.156  1.00  0.00    -0.268 OA
HETATM   10  H   UNL     1       9.413  29.587  59.453  1.00  0.00     0.169 HD
BRANCH   8  11
HETATM   11  C   UNL     1      10.889  30.179  57.629  1.00  0.00     0.077 C 
HETATM   12  C   UNL     1      10.346  29.182  56.917  1.00  0.00     0.042 C 
BRANCH  12  13
HETATM   13  C   UNL     1       8.959  28.877  56.903  1.00  0.00     0.075 A 
HETATM   14  O   UNL     1       8.306  28.192  57.904  1.00  0.00    -0.323 OA
HETATM   15  C   UNL     1       7.003  28.063  57.555  1.00  0.00     0.142 A 
HETATM   16  C   UNL     1       6.776  28.634  56.330  1.00  0.00     0.027 A 
HETATM   17  C   UNL     1       8.026  29.145  55.907  1.00  0.00     0.039 A 
ENDBRANCH  12  13
ENDBRANCH   8  11
ENDBRANCH   3   7
BRANCH   5  18
HETATM   18  C   UNL     1       5.145  32.607  60.747  1.00  0.00     0.061 A 
HETATM   19  N   UNL     1       4.278  31.783  60.068  1.00  0.00    -0.278 N 
HETATM   20  H   UNL     1       4.453  30.844  59.731  1.00  0.00     0.189 HD
HETATM   21  N   UNL     1       3.063  32.314  59.854  1.00  0.00    -0.187 NA
HETATM   22  C   UNL     1       3.143  33.516  60.423  1.00  0.00     0.141 A 
HETATM   23  C   UNL     1       4.405  33.749  60.998  1.00  0.00     0.053 A 
ENDBRANCH   5  18
TORSDOF 4
ENDMDL
MODEL 5
REMARK VINA RESULT:      -8.2      1.781      2.610
REMARK  4 active torsions:
REMARK  status: ('A' for Active; 'I' for Inactive)
REMARK    1  A    between atoms: C_3  and  N_4 
REMARK       I    between atoms: N_4  and  C_5 
REMARK    2  A    between atoms: C_5  and  C_6 
REMARK    3  A    between atoms: C_7  and  C_8 
REMARK    4  A    between atoms: C_15  and  C_16 
ROOT
HETATM    1  C   UNL     1       8.875  24.374  57.364  1.00  0.00     0.003 A 
HETATM    2  C   UNL     1       8.099  25.477  57.003  1.00  0.00     0.029 A 
HETATM    3  C   UNL     1       7.366  25.466  55.819  1.00  0.00     0.035 A 
HETATM    4  C   UNL     1       7.411  24.322  55.005  1.00  0.00     0.043 A 
HETATM    5  C   UNL     1       8.193  23.206  55.348  1.00  0.00    -0.006 A 
HETATM    6  C   UNL     1       8.927  23.249  56.539  1.00  0.00     0.014 A 
ENDROOT
BRANCH   3   7
HETATM    7  N   UNL     1       6.589  26.553  55.366  1.00  0.00    -0.324 N 
HETATM    8  C   UNL     1       5.393  26.997  55.891  1.00  0.00     0.245 C 
HETATM    9  O   UNL     1       4.754  26.538  56.826  1.00  0.00    -0.268 OA
HETATM   10  H   UNL     1       6.960  27.071  54.581  1.00  0.00     0.169 HD
BRANCH   8  11
HETATM   11  C   UNL     1       4.960  28.262  55.244  1.00  0.00     0.077 C 
HETATM   12  C   UNL     1       5.517  29.463  55.455  1.00  0.00     0.042 C 
BRANCH  12  13
HETATM   13  C   UNL     1       6.524  29.714  56.424  1.00  0.00     0.075 A 
HETATM   14  O   UNL     1       7.857  29.412  56.252  1.00  0.00    -0.323 OA
HETATM   15  C   UNL     1       8.525  29.766  57.376  1.00  0.00     0.142 A 
HETATM   16  C   UNL     1       7.660  30.284  58.304  1.00  0.00     0.027 A 
HETATM   17  C   UNL     1       6.380  30.242  57.702  1.00  0.00     0.039 A 
ENDBRANCH  12  13
ENDBRANCH   8  11
ENDBRANCH   3   7
BRANCH   5  18
HETATM   18  C   UNL     1       8.251  22.043  54.460  1.00  0.00     0.061 A 
HETATM   19  N   UNL     1       8.704  20.803  54.843  1.00  0.00    -0.278 N 
HETATM   20  H   UNL     1       9.035  20.520  55.758  1.00  0.00     0.189 HD
HETATM   21  N   UNL     1       8.684  19.880  53.867  1.00  0.00    -0.187 NA
HETATM   22  C   UNL     1       8.189  20.542  52.822  1.00  0.00     0.141 A 
HETATM   23  C   UNL     1       7.896  21.882  53.132  1.00  0.00     0.053 A 
ENDBRANCH   5  18
TORSDOF 4
ENDMDL
MODEL 6
REMARK VINA RESULT:      -8.2      2.582      3.473
REMARK  4 active torsions:
REMARK  status: ('A' for Active; 'I' for Inactive)
REMARK    1  A    between atoms: C_3  and  N_4 
REMARK       I    between atoms: N_4  and  C_5 
REMARK    2  A    between atoms: C_5  and  C_6 
REMARK    3  A    between atoms: C_7  and  C_8 
REMARK    4  A    between atoms: C_15  and  C_16 
ROOT
HETATM    1  C   UNL     1       7.609  24.833  52.170  1.00  0.00     0.003 A 
HETATM    2  C   UNL     1       6.883  25.699  52.990  1.00  0.00     0.029 A 
HETATM    3  C   UNL     1       6.527  25.313  54.280  1.00  0.00     0.035 A 
HETATM    4  C   UNL     1       6.924  24.047  54.744  1.00  0.00     0.043 A 
HETATM    5  C   UNL     1       7.647  23.161  53.929  1.00  0.00    -0.006 A 
HETATM    6  C   UNL     1       7.983  23.570  52.633  1.00  0.00     0.014 A 
ENDROOT
BRANCH   3   7
HETATM    7  N   UNL     1       5.764  26.113  55.157  1.00  0.00    -0.324 N 
HETATM    8  C   UNL     1       6.189  27.228  55.850  1.00  0.00     0.245 C 
HETATM    9  O   UNL     1       7.301  27.734  55.869  1.00  0.00    -0.268 OA
HETATM   10  H   UNL     1       4.796  25.848  55.275  1.00  0.00     0.169 HD
BRANCH   8  11
HETATM   11  C   UNL     1       5.056  27.892  56.544  1.00  0.00     0.077 C 
HETATM   12  C   UNL     1       4.070  28.565  55.936  1.00  0.00     0.042 C 
BRANCH  12  13
HETATM   13  C   UNL     1       4.036  28.843  54.543  1.00  0.00     0.075 A 
HETATM   14  O   UNL     1       3.797  27.897  53.571  1.00  0.00    -0.323 OA
HETATM   15  C   UNL     1       3.858  28.503  52.360  1.00  0.00     0.142 A 
HETATM   16  C   UNL     1       4.151  29.834  52.505  1.00  0.00     0.027 A 
HETATM   17  C   UNL     1       4.276  30.051  53.898  1.00  0.00     0.039 A 
ENDBRANCH  12  13
ENDBRANCH   8  11
ENDBRANCH   3   7
BRANCH   5  18
HETATM   18  C   UNL     1       8.013  21.832  54.425  1.00  0.00     0.061 A 
HETATM   19  N   UNL     1       8.542  20.835  53.641  1.00  0.00    -0.278 N 
HETATM   20  H   UNL     1       8.762  20.876  52.652  1.00  0.00     0.189 HD
HETATM   21  N   UNL     1       8.794  19.689  54.296  1.00  0.00    -0.187 NA
HETATM   22  C   UNL     1       8.426  19.959  55.548  1.00  0.00     0.141 A 
HETATM   23  C   UNL     1       7.943  21.272  55.689  1.00  0.00     0.053 A 
ENDBRANCH   5  18
TORSDOF 4
ENDMDL
MODEL 7
REMARK VINA RESULT:      -7.7      3.547      6.364
REMARK  4 active torsions:
REMARK  status: ('A' for Active; 'I' for Inactive)
REMARK    1  A    between atoms: C_3  and  N_4 
REMARK       I    between atoms: N_4  and  C_5 
REMARK    2  A    between atoms: C_5  and  C_6 
REMARK    3  A    between atoms: C_7  and  C_8 
REMARK    4  A    between atoms: C_15  and  C_16 
ROOT
HETATM    1  C   UNL     1       4.197  28.753  55.099  1.00  0.00     0.003 A 
HETATM    2  C   UNL     1       5.182  28.092  55.835  1.00  0.00     0.029 A 
HETATM    3  C   UNL     1       6.015  27.161  55.220  1.00  0.00     0.035 A 
HETATM    4  C   UNL     1       5.856  26.910  53.848  1.00  0.00     0.043 A 
HETATM    5  C   UNL     1       4.864  27.560  53.093  1.00  0.00    -0.006 A 
HETATM    6  C   UNL     1       4.035  28.484  53.738  1.00  0.00     0.014 A 
ENDROOT
BRANCH   3   7
HETATM    7  N   UNL     1       7.007  26.425  55.902  1.00  0.00    -0.324 N 
HETATM    8  C   UNL     1       6.814  25.365  56.764  1.00  0.00     0.245 C 
HETATM    9  O   UNL     1       5.760  24.864  57.130  1.00  0.00    -0.268 OA
HETATM   10  H   UNL     1       7.965  26.696  55.726  1.00  0.00     0.169 HD
BRANCH   8  11
HETATM   11  C   UNL     1       8.107  24.751  57.158  1.00  0.00     0.077 C 
HETATM   12  C   UNL     1       8.857  23.966  56.373  1.00  0.00     0.042 C 
BRANCH  12  13
HETATM   13  C   UNL     1       8.456  23.510  55.088  1.00  0.00     0.075 A 
HETATM   14  O   UNL     1       8.217  24.336  54.013  1.00  0.00    -0.323 OA
HETATM   15  C   UNL     1       7.837  23.571  52.962  1.00  0.00     0.142 A 
HETATM   16  C   UNL     1       7.800  22.249  53.319  1.00  0.00     0.027 A 
HETATM   17  C   UNL     1       8.186  22.209  54.680  1.00  0.00     0.039 A 
ENDBRANCH  12  13
ENDBRANCH   8  11
ENDBRANCH   3   7
BRANCH   5  18
HETATM   18  C   UNL     1       4.696  27.249  51.671  1.00  0.00     0.061 A 
HETATM   19  N   UNL     1       3.876  27.952  50.821  1.00  0.00    -0.278 N 
HETATM   20  H   UNL     1       3.306  28.762  51.038  1.00  0.00     0.189 HD
HETATM   21  N   UNL     1       3.860  27.491  49.559  1.00  0.00    -0.187 NA
HETATM   22  C   UNL     1       4.707  26.463  49.592  1.00  0.00     0.141 A 
HETATM   23  C   UNL     1       5.260  26.271  50.871  1.00  0.00     0.053 A 
ENDBRANCH   5  18
TORSDOF 4
ENDMDL
MODEL 8
REMARK VINA RESULT:      -7.6      3.960      6.316
REMARK  4 active torsions:
REMARK  status: ('A' for Active; 'I' for Inactive)
REMARK    1  A    between atoms: C_3  and  N_4 
REMARK       I    between atoms: N_4  and  C_5 
REMARK    2  A    between atoms: C_5  and  C_6 
REMARK    3  A    between atoms: C_7  and  C_8 
REMARK    4  A    between atoms: C_15  and  C_16 
ROOT
HETATM    1  C   UNL     1       6.122  30.242  56.874  1.00  0.00     0.003 A 
HETATM    2  C   UNL     1       6.778  30.736  58.003  1.00  0.00     0.029 A 
HETATM    3  C   UNL     1       7.705  29.947  58.680  1.00  0.00     0.035 A 
HETATM    4  C   UNL     1       7.977  28.656  58.199  1.00  0.00     0.043 A 
HETATM    5  C   UNL     1       7.320  28.140  57.069  1.00  0.00    -0.006 A 
HETATM    6  C   UNL     1       6.386  28.950  56.414  1.00  0.00     0.014 A 
ENDROOT
BRANCH   3   7
HETATM    7  N   UNL     1       8.381  30.359  59.848  1.00  0.00    -0.324 N 
HETATM    8  C   UNL     1       9.007  31.569  60.065  1.00  0.00     0.245 C 
HETATM    9  O   UNL     1       9.125  32.513  59.298  1.00  0.00    -0.268 OA
HETATM   10  H   UNL     1       8.393  29.699  60.614  1.00  0.00     0.169 HD
BRANCH   8  11
HETATM   11  C   UNL     1       9.468  31.690  61.472  1.00  0.00     0.077 C 
HETATM   12  C   UNL     1       8.685  32.004  62.513  1.00  0.00     0.042 C 
BRANCH  12  13
HETATM   13  C   UNL     1       7.322  32.388  62.397  1.00  0.00     0.075 A 
HETATM   14  O   UNL     1       6.258  31.536  62.593  1.00  0.00    -0.323 OA
HETATM   15  C   UNL     1       5.112  32.227  62.383  1.00  0.00     0.142 A 
HETATM   16  C   UNL     1       5.391  33.522  62.033  1.00  0.00     0.027 A 
HETATM   17  C   UNL     1       6.802  33.624  62.031  1.00  0.00     0.039 A 
ENDBRANCH  12  13
ENDBRANCH   8  11
ENDBRANCH   3   7
BRANCH   5  18
HETATM   18  C   UNL     1       7.595  26.775  56.613  1.00  0.00     0.061 A 
HETATM   19  N   UNL     1       7.381  26.334  55.329  1.00  0.00    -0.278 N 
HETATM   20  H   UNL     1       7.033  26.867  54.541  1.00  0.00     0.189 HD
HETATM   21  N   UNL     1       7.690  25.042  55.129  1.00  0.00    -0.187 NA
HETATM   22  C   UNL     1       8.130  24.638  56.320  1.00  0.00     0.141 A 
HETATM   23  C   UNL     1       8.101  25.670  57.275  1.00  0.00     0.053 A 
ENDBRANCH   5  18
TORSDOF 4
ENDMDL
MODEL 9
REMARK VINA RESULT:      -7.5      1.779      2.712
REMARK  4 active torsions:
REMARK  status: ('A' for Active; 'I' for Inactive)
REMARK    1  A    between atoms: C_3  and  N_4 
REMARK       I    between atoms: N_4  and  C_5 
REMARK    2  A    between atoms: C_5  and  C_6 
REMARK    3  A    between atoms: C_7  and  C_8 
REMARK    4  A    between atoms: C_15  and  C_16 
ROOT
HETATM    1  C   UNL     1       5.532  25.524  53.423  1.00  0.00     0.003 A 
HETATM    2  C   UNL     1       6.023  26.406  54.388  1.00  0.00     0.029 A 
HETATM    3  C   UNL     1       7.031  26.004  55.261  1.00  0.00     0.035 A 
HETATM    4  C   UNL     1       7.553  24.705  55.143  1.00  0.00     0.043 A 
HETATM    5  C   UNL     1       7.065  23.802  54.183  1.00  0.00    -0.006 A 
HETATM    6  C   UNL     1       6.045  24.229  53.325  1.00  0.00     0.014 A 
ENDROOT
BRANCH   3   7
HETATM    7  N   UNL     1       7.553  26.821  56.286  1.00  0.00    -0.324 N 
HETATM    8  C   UNL     1       8.175  28.044  56.141  1.00  0.00     0.245 C 
HETATM    9  O   UNL     1       8.421  28.655  55.111  1.00  0.00    -0.268 OA
HETATM   10  H   UNL     1       7.444  26.478  57.230  1.00  0.00     0.169 HD
BRANCH   8  11
HETATM   11  C   UNL     1       8.444  28.670  57.460  1.00  0.00     0.077 C 
HETATM   12  C   UNL     1       7.571  29.420  58.148  1.00  0.00     0.042 C 
BRANCH  12  13
HETATM   13  C   UNL     1       6.304  29.824  57.650  1.00  0.00     0.075 A 
HETATM   14  O   UNL     1       5.287  28.955  57.323  1.00  0.00    -0.323 OA
HETATM   15  C   UNL     1       4.237  29.678  56.866  1.00  0.00     0.142 A 
HETATM   16  C   UNL     1       4.539  31.014  56.864  1.00  0.00     0.027 A 
HETATM   17  C   UNL     1       5.863  31.109  57.355  1.00  0.00     0.039 A 
ENDBRANCH  12  13
ENDBRANCH   8  11
ENDBRANCH   3   7
BRANCH   5  18
HETATM   18  C   UNL     1       7.602  22.442  54.109  1.00  0.00     0.061 A 
HETATM   19  N   UNL     1       7.908  21.797  52.934  1.00  0.00    -0.278 N 
HETATM   20  H   UNL     1       7.828  22.157  51.991  1.00  0.00     0.189 HD
HETATM   21  N   UNL     1       8.377  20.548  53.094  1.00  0.00    -0.187 NA
HETATM   22  C   UNL     1       8.385  20.384  54.417  1.00  0.00     0.141 A 
HETATM   23  C   UNL     1       7.923  21.525  55.096  1.00  0.00     0.053 A 
ENDBRANCH   5  18
TORSDOF 4
ENDMDL
MODEL 10
REMARK VINA RESULT:      -7.5      6.764     11.125
REMARK  4 active torsions:
REMARK  status: ('A' for Active; 'I' for Inactive)
REMARK    1  A    between atoms: C_3  and  N_4 
REMARK       I    between atoms: N_4  and  C_5 
REMARK    2  A    between atoms: C_5  and  C_6 
REMARK    3  A    between atoms: C_7  and  C_8 
REMARK    4  A    between atoms: C_15  and  C_16 
ROOT
HETATM    1  C   UNL     1       7.785  32.991  64.055  1.00  0.00     0.003 A 
HETATM    2  C   UNL     1       8.226  32.153  63.029  1.00  0.00     0.029 A 
HETATM    3  C   UNL     1       7.400  31.875  61.944  1.00  0.00     0.035 A 
HETATM    4  C   UNL     1       6.125  32.462  61.893  1.00  0.00     0.043 A 
HETATM    5  C   UNL     1       5.662  33.301  62.921  1.00  0.00    -0.006 A 
HETATM    6  C   UNL     1       6.509  33.557  64.005  1.00  0.00     0.014 A 
ENDROOT
BRANCH   3   7
HETATM    7  N   UNL     1       7.757  31.010  60.887  1.00  0.00    -0.324 N 
HETATM    8  C   UNL     1       8.421  31.345  59.725  1.00  0.00     0.245 C 
HETATM    9  O   UNL     1       8.813  32.444  59.362  1.00  0.00    -0.268 OA
HETATM   10  H   UNL     1       7.512  30.036  61.004  1.00  0.00     0.169 HD
BRANCH   8  11
HETATM   11  C   UNL     1       8.755  30.135  58.931  1.00  0.00     0.077 C 
HETATM   12  C   UNL     1       7.959  29.578  58.008  1.00  0.00     0.042 C 
BRANCH  12  13
HETATM   13  C   UNL     1       6.627  29.997  57.747  1.00  0.00     0.075 A 
HETATM   14  O   UNL     1       5.551  29.144  57.653  1.00  0.00    -0.323 OA
HETATM   15  C   UNL     1       4.445  29.877  57.378  1.00  0.00     0.142 A 
HETATM   16  C   UNL     1       4.766  31.205  57.268  1.00  0.00     0.027 A 
HETATM   17  C   UNL     1       6.162  31.283  57.493  1.00  0.00     0.039 A 
ENDBRANCH  12  13
ENDBRANCH   8  11
ENDBRANCH   3   7
BRANCH   5  18
HETATM   18  C   UNL     1       4.313  33.868  62.860  1.00  0.00     0.061 A 
HETATM   19  N   UNL     1       3.218  33.320  63.484  1.00  0.00    -0.278 N 
HETATM   20  H   UNL     1       3.187  32.491  64.066  1.00  0.00     0.189 HD
HETATM   21  N   UNL     1       2.072  33.995  63.288  1.00  0.00    -0.187 NA
HETATM   22  C   UNL     1       2.442  35.020  62.521  1.00  0.00     0.141 A 
HETATM   23  C   UNL     1       3.818  34.997  62.230  1.00  0.00     0.053 A 
ENDBRANCH   5  18
TORSDOF 4
ENDMDL
