MODEL 1
REMARK VINA RESULT:      -9.0      0.000      0.000
REMARK  6 active torsions:
REMARK  status: ('A' for Active; 'I' for Inactive)
REMARK    1  A    between atoms: C_3  and  C_4 
REMARK    2  A    between atoms: C_9  and  C_10 
REMARK    3  A    between atoms: C_10  and  O_11 
REMARK    4  A    between atoms: C_10  and  C_12 
REMARK    5  A    between atoms: C_12  and  N_13 
REMARK    6  A    between atoms: C_17  and  C_18 
ROOT
HETATM    1  C   UNL     1       6.657  25.100  57.014  1.00  0.00     0.271 C 
ENDROOT
BRANCH   1   2
HETATM    2  C   UNL     1       8.105  24.541  56.964  1.00  0.00     0.177 C 
BRANCH   2   3
HETATM    3  C   UNL     1       8.172  23.116  56.456  1.00  0.00    -0.027 A 
HETATM    4  C   UNL     1       8.109  22.810  55.085  1.00  0.00     0.025 A 
HETATM    5  C   UNL     1       8.198  21.483  54.628  1.00  0.00     0.048 A 
HETATM    6  C   UNL     1       8.337  20.452  55.564  1.00  0.00     0.016 A 
HETATM    7  C   UNL     1       8.395  20.740  56.926  1.00  0.00     0.001 A 
HETATM    8  C   UNL     1       8.316  22.061  57.370  1.00  0.00     0.010 A 
BRANCH   5   9
HETATM    9  C   UNL     1       8.125  21.193  53.145  1.00  0.00     0.417 C 
HETATM   10  F   UNL     1       9.246  20.613  52.644  1.00  0.00    -0.166 F 
HETATM   11  F   UNL     1       7.088  20.375  52.828  1.00  0.00    -0.166 F 
HETATM   12  F   UNL     1       7.937  22.337  52.427  1.00  0.00    -0.166 F 
ENDBRANCH   5   9
ENDBRANCH   2   3
BRANCH   2  13
HETATM   13  O   UNL     1       8.727  24.660  58.241  1.00  0.00    -0.389 OA
HETATM   14  H   UNL     1       9.601  24.227  58.174  1.00  0.00     0.210 HD
ENDBRANCH   2  13
ENDBRANCH   1   2
BRANCH   1  15
HETATM   15  N   UNL     1       6.486  26.489  56.372  1.00  0.00    -0.068 N 
HETATM   16  H   UNL     1       5.583  26.480  55.880  1.00  0.00     0.280 HD
HETATM   17  C   UNL     1       6.436  27.603  57.399  1.00  0.00     0.235 C 
HETATM   18  C   UNL     1       6.268  28.949  56.704  1.00  0.00     0.037 C 
HETATM   19  C   UNL     1       7.386  29.227  55.689  1.00  0.00     0.025 C 
HETATM   20  C   UNL     1       7.398  28.075  54.675  1.00  0.00     0.037 C 
HETATM   21  C   UNL     1       7.569  26.716  55.342  1.00  0.00     0.235 C 
BRANCH  19  22
HETATM   22  C   UNL     1       8.722  29.481  56.339  1.00  0.00    -0.018 A 
HETATM   23  C   UNL     1      10.009  29.517  55.744  1.00  0.00     0.147 A 
HETATM   24  N   UNL     1      10.982  29.740  56.625  1.00  0.00    -0.187 NA
HETATM   25  N   UNL     1      10.334  29.961  57.775  1.00  0.00    -0.289 N 
HETATM   26  H   UNL     1      10.875  30.216  58.596  1.00  0.00     0.188 HD
HETATM   27  C   UNL     1       8.982  29.797  57.661  1.00  0.00     0.118 A 
ENDBRANCH  19  22
ENDBRANCH   1  15
TORSDOF 6
ENDMDL
MODEL 2
REMARK VINA RESULT:      -8.9      2.314      3.041
REMARK  6 active torsions:
REMARK  status: ('A' for Active; 'I' for Inactive)
REMARK    1  A    between atoms: C_3  and  C_4 
REMARK    2  A    between atoms: C_9  and  C_10 
REMARK    3  A    between atoms: C_10  and  O_11 
REMARK    4  A    between atoms: C_10  and  C_12 
REMARK    5  A    between atoms: C_12  and  N_13 
REMARK    6  A    between atoms: C_17  and  C_18 
ROOT
HETATM    1  C   UNL     1       6.719  26.218  54.233  1.00  0.00     0.271 C 
ENDROOT
BRANCH   1   2
HETATM    2  C   UNL     1       5.968  24.867  54.086  1.00  0.00     0.177 C 
BRANCH   2   3
HETATM    3  C   UNL     1       6.901  23.674  54.055  1.00  0.00    -0.027 A 
HETATM    4  C   UNL     1       7.199  22.932  55.213  1.00  0.00     0.025 A 
HETATM    5  C   UNL     1       8.046  21.811  55.163  1.00  0.00     0.048 A 
HETATM    6  C   UNL     1       8.611  21.441  53.937  1.00  0.00     0.016 A 
HETATM    7  C   UNL     1       8.329  22.171  52.783  1.00  0.00     0.001 A 
HETATM    8  C   UNL     1       7.478  23.276  52.840  1.00  0.00     0.010 A 
BRANCH   5   9
HETATM    9  C   UNL     1       8.345  21.038  56.429  1.00  0.00     0.417 C 
HETATM   10  F   UNL     1       8.328  21.799  57.554  1.00  0.00    -0.166 F 
HETATM   11  F   UNL     1       7.470  20.020  56.633  1.00  0.00    -0.166 F 
HETATM   12  F   UNL     1       9.582  20.466  56.377  1.00  0.00    -0.166 F 
ENDBRANCH   5   9
ENDBRANCH   2   3
BRANCH   2  13
HETATM   13  O   UNL     1       5.127  24.890  52.936  1.00  0.00    -0.389 OA
HETATM   14  H   UNL     1       5.471  24.214  52.317  1.00  0.00     0.210 HD
ENDBRANCH   2  13
ENDBRANCH   1   2
BRANCH   1  15
HETATM   15  N   UNL     1       6.623  26.854  55.633  1.00  0.00    -0.068 N 
HETATM   16  H   UNL     1       5.783  26.462  56.080  1.00  0.00     0.280 HD
HETATM   17  C   UNL     1       7.811  26.511  56.510  1.00  0.00     0.235 C 
HETATM   18  C   UNL     1       7.659  27.169  57.877  1.00  0.00     0.037 C 
HETATM   19  C   UNL     1       7.506  28.694  57.778  1.00  0.00     0.025 C 
HETATM   20  C   UNL     1       6.296  28.989  56.882  1.00  0.00     0.037 C 
HETATM   21  C   UNL     1       6.423  28.347  55.507  1.00  0.00     0.235 C 
BRANCH  19  22
HETATM   22  C   UNL     1       8.773  29.385  57.342  1.00  0.00    -0.018 A 
HETATM   23  C   UNL     1       9.355  29.444  56.050  1.00  0.00     0.147 A 
HETATM   24  N   UNL     1      10.501  30.120  56.027  1.00  0.00    -0.187 NA
HETATM   25  N   UNL     1      10.620  30.599  57.271  1.00  0.00    -0.289 N 
HETATM   26  H   UNL     1      11.405  31.208  57.484  1.00  0.00     0.188 HD
HETATM   27  C   UNL     1       9.622  30.170  58.101  1.00  0.00     0.118 A 
ENDBRANCH  19  22
ENDBRANCH   1  15
TORSDOF 6
ENDMDL
MODEL 3
REMARK VINA RESULT:      -8.8      2.686      3.631
REMARK  6 active torsions:
REMARK  status: ('A' for Active; 'I' for Inactive)
REMARK    1  A    between atoms: C_3  and  C_4 
REMARK    2  A    between atoms: C_9  and  C_10 
REMARK    3  A    between atoms: C_10  and  O_11 
REMARK    4  A    between atoms: C_10  and  C_12 
REMARK    5  A    between atoms: C_12  and  N_13 
REMARK    6  A    between atoms: C_17  and  C_18 
ROOT
HETATM    1  C   UNL     1       6.660  26.385  53.969  1.00  0.00     0.271 C 
ENDROOT
BRANCH   1   2
HETATM    2  C   UNL     1       5.958  25.076  54.423  1.00  0.00     0.177 C 
BRANCH   2   3
HETATM    3  C   UNL     1       6.828  23.849  54.251  1.00  0.00    -0.027 A 
HETATM    4  C   UNL     1       7.183  23.030  55.339  1.00  0.00     0.025 A 
HETATM    5  C   UNL     1       7.970  21.879  55.159  1.00  0.00     0.048 A 
HETATM    6  C   UNL     1       8.417  21.557  53.872  1.00  0.00     0.016 A 
HETATM    7  C   UNL     1       8.079  22.363  52.787  1.00  0.00     0.001 A 
HETATM    8  C   UNL     1       7.288  23.498  52.973  1.00  0.00     0.010 A 
BRANCH   5   9
HETATM    9  C   UNL     1       8.333  21.022  56.352  1.00  0.00     0.417 C 
HETATM   10  F   UNL     1       9.543  20.416  56.246  1.00  0.00    -0.166 F 
HETATM   11  F   UNL     1       8.351  21.730  57.511  1.00  0.00    -0.166 F 
HETATM   12  F   UNL     1       7.424  20.023  56.536  1.00  0.00    -0.166 F 
ENDBRANCH   5   9
ENDBRANCH   2   3
BRANCH   2  13
HETATM   13  O   UNL     1       4.713  24.921  53.746  1.00  0.00    -0.389 OA
HETATM   14  H   UNL     1       4.244  25.777  53.813  1.00  0.00     0.210 HD
ENDBRANCH   2  13
ENDBRANCH   1   2
BRANCH   1  15
HETATM   15  N   UNL     1       7.592  27.009  55.024  1.00  0.00    -0.068 N 
HETATM   16  H   UNL     1       8.513  26.565  54.908  1.00  0.00     0.280 HD
HETATM   17  C   UNL     1       7.777  28.501  54.828  1.00  0.00     0.235 C 
HETATM   18  C   UNL     1       8.705  29.060  55.901  1.00  0.00     0.037 C 
HETATM   19  C   UNL     1       8.192  28.781  57.321  1.00  0.00     0.025 C 
HETATM   20  C   UNL     1       8.019  27.263  57.469  1.00  0.00     0.037 C 
HETATM   21  C   UNL     1       7.093  26.678  56.412  1.00  0.00     0.235 C 
BRANCH  19  22
HETATM   22  C   UNL     1       6.956  29.572  57.666  1.00  0.00    -0.018 A 
HETATM   23  C   UNL     1       6.858  30.902  58.152  1.00  0.00     0.147 A 
HETATM   24  N   UNL     1       5.602  31.279  58.382  1.00  0.00    -0.187 NA
HETATM   25  N   UNL     1       4.869  30.247  57.947  1.00  0.00    -0.289 N 
HETATM   26  H   UNL     1       3.857  30.329  57.966  1.00  0.00     0.188 HD
HETATM   27  C   UNL     1       5.633  29.194  57.528  1.00  0.00     0.118 A 
ENDBRANCH  19  22
ENDBRANCH   1  15
TORSDOF 6
ENDMDL
MODEL 4
REMARK VINA RESULT:      -8.7      2.222      3.901
REMARK  6 active torsions:
REMARK  status: ('A' for Active; 'I' for Inactive)
REMARK    1  A    between atoms: C_3  and  C_4 
REMARK    2  A    between atoms: C_9  and  C_10 
REMARK    3  A    between atoms: C_10  and  O_11 
REMARK    4  A    between atoms: C_10  and  C_12 
REMARK    5  A    between atoms: C_12  and  N_13 
REMARK    6  A    between atoms: C_17  and  C_18 
ROOT
HETATM    1  C   UNL     1       6.794  25.156  56.984  1.00  0.00     0.271 C 
ENDROOT
BRANCH   1   2
HETATM    2  C   UNL     1       8.212  24.523  56.999  1.00  0.00     0.177 C 
BRANCH   2   3
HETATM    3  C   UNL     1       8.229  23.100  56.481  1.00  0.00    -0.027 A 
HETATM    4  C   UNL     1       8.155  22.808  55.108  1.00  0.00     0.025 A 
HETATM    5  C   UNL     1       8.199  21.482  54.640  1.00  0.00     0.048 A 
HETATM    6  C   UNL     1       8.304  20.439  55.569  1.00  0.00     0.016 A 
HETATM    7  C   UNL     1       8.372  20.715  56.933  1.00  0.00     0.001 A 
HETATM    8  C   UNL     1       8.338  22.034  57.387  1.00  0.00     0.010 A 
BRANCH   5   9
HETATM    9  C   UNL     1       8.116  21.205  53.156  1.00  0.00     0.417 C 
HETATM   10  F   UNL     1       7.111  20.360  52.810  1.00  0.00    -0.166 F 
HETATM   11  F   UNL     1       7.942  22.338  52.427  1.00  0.00    -0.166 F 
HETATM   12  F   UNL     1       9.266  20.634  52.696  1.00  0.00    -0.166 F 
ENDBRANCH   5   9
ENDBRANCH   2   3
BRANCH   2  13
HETATM   13  O   UNL     1       8.774  24.600  58.307  1.00  0.00    -0.389 OA
HETATM   14  H   UNL     1       8.182  24.099  58.902  1.00  0.00     0.210 HD
ENDBRANCH   2  13
ENDBRANCH   1   2
BRANCH   1  15
HETATM   15  N   UNL     1       6.673  26.433  56.130  1.00  0.00    -0.068 N 
HETATM   16  H   UNL     1       6.986  27.215  56.720  1.00  0.00     0.280 HD
HETATM   17  C   UNL     1       7.564  26.399  54.904  1.00  0.00     0.235 C 
HETATM   18  C   UNL     1       7.399  27.684  54.101  1.00  0.00     0.037 C 
HETATM   19  C   UNL     1       5.942  27.927  53.680  1.00  0.00     0.025 C 
HETATM   20  C   UNL     1       5.082  27.951  54.952  1.00  0.00     0.037 C 
HETATM   21  C   UNL     1       5.225  26.676  55.772  1.00  0.00     0.235 C 
BRANCH  19  22
HETATM   22  C   UNL     1       5.460  26.953  52.636  1.00  0.00    -0.018 A 
HETATM   23  C   UNL     1       5.601  27.019  51.226  1.00  0.00     0.147 A 
HETATM   24  N   UNL     1       5.025  25.996  50.598  1.00  0.00    -0.187 NA
HETATM   25  N   UNL     1       4.603  25.203  51.591  1.00  0.00    -0.289 N 
HETATM   26  H   UNL     1       4.175  24.313  51.353  1.00  0.00     0.188 HD
HETATM   27  C   UNL     1       4.822  25.741  52.828  1.00  0.00     0.118 A 
ENDBRANCH  19  22
ENDBRANCH   1  15
TORSDOF 6
ENDMDL
MODEL 5
REMARK VINA RESULT:      -8.6      1.735      2.514
REMARK  6 active torsions:
REMARK  status: ('A' for Active; 'I' for Inactive)
REMARK    1  A    between atoms: C_3  and  C_4 
REMARK    2  A    between atoms: C_9  and  C_10 
REMARK    3  A    between atoms: C_10  and  O_11 
REMARK    4  A    between atoms: C_10  and  C_12 
REMARK    5  A    between atoms: C_12  and  N_13 
REMARK    6  A    between atoms: C_17  and  C_18 
ROOT
HETATM    1  C   UNL     1       6.697  25.578  57.013  1.00  0.00     0.271 C 
ENDROOT
BRANCH   1   2
HETATM    2  C   UNL     1       7.996  24.802  56.664  1.00  0.00     0.177 C 
BRANCH   2   3
HETATM    3  C   UNL     1       7.948  24.158  55.294  1.00  0.00    -0.027 A 
HETATM    4  C   UNL     1       8.045  22.765  55.123  1.00  0.00     0.025 A 
HETATM    5  C   UNL     1       7.973  22.179  53.847  1.00  0.00     0.048 A 
HETATM    6  C   UNL     1       7.817  23.008  52.729  1.00  0.00     0.016 A 
HETATM    7  C   UNL     1       7.726  24.390  52.883  1.00  0.00     0.001 A 
HETATM    8  C   UNL     1       7.788  24.962  54.155  1.00  0.00     0.010 A 
BRANCH   5   9
HETATM    9  C   UNL     1       8.081  20.678  53.701  1.00  0.00     0.417 C 
HETATM   10  F   UNL     1       9.292  20.255  53.254  1.00  0.00    -0.166 F 
HETATM   11  F   UNL     1       7.848  20.026  54.870  1.00  0.00    -0.166 F 
HETATM   12  F   UNL     1       7.162  20.201  52.814  1.00  0.00    -0.166 F 
ENDBRANCH   5   9
ENDBRANCH   2   3
BRANCH   2  13
HETATM   13  O   UNL     1       8.285  23.839  57.674  1.00  0.00    -0.389 OA
HETATM   14  H   UNL     1       8.582  23.027  57.217  1.00  0.00     0.210 HD
ENDBRANCH   2  13
ENDBRANCH   1   2
BRANCH   1  15
HETATM   15  N   UNL     1       6.632  27.007  56.441  1.00  0.00    -0.068 N 
HETATM   16  H   UNL     1       6.389  26.918  55.446  1.00  0.00     0.280 HD
HETATM   17  C   UNL     1       5.559  27.850  57.101  1.00  0.00     0.235 C 
HETATM   18  C   UNL     1       5.546  29.249  56.496  1.00  0.00     0.037 C 
HETATM   19  C   UNL     1       6.907  29.951  56.615  1.00  0.00     0.025 C 
HETATM   20  C   UNL     1       7.957  29.060  55.937  1.00  0.00     0.037 C 
HETATM   21  C   UNL     1       7.995  27.656  56.525  1.00  0.00     0.235 C 
BRANCH  19  22
HETATM   22  C   UNL     1       7.251  30.329  58.034  1.00  0.00    -0.018 A 
HETATM   23  C   UNL     1       8.397  29.981  58.794  1.00  0.00     0.147 A 
HETATM   24  N   UNL     1       8.364  30.464  60.034  1.00  0.00    -0.187 NA
HETATM   25  N   UNL     1       7.259  31.219  60.058  1.00  0.00    -0.289 N 
HETATM   26  H   UNL     1       7.050  31.747  60.900  1.00  0.00     0.188 HD
HETATM   27  C   UNL     1       6.548  31.154  58.892  1.00  0.00     0.118 A 
ENDBRANCH  19  22
ENDBRANCH   1  15
TORSDOF 6
ENDMDL
MODEL 6
REMARK VINA RESULT:      -8.4      4.150      5.047
REMARK  6 active torsions:
REMARK  status: ('A' for Active; 'I' for Inactive)
REMARK    1  A    between atoms: C_3  and  C_4 
REMARK    2  A    between atoms: C_9  and  C_10 
REMARK    3  A    between atoms: C_10  and  O_11 
REMARK    4  A    between atoms: C_10  and  C_12 
REMARK    5  A    between atoms: C_12  and  N_13 
REMARK    6  A    between atoms: C_17  and  C_18 
ROOT
HETATM    1  C   UNL     1       6.650  26.488  53.766  1.00  0.00     0.271 C 
ENDROOT
BRANCH   1   2
HETATM    2  C   UNL     1       6.360  25.406  54.842  1.00  0.00     0.177 C 
BRANCH   2   3
HETATM    3  C   UNL     1       7.011  24.074  54.531  1.00  0.00    -0.027 A 
HETATM    4  C   UNL     1       7.341  23.154  55.542  1.00  0.00     0.025 A 
HETATM    5  C   UNL     1       7.920  21.909  55.235  1.00  0.00     0.048 A 
HETATM    6  C   UNL     1       8.184  21.596  53.896  1.00  0.00     0.016 A 
HETATM    7  C   UNL     1       7.868  22.502  52.885  1.00  0.00     0.001 A 
HETATM    8  C   UNL     1       7.283  23.730  53.198  1.00  0.00     0.010 A 
BRANCH   5   9
HETATM    9  C   UNL     1       8.263  20.944  56.348  1.00  0.00     0.417 C 
HETATM   10  F   UNL     1       9.450  20.307  56.177  1.00  0.00    -0.166 F 
HETATM   11  F   UNL     1       8.318  21.552  57.561  1.00  0.00    -0.166 F 
HETATM   12  F   UNL     1       7.320  19.966  56.460  1.00  0.00    -0.166 F 
ENDBRANCH   5   9
ENDBRANCH   2   3
BRANCH   2  13
HETATM   13  O   UNL     1       4.954  25.259  55.030  1.00  0.00    -0.389 OA
HETATM   14  H   UNL     1       4.592  26.155  55.182  1.00  0.00     0.210 HD
ENDBRANCH   2  13
ENDBRANCH   1   2
BRANCH   1  15
HETATM   15  N   UNL     1       5.431  26.881  52.911  1.00  0.00    -0.068 N 
HETATM   16  H   UNL     1       4.734  26.133  53.025  1.00  0.00     0.280 HD
HETATM   17  C   UNL     1       4.791  28.176  53.371  1.00  0.00     0.235 C 
HETATM   18  C   UNL     1       3.595  28.513  52.488  1.00  0.00     0.037 C 
HETATM   19  C   UNL     1       3.976  28.618  51.004  1.00  0.00     0.025 C 
HETATM   20  C   UNL     1       4.620  27.289  50.587  1.00  0.00     0.037 C 
HETATM   21  C   UNL     1       5.821  26.930  51.452  1.00  0.00     0.235 C 
BRANCH  19  22
HETATM   22  C   UNL     1       4.822  29.828  50.698  1.00  0.00    -0.018 A 
HETATM   23  C   UNL     1       5.817  29.989  49.701  1.00  0.00     0.147 A 
HETATM   24  N   UNL     1       6.393  31.189  49.731  1.00  0.00    -0.187 NA
HETATM   25  N   UNL     1       5.707  31.854  50.668  1.00  0.00    -0.289 N 
HETATM   26  H   UNL     1       5.931  32.832  50.832  1.00  0.00     0.188 HD
HETATM   27  C   UNL     1       4.770  31.078  51.290  1.00  0.00     0.118 A 
ENDBRANCH  19  22
ENDBRANCH   1  15
TORSDOF 6
ENDMDL
MODEL 7
REMARK VINA RESULT:      -8.4      4.388      5.924
REMARK  6 active torsions:
REMARK  status: ('A' for Active; 'I' for Inactive)
REMARK    1  A    between atoms: C_3  and  C_4 
REMARK    2  A    between atoms: C_9  and  C_10 
REMARK    3  A    between atoms: C_10  and  O_11 
REMARK    4  A    between atoms: C_10  and  C_12 
REMARK    5  A    between atoms: C_12  and  N_13 
REMARK    6  A    between atoms: C_17  and  C_18 
ROOT
HETATM    1  C   UNL     1       5.182  25.331  53.574  1.00  0.00     0.271 C 
ENDROOT
BRANCH   1   2
HETATM    2  C   UNL     1       6.261  25.059  54.657  1.00  0.00     0.177 C 
BRANCH   2   3
HETATM    3  C   UNL     1       7.020  23.769  54.424  1.00  0.00    -0.027 A 
HETATM    4  C   UNL     1       7.362  22.906  55.480  1.00  0.00     0.025 A 
HETATM    5  C   UNL     1       8.044  21.699  55.244  1.00  0.00     0.048 A 
HETATM    6  C   UNL     1       8.399  21.366  53.931  1.00  0.00     0.016 A 
HETATM    7  C   UNL     1       8.072  22.216  52.876  1.00  0.00     0.001 A 
HETATM    8  C   UNL     1       7.385  23.407  53.118  1.00  0.00     0.010 A 
BRANCH   5   9
HETATM    9  C   UNL     1       8.396  20.795  56.404  1.00  0.00     0.417 C 
HETATM   10  F   UNL     1       9.623  20.222  56.302  1.00  0.00    -0.166 F 
HETATM   11  F   UNL     1       8.368  21.447  57.595  1.00  0.00    -0.166 F 
HETATM   12  F   UNL     1       7.507  19.767  56.516  1.00  0.00    -0.166 F 
ENDBRANCH   5   9
ENDBRANCH   2   3
BRANCH   2  13
HETATM   13  O   UNL     1       5.674  25.081  55.957  1.00  0.00    -0.389 OA
HETATM   14  H   UNL     1       6.219  25.682  56.504  1.00  0.00     0.210 HD
ENDBRANCH   2  13
ENDBRANCH   1   2
BRANCH   1  15
HETATM   15  N   UNL     1       5.567  26.411  52.545  1.00  0.00    -0.068 N 
HETATM   16  H   UNL     1       6.595  26.457  52.533  1.00  0.00     0.280 HD
HETATM   17  C   UNL     1       5.108  26.069  51.142  1.00  0.00     0.235 C 
HETATM   18  C   UNL     1       5.515  27.173  50.173  1.00  0.00     0.037 C 
HETATM   19  C   UNL     1       4.961  28.545  50.583  1.00  0.00     0.025 C 
HETATM   20  C   UNL     1       5.450  28.844  52.007  1.00  0.00     0.037 C 
HETATM   21  C   UNL     1       5.053  27.758  52.997  1.00  0.00     0.235 C 
BRANCH  19  22
HETATM   22  C   UNL     1       3.466  28.648  50.417  1.00  0.00    -0.018 A 
HETATM   23  C   UNL     1       2.664  28.260  49.313  1.00  0.00     0.147 A 
HETATM   24  N   UNL     1       1.372  28.526  49.491  1.00  0.00    -0.187 NA
HETATM   25  N   UNL     1       1.305  28.983  50.747  1.00  0.00    -0.289 N 
HETATM   26  H   UNL     1       0.392  29.200  51.136  1.00  0.00     0.188 HD
HETATM   27  C   UNL     1       2.534  29.094  51.336  1.00  0.00     0.118 A 
ENDBRANCH  19  22
ENDBRANCH   1  15
TORSDOF 6
ENDMDL
MODEL 8
REMARK VINA RESULT:      -8.2      2.947      4.514
REMARK  6 active torsions:
REMARK  status: ('A' for Active; 'I' for Inactive)
REMARK    1  A    between atoms: C_3  and  C_4 
REMARK    2  A    between atoms: C_9  and  C_10 
REMARK    3  A    between atoms: C_10  and  O_11 
REMARK    4  A    between atoms: C_10  and  C_12 
REMARK    5  A    between atoms: C_12  and  N_13 
REMARK    6  A    between atoms: C_17  and  C_18 
ROOT
HETATM    1  C   UNL     1       8.742  28.501  56.940  1.00  0.00     0.271 C 
ENDROOT
BRANCH   1   2
HETATM    2  C   UNL     1       7.793  28.163  55.758  1.00  0.00     0.177 C 
BRANCH   2   3
HETATM    3  C   UNL     1       7.526  26.679  55.621  1.00  0.00    -0.027 A 
HETATM    4  C   UNL     1       7.346  26.069  54.367  1.00  0.00     0.025 A 
HETATM    5  C   UNL     1       7.125  24.684  54.254  1.00  0.00     0.048 A 
HETATM    6  C   UNL     1       7.070  23.909  55.418  1.00  0.00     0.016 A 
HETATM    7  C   UNL     1       7.240  24.503  56.668  1.00  0.00     0.001 A 
HETATM    8  C   UNL     1       7.470  25.876  56.770  1.00  0.00     0.010 A 
BRANCH   5   9
HETATM    9  C   UNL     1       6.934  24.062  52.888  1.00  0.00     0.417 C 
HETATM   10  F   UNL     1       5.671  24.180  52.402  1.00  0.00    -0.166 F 
HETATM   11  F   UNL     1       7.762  24.598  51.955  1.00  0.00    -0.166 F 
HETATM   12  F   UNL     1       7.208  22.727  52.912  1.00  0.00    -0.166 F 
ENDBRANCH   5   9
ENDBRANCH   2   3
BRANCH   2  13
HETATM   13  O   UNL     1       8.303  28.708  54.543  1.00  0.00    -0.389 OA
HETATM   14  H   UNL     1       7.862  29.571  54.410  1.00  0.00     0.210 HD
ENDBRANCH   2  13
ENDBRANCH   1   2
BRANCH   1  15
HETATM   15  N   UNL     1       8.613  29.941  57.472  1.00  0.00    -0.068 N 
HETATM   16  H   UNL     1       8.593  30.561  56.651  1.00  0.00     0.280 HD
HETATM   17  C   UNL     1       7.326  30.163  58.243  1.00  0.00     0.235 C 
HETATM   18  C   UNL     1       7.257  31.601  58.743  1.00  0.00     0.037 C 
HETATM   19  C   UNL     1       8.462  31.973  59.621  1.00  0.00     0.025 C 
HETATM   20  C   UNL     1       9.736  31.730  58.800  1.00  0.00     0.037 C 
HETATM   21  C   UNL     1       9.832  30.299  58.290  1.00  0.00     0.235 C 
BRANCH  19  22
HETATM   22  C   UNL     1       8.454  31.276  60.957  1.00  0.00    -0.018 A 
HETATM   23  C   UNL     1       7.502  31.369  62.004  1.00  0.00     0.147 A 
HETATM   24  N   UNL     1       7.824  30.634  63.066  1.00  0.00    -0.187 NA
HETATM   25  N   UNL     1       8.922  29.973  62.681  1.00  0.00    -0.289 N 
HETATM   26  H   UNL     1       9.327  29.292  63.318  1.00  0.00     0.188 HD
HETATM   27  C   UNL     1       9.350  30.337  61.435  1.00  0.00     0.118 A 
ENDBRANCH  19  22
ENDBRANCH   1  15
TORSDOF 6
ENDMDL
MODEL 9
REMARK VINA RESULT:      -8.1      1.618      2.076
REMARK  6 active torsions:
REMARK  status: ('A' for Active; 'I' for Inactive)
REMARK    1  A    between atoms: C_3  and  C_4 
REMARK    2  A    between atoms: C_9  and  C_10 
REMARK    3  A    between atoms: C_10  and  O_11 
REMARK    4  A    between atoms: C_10  and  C_12 
REMARK    5  A    between atoms: C_12  and  N_13 
REMARK    6  A    between atoms: C_17  and  C_18 
ROOT
HETATM    1  C   UNL     1       7.138  26.378  54.538  1.00  0.00     0.271 C 
ENDROOT
BRANCH   1   2
HETATM    2  C   UNL     1       6.298  25.073  54.577  1.00  0.00     0.177 C 
BRANCH   2   3
HETATM    3  C   UNL     1       7.100  23.866  55.017  1.00  0.00    -0.027 A 
HETATM    4  C   UNL     1       7.363  22.791  54.149  1.00  0.00     0.025 A 
HETATM    5  C   UNL     1       8.133  21.689  54.565  1.00  0.00     0.048 A 
HETATM    6  C   UNL     1       8.629  21.664  55.873  1.00  0.00     0.016 A 
HETATM    7  C   UNL     1       8.371  22.720  56.746  1.00  0.00     0.001 A 
HETATM    8  C   UNL     1       7.615  23.815  56.321  1.00  0.00     0.010 A 
BRANCH   5   9
HETATM    9  C   UNL     1       8.395  20.550  53.604  1.00  0.00     0.417 C 
HETATM   10  F   UNL     1       9.387  20.802  52.712  1.00  0.00    -0.166 F 
HETATM   11  F   UNL     1       8.728  19.400  54.244  1.00  0.00    -0.166 F 
HETATM   12  F   UNL     1       7.285  20.263  52.866  1.00  0.00    -0.166 F 
ENDBRANCH   5   9
ENDBRANCH   2   3
BRANCH   2  13
HETATM   13  O   UNL     1       5.679  24.845  53.313  1.00  0.00    -0.389 OA
HETATM   14  H   UNL     1       6.398  24.729  52.660  1.00  0.00     0.210 HD
ENDBRANCH   2  13
ENDBRANCH   1   2
BRANCH   1  15
HETATM   15  N   UNL     1       6.820  27.376  55.668  1.00  0.00    -0.068 N 
HETATM   16  H   UNL     1       5.821  27.269  55.887  1.00  0.00     0.280 HD
HETATM   17  C   UNL     1       7.600  27.087  56.936  1.00  0.00     0.235 C 
HETATM   18  C   UNL     1       7.246  28.107  58.012  1.00  0.00     0.037 C 
HETATM   19  C   UNL     1       7.505  29.550  57.559  1.00  0.00     0.025 C 
HETATM   20  C   UNL     1       6.698  29.793  56.275  1.00  0.00     0.037 C 
HETATM   21  C   UNL     1       7.036  28.790  55.180  1.00  0.00     0.235 C 
BRANCH  19  22
HETATM   22  C   UNL     1       8.972  29.872  57.427  1.00  0.00    -0.018 A 
HETATM   23  C   UNL     1       9.914  29.365  56.496  1.00  0.00     0.147 A 
HETATM   24  N   UNL     1      11.141  29.844  56.686  1.00  0.00    -0.187 NA
HETATM   25  N   UNL     1      10.989  30.745  57.665  1.00  0.00    -0.289 N 
HETATM   26  H   UNL     1      11.796  31.295  57.948  1.00  0.00     0.188 HD
HETATM   27  C   UNL     1       9.714  30.784  58.155  1.00  0.00     0.118 A 
ENDBRANCH  19  22
ENDBRANCH   1  15
TORSDOF 6
ENDMDL
MODEL 10
REMARK VINA RESULT:      -8.1      5.590      7.103
REMARK  6 active torsions:
REMARK  status: ('A' for Active; 'I' for Inactive)
REMARK    1  A    between atoms: C_3  and  C_4 
REMARK    2  A    between atoms: C_9  and  C_10 
REMARK    3  A    between atoms: C_10  and  O_11 
REMARK    4  A    between atoms: C_10  and  C_12 
REMARK    5  A    between atoms: C_12  and  N_13 
REMARK    6  A    between atoms: C_17  and  C_18 
ROOT
HETATM    1  C   UNL     1       5.003  25.556  51.235  1.00  0.00     0.271 C 
ENDROOT
BRANCH   1   2
HETATM    2  C   UNL     1       5.103  26.173  52.656  1.00  0.00     0.177 C 
BRANCH   2   3
HETATM    3  C   UNL     1       5.812  25.270  53.644  1.00  0.00    -0.027 A 
HETATM    4  C   UNL     1       6.568  24.160  53.227  1.00  0.00     0.025 A 
HETATM    5  C   UNL     1       7.243  23.346  54.155  1.00  0.00     0.048 A 
HETATM    6  C   UNL     1       7.141  23.646  55.519  1.00  0.00     0.016 A 
HETATM    7  C   UNL     1       6.390  24.739  55.946  1.00  0.00     0.001 A 
HETATM    8  C   UNL     1       5.733  25.548  55.017  1.00  0.00     0.010 A 
BRANCH   5   9
HETATM    9  C   UNL     1       8.046  22.160  53.670  1.00  0.00     0.417 C 
HETATM   10  F   UNL     1       7.984  21.967  52.327  1.00  0.00    -0.166 F 
HETATM   11  F   UNL     1       9.362  22.261  53.990  1.00  0.00    -0.166 F 
HETATM   12  F   UNL     1       7.608  21.001  54.240  1.00  0.00    -0.166 F 
ENDBRANCH   5   9
ENDBRANCH   2   3
BRANCH   2  13
HETATM   13  O   UNL     1       3.809  26.537  53.131  1.00  0.00    -0.389 OA
HETATM   14  H   UNL     1       3.770  26.283  54.075  1.00  0.00     0.210 HD
ENDBRANCH   2  13
ENDBRANCH   1   2
BRANCH   1  15
HETATM   15  N   UNL     1       5.360  26.524  50.091  1.00  0.00    -0.068 N 
HETATM   16  H   UNL     1       6.342  26.343  49.844  1.00  0.00     0.280 HD
HETATM   17  C   UNL     1       4.525  26.290  48.848  1.00  0.00     0.235 C 
HETATM   18  C   UNL     1       4.923  27.277  47.756  1.00  0.00     0.037 C 
HETATM   19  C   UNL     1       4.784  28.737  48.210  1.00  0.00     0.025 C 
HETATM   20  C   UNL     1       5.643  28.923  49.468  1.00  0.00     0.037 C 
HETATM   21  C   UNL     1       5.264  27.952  50.578  1.00  0.00     0.235 C 
BRANCH  19  22
HETATM   22  C   UNL     1       3.349  29.167  48.381  1.00  0.00    -0.018 A 
HETATM   23  C   UNL     1       2.810  30.137  49.264  1.00  0.00     0.147 A 
HETATM   24  N   UNL     1       1.487  30.243  49.173  1.00  0.00    -0.187 NA
HETATM   25  N   UNL     1       1.165  29.429  48.160  1.00  0.00    -0.289 N 
HETATM   26  H   UNL     1       0.195  29.387  47.861  1.00  0.00     0.188 HD
HETATM   27  C   UNL     1       2.242  28.747  47.666  1.00  0.00     0.118 A 
ENDBRANCH  19  22
ENDBRANCH   1  15
TORSDOF 6
ENDMDL
