MODEL 1
REMARK VINA RESULT:      -7.2      0.000      0.000
REMARK  2 active torsions:
REMARK  status: ('A' for Active; 'I' for Inactive)
REMARK    1  A    between atoms: C_2  and  C_3 
REMARK    2  A    between atoms: C_4  and  N_5 
ROOT
HETATM    1  N   UNL     1       6.764  26.374  57.085  1.00  0.00    -0.321 N 
HETATM    2  C   UNL     1       5.386  26.761  56.987  1.00  0.00     0.141 C 
HETATM    3  N   UNL     1       4.424  25.887  56.894  1.00  0.00    -0.380 N 
HETATM    4  H   UNL     1       4.654  24.903  56.919  1.00  0.00     0.158 HD
HETATM    5  H   UNL     1       3.468  26.201  56.808  1.00  0.00     0.158 HD
HETATM    6  S   UNL     1       5.151  28.470  56.934  1.00  0.00    -0.086 SA
HETATM    7  C   UNL     1       6.892  28.687  56.440  1.00  0.00     0.093 C 
HETATM    8  C   UNL     1       7.625  27.567  57.208  1.00  0.00     0.121 C 
HETATM    9  C   UNL     1       7.654  29.949  56.762  1.00  0.00     0.158 C 
HETATM   10  S   UNL     1       9.364  29.379  56.651  1.00  0.00     0.147 S 
HETATM   11  O   UNL     1       9.884  29.739  55.349  1.00  0.00    -0.228 OA
HETATM   12  O   UNL     1      10.037  29.724  57.885  1.00  0.00    -0.228 OA
HETATM   13  C   UNL     1       9.032  27.606  56.659  1.00  0.00     0.167 C 
ENDROOT
BRANCH   1  14
HETATM   14  C   UNL     1       7.305  25.203  56.537  1.00  0.00     0.043 A 
HETATM   15  C   UNL     1       7.287  24.899  55.161  1.00  0.00    -0.028 A 
HETATM   16  C   UNL     1       7.884  23.681  54.748  1.00  0.00     0.010 A 
HETATM   17  C   UNL     1       8.483  22.801  55.647  1.00  0.00     0.001 A 
HETATM   18  C   UNL     1       8.512  23.115  56.994  1.00  0.00     0.002 A 
HETATM   19  C   UNL     1       7.932  24.304  57.431  1.00  0.00     0.030 A 
BRANCH  15  20
HETATM   20  C   UNL     1       6.737  25.763  54.024  1.00  0.00     0.013 C 
HETATM   21  C   UNL     1       5.360  25.425  53.454  1.00  0.00     0.015 C 
HETATM   22  C   UNL     1       7.756  25.885  52.882  1.00  0.00     0.015 C 
ENDBRANCH  15  20
ENDBRANCH   1  14
TORSDOF 2
ENDMDL
MODEL 2
REMARK VINA RESULT:      -6.9      1.653      2.837
REMARK  2 active torsions:
REMARK  status: ('A' for Active; 'I' for Inactive)
REMARK    1  A    between atoms: C_2  and  C_3 
REMARK    2  A    between atoms: C_4  and  N_5 
ROOT
HETATM    1  N   UNL     1       5.818  26.952  54.874  1.00  0.00    -0.321 N 
HETATM    2  C   UNL     1       4.699  27.661  54.324  1.00  0.00     0.141 C 
HETATM    3  N   UNL     1       3.910  27.130  53.432  1.00  0.00    -0.380 N 
HETATM    4  H   UNL     1       4.076  26.177  53.138  1.00  0.00     0.158 HD
HETATM    5  H   UNL     1       3.144  27.670  53.056  1.00  0.00     0.158 HD
HETATM    6  S   UNL     1       4.556  29.281  54.902  1.00  0.00    -0.086 SA
HETATM    7  C   UNL     1       6.303  29.243  55.419  1.00  0.00     0.093 C 
HETATM    8  C   UNL     1       6.510  27.784  55.878  1.00  0.00     0.121 C 
HETATM    9  C   UNL     1       6.808  30.091  56.561  1.00  0.00     0.158 C 
HETATM   10  S   UNL     1       8.317  29.212  57.024  1.00  0.00     0.147 S 
HETATM   11  O   UNL     1       9.444  29.879  56.409  1.00  0.00    -0.228 OA
HETATM   12  O   UNL     1       8.256  28.926  58.442  1.00  0.00    -0.228 OA
HETATM   13  C   UNL     1       7.998  27.684  56.121  1.00  0.00     0.167 C 
ENDROOT
BRANCH   1  14
HETATM   14  C   UNL     1       6.544  25.961  54.200  1.00  0.00     0.043 A 
HETATM   15  C   UNL     1       6.912  24.728  54.777  1.00  0.00    -0.028 A 
HETATM   16  C   UNL     1       7.636  23.814  53.971  1.00  0.00     0.010 A 
HETATM   17  C   UNL     1       7.978  24.093  52.649  1.00  0.00     0.001 A 
HETATM   18  C   UNL     1       7.599  25.298  52.085  1.00  0.00     0.002 A 
HETATM   19  C   UNL     1       6.889  26.217  52.852  1.00  0.00     0.030 A 
BRANCH  15  20
HETATM   20  C   UNL     1       6.573  24.220  56.180  1.00  0.00     0.013 C 
HETATM   21  C   UNL     1       5.435  24.896  56.944  1.00  0.00     0.015 C 
HETATM   22  C   UNL     1       7.828  24.160  57.062  1.00  0.00     0.015 C 
ENDBRANCH  15  20
ENDBRANCH   1  14
TORSDOF 2
ENDMDL
MODEL 3
REMARK VINA RESULT:      -6.8      9.657     11.652
REMARK  2 active torsions:
REMARK  status: ('A' for Active; 'I' for Inactive)
REMARK    1  A    between atoms: C_2  and  C_3 
REMARK    2  A    between atoms: C_4  and  N_5 
ROOT
HETATM    1  N   UNL     1       4.469  34.609  62.933  1.00  0.00    -0.321 N 
HETATM    2  C   UNL     1       3.272  33.981  62.452  1.00  0.00     0.141 C 
HETATM    3  N   UNL     1       3.030  32.714  62.637  1.00  0.00    -0.380 N 
HETATM    4  H   UNL     1       3.695  32.160  63.160  1.00  0.00     0.158 HD
HETATM    5  H   UNL     1       2.185  32.305  62.266  1.00  0.00     0.158 HD
HETATM    6  S   UNL     1       2.246  35.043  61.560  1.00  0.00    -0.086 SA
HETATM    7  C   UNL     1       3.653  36.172  61.298  1.00  0.00     0.093 C 
HETATM    8  C   UNL     1       4.460  36.049  62.608  1.00  0.00     0.121 C 
HETATM    9  C   UNL     1       3.450  37.654  61.097  1.00  0.00     0.158 C 
HETATM   10  S   UNL     1       5.078  38.304  61.535  1.00  0.00     0.147 S 
HETATM   11  O   UNL     1       5.824  38.532  60.316  1.00  0.00    -0.228 OA
HETATM   12  O   UNL     1       4.900  39.325  62.545  1.00  0.00    -0.228 OA
HETATM   13  C   UNL     1       5.728  36.822  62.331  1.00  0.00     0.167 C 
ENDROOT
BRANCH   1  14
HETATM   14  C   UNL     1       5.700  33.961  63.096  1.00  0.00     0.043 A 
HETATM   15  C   UNL     1       6.369  33.847  64.332  1.00  0.00    -0.028 A 
HETATM   16  C   UNL     1       7.604  33.151  64.350  1.00  0.00     0.010 A 
HETATM   17  C   UNL     1       8.157  32.581  63.205  1.00  0.00     0.001 A 
HETATM   18  C   UNL     1       7.486  32.683  61.999  1.00  0.00     0.002 A 
HETATM   19  C   UNL     1       6.272  33.362  61.949  1.00  0.00     0.030 A 
BRANCH  15  20
HETATM   20  C   UNL     1       5.893  34.346  65.698  1.00  0.00     0.013 C 
HETATM   21  C   UNL     1       6.823  34.174  66.899  1.00  0.00     0.015 C 
HETATM   22  C   UNL     1       4.503  33.790  66.034  1.00  0.00     0.015 C 
ENDBRANCH  15  20
ENDBRANCH   1  14
TORSDOF 2
ENDMDL
MODEL 4
REMARK VINA RESULT:      -6.6      3.162      4.489
REMARK  2 active torsions:
REMARK  status: ('A' for Active; 'I' for Inactive)
REMARK    1  A    between atoms: C_2  and  C_3 
REMARK    2  A    between atoms: C_4  and  N_5 
ROOT
HETATM    1  N   UNL     1       5.754  28.622  55.945  1.00  0.00    -0.321 N 
HETATM    2  C   UNL     1       4.747  29.316  56.695  1.00  0.00     0.141 C 
HETATM    3  N   UNL     1       4.674  29.243  57.994  1.00  0.00    -0.380 N 
HETATM    4  H   UNL     1       5.367  28.702  58.493  1.00  0.00     0.158 HD
HETATM    5  H   UNL     1       3.938  29.731  58.484  1.00  0.00     0.158 HD
HETATM    6  S   UNL     1       3.623  30.177  55.708  1.00  0.00    -0.086 SA
HETATM    7  C   UNL     1       4.105  29.155  54.279  1.00  0.00     0.093 C 
HETATM    8  C   UNL     1       5.612  28.911  54.504  1.00  0.00     0.121 C 
HETATM    9  C   UNL     1       3.998  29.673  52.865  1.00  0.00     0.158 C 
HETATM   10  S   UNL     1       5.152  28.590  51.994  1.00  0.00     0.147 S 
HETATM   11  O   UNL     1       4.398  27.531  51.359  1.00  0.00    -0.228 OA
HETATM   12  O   UNL     1       6.094  29.420  51.274  1.00  0.00    -0.228 OA
HETATM   13  C   UNL     1       5.984  27.905  53.440  1.00  0.00     0.167 C 
ENDROOT
BRANCH   1  14
HETATM   14  C   UNL     1       6.354  27.419  56.338  1.00  0.00     0.043 A 
HETATM   15  C   UNL     1       7.660  27.327  56.861  1.00  0.00    -0.028 A 
HETATM   16  C   UNL     1       8.133  26.042  57.229  1.00  0.00     0.010 A 
HETATM   17  C   UNL     1       7.354  24.894  57.098  1.00  0.00     0.001 A 
HETATM   18  C   UNL     1       6.067  24.995  56.599  1.00  0.00     0.002 A 
HETATM   19  C   UNL     1       5.575  26.243  56.228  1.00  0.00     0.030 A 
BRANCH  15  20
HETATM   20  C   UNL     1       8.635  28.473  57.137  1.00  0.00     0.013 C 
HETATM   21  C   UNL     1       8.291  29.469  58.245  1.00  0.00     0.015 C 
HETATM   22  C   UNL     1       8.977  29.230  55.847  1.00  0.00     0.015 C 
ENDBRANCH  15  20
ENDBRANCH   1  14
TORSDOF 2
ENDMDL
MODEL 5
REMARK VINA RESULT:      -6.6      1.770      2.182
REMARK  2 active torsions:
REMARK  status: ('A' for Active; 'I' for Inactive)
REMARK    1  A    between atoms: C_2  and  C_3 
REMARK    2  A    between atoms: C_4  and  N_5 
ROOT
HETATM    1  N   UNL     1       5.821  27.925  57.143  1.00  0.00    -0.321 N 
HETATM    2  C   UNL     1       4.682  28.662  56.675  1.00  0.00     0.141 C 
HETATM    3  N   UNL     1       3.729  28.104  55.985  1.00  0.00    -0.380 N 
HETATM    4  H   UNL     1       3.779  27.112  55.796  1.00  0.00     0.158 HD
HETATM    5  H   UNL     1       2.953  28.662  55.657  1.00  0.00     0.158 HD
HETATM    6  S   UNL     1       4.747  30.345  57.053  1.00  0.00    -0.086 SA
HETATM    7  C   UNL     1       6.546  30.211  57.310  1.00  0.00     0.093 C 
HETATM    8  C   UNL     1       6.718  28.804  57.919  1.00  0.00     0.121 C 
HETATM    9  C   UNL     1       7.282  31.138  58.246  1.00  0.00     0.158 C 
HETATM   10  S   UNL     1       8.778  30.188  58.595  1.00  0.00     0.147 S 
HETATM   11  O   UNL     1       9.840  30.674  57.741  1.00  0.00    -0.228 OA
HETATM   12  O   UNL     1       8.919  30.078  60.032  1.00  0.00    -0.228 OA
HETATM   13  C   UNL     1       8.214  28.599  57.954  1.00  0.00     0.167 C 
ENDROOT
BRANCH   1  14
HETATM   14  C   UNL     1       6.360  26.800  56.506  1.00  0.00     0.043 A 
HETATM   15  C   UNL     1       6.923  26.825  55.213  1.00  0.00    -0.028 A 
HETATM   16  C   UNL     1       7.444  25.611  54.699  1.00  0.00     0.010 A 
HETATM   17  C   UNL     1       7.422  24.422  55.425  1.00  0.00     0.001 A 
HETATM   18  C   UNL     1       6.883  24.410  56.700  1.00  0.00     0.002 A 
HETATM   19  C   UNL     1       6.363  25.587  57.232  1.00  0.00     0.030 A 
BRANCH  15  20
HETATM   20  C   UNL     1       7.093  28.037  54.295  1.00  0.00     0.013 C 
HETATM   21  C   UNL     1       6.667  27.908  52.833  1.00  0.00     0.015 C 
HETATM   22  C   UNL     1       8.523  28.590  54.372  1.00  0.00     0.015 C 
ENDBRANCH  15  20
ENDBRANCH   1  14
TORSDOF 2
ENDMDL
MODEL 6
REMARK VINA RESULT:      -6.4      3.919      7.263
REMARK  2 active torsions:
REMARK  status: ('A' for Active; 'I' for Inactive)
REMARK    1  A    between atoms: C_2  and  C_3 
REMARK    2  A    between atoms: C_4  and  N_5 
ROOT
HETATM    1  N   UNL     1       8.421  30.117  58.321  1.00  0.00    -0.321 N 
HETATM    2  C   UNL     1       9.638  30.495  57.661  1.00  0.00     0.141 C 
HETATM    3  N   UNL     1      10.360  31.504  58.059  1.00  0.00    -0.380 N 
HETATM    4  H   UNL     1      10.068  32.021  58.878  1.00  0.00     0.158 HD
HETATM    5  H   UNL     1      11.200  31.749  57.556  1.00  0.00     0.158 HD
HETATM    6  S   UNL     1       9.995  29.537  56.270  1.00  0.00    -0.086 SA
HETATM    7  C   UNL     1       8.251  29.014  56.191  1.00  0.00     0.093 C 
HETATM    8  C   UNL     1       7.834  28.926  57.674  1.00  0.00     0.121 C 
HETATM    9  C   UNL     1       7.849  27.689  55.590  1.00  0.00     0.158 C 
HETATM   10  S   UNL     1       6.225  27.430  56.337  1.00  0.00     0.147 S 
HETATM   11  O   UNL     1       5.212  27.841  55.389  1.00  0.00    -0.228 OA
HETATM   12  O   UNL     1       6.222  26.128  56.970  1.00  0.00    -0.228 OA
HETATM   13  C   UNL     1       6.344  28.689  57.624  1.00  0.00     0.167 C 
ENDROOT
BRANCH   1  14
HETATM   14  C   UNL     1       7.576  31.001  59.004  1.00  0.00     0.043 A 
HETATM   15  C   UNL     1       7.731  31.344  60.362  1.00  0.00    -0.028 A 
HETATM   16  C   UNL     1       6.807  32.264  60.919  1.00  0.00     0.010 A 
HETATM   17  C   UNL     1       5.777  32.831  60.172  1.00  0.00     0.001 A 
HETATM   18  C   UNL     1       5.641  32.502  58.835  1.00  0.00     0.002 A 
HETATM   19  C   UNL     1       6.533  31.601  58.260  1.00  0.00     0.030 A 
BRANCH  15  20
HETATM   20  C   UNL     1       8.830  30.878  61.320  1.00  0.00     0.013 C 
HETATM   21  C   UNL     1       8.428  30.436  62.727  1.00  0.00     0.015 C 
HETATM   22  C   UNL     1       9.963  31.910  61.404  1.00  0.00     0.015 C 
ENDBRANCH  15  20
ENDBRANCH   1  14
TORSDOF 2
ENDMDL
MODEL 7
REMARK VINA RESULT:      -6.4      7.949      9.784
REMARK  2 active torsions:
REMARK  status: ('A' for Active; 'I' for Inactive)
REMARK    1  A    between atoms: C_2  and  C_3 
REMARK    2  A    between atoms: C_4  and  N_5 
ROOT
HETATM    1  N   UNL     1       4.876  33.140  62.115  1.00  0.00    -0.321 N 
HETATM    2  C   UNL     1       3.546  32.658  62.352  1.00  0.00     0.141 C 
HETATM    3  N   UNL     1       3.192  31.433  62.082  1.00  0.00    -0.380 N 
HETATM    4  H   UNL     1       3.885  30.793  61.717  1.00  0.00     0.158 HD
HETATM    5  H   UNL     1       2.240  31.138  62.245  1.00  0.00     0.158 HD
HETATM    6  S   UNL     1       2.470  33.867  62.953  1.00  0.00    -0.086 SA
HETATM    7  C   UNL     1       3.595  35.163  62.339  1.00  0.00     0.093 C 
HETATM    8  C   UNL     1       4.996  34.548  62.543  1.00  0.00     0.121 C 
HETATM    9  C   UNL     1       3.664  36.523  62.989  1.00  0.00     0.158 C 
HETATM   10  S   UNL     1       5.286  37.102  62.447  1.00  0.00     0.147 S 
HETATM   11  O   UNL     1       5.106  37.974  61.306  1.00  0.00    -0.228 OA
HETATM   12  O   UNL     1       6.041  37.494  63.619  1.00  0.00    -0.228 OA
HETATM   13  C   UNL     1       5.927  35.522  61.859  1.00  0.00     0.167 C 
ENDROOT
BRANCH   1  14
HETATM   14  C   UNL     1       5.731  32.662  61.113  1.00  0.00     0.043 A 
HETATM   15  C   UNL     1       6.954  32.010  61.370  1.00  0.00    -0.028 A 
HETATM   16  C   UNL     1       7.711  31.568  60.256  1.00  0.00     0.010 A 
HETATM   17  C   UNL     1       7.282  31.750  58.943  1.00  0.00     0.001 A 
HETATM   18  C   UNL     1       6.073  32.376  58.699  1.00  0.00     0.002 A 
HETATM   19  C   UNL     1       5.307  32.823  59.773  1.00  0.00     0.030 A 
BRANCH  15  20
HETATM   20  C   UNL     1       7.556  31.664  62.734  1.00  0.00     0.013 C 
HETATM   21  C   UNL     1       8.018  32.809  63.636  1.00  0.00     0.015 C 
HETATM   22  C   UNL     1       8.678  30.627  62.595  1.00  0.00     0.015 C 
ENDBRANCH  15  20
ENDBRANCH   1  14
TORSDOF 2
ENDMDL
MODEL 8
REMARK VINA RESULT:      -6.3     10.293     12.535
REMARK  2 active torsions:
REMARK  status: ('A' for Active; 'I' for Inactive)
REMARK    1  A    between atoms: C_2  and  C_3 
REMARK    2  A    between atoms: C_4  and  N_5 
ROOT
HETATM    1  N   UNL     1       3.494  35.492  63.896  1.00  0.00    -0.321 N 
HETATM    2  C   UNL     1       2.772  34.602  63.034  1.00  0.00     0.141 C 
HETATM    3  N   UNL     1       2.244  33.492  63.466  1.00  0.00    -0.380 N 
HETATM    4  H   UNL     1       2.322  33.263  64.448  1.00  0.00     0.158 HD
HETATM    5  H   UNL     1       1.760  32.882  62.822  1.00  0.00     0.158 HD
HETATM    6  S   UNL     1       2.742  35.112  61.385  1.00  0.00    -0.086 SA
HETATM    7  C   UNL     1       4.178  36.189  61.699  1.00  0.00     0.093 C 
HETATM    8  C   UNL     1       3.950  36.679  63.144  1.00  0.00     0.121 C 
HETATM    9  C   UNL     1       4.417  37.442  60.892  1.00  0.00     0.158 C 
HETATM   10  S   UNL     1       5.497  38.381  61.994  1.00  0.00     0.147 S 
HETATM   11  O   UNL     1       6.867  38.190  61.568  1.00  0.00    -0.228 OA
HETATM   12  O   UNL     1       4.914  39.692  62.188  1.00  0.00    -0.228 OA
HETATM   13  C   UNL     1       5.226  37.410  63.489  1.00  0.00     0.167 C 
ENDROOT
BRANCH   1  14
HETATM   14  C   UNL     1       4.210  35.096  65.033  1.00  0.00     0.043 A 
HETATM   15  C   UNL     1       5.318  34.226  65.000  1.00  0.00    -0.028 A 
HETATM   16  C   UNL     1       5.955  33.922  66.230  1.00  0.00     0.010 A 
HETATM   17  C   UNL     1       5.526  34.456  67.444  1.00  0.00     0.001 A 
HETATM   18  C   UNL     1       4.447  35.322  67.466  1.00  0.00     0.002 A 
HETATM   19  C   UNL     1       3.801  35.639  66.274  1.00  0.00     0.030 A 
BRANCH  15  20
HETATM   20  C   UNL     1       5.970  33.596  63.767  1.00  0.00     0.013 C 
HETATM   21  C   UNL     1       5.399  32.282  63.235  1.00  0.00     0.015 C 
HETATM   22  C   UNL     1       7.488  33.466  63.951  1.00  0.00     0.015 C 
ENDBRANCH  15  20
ENDBRANCH   1  14
TORSDOF 2
ENDMDL
MODEL 9
REMARK VINA RESULT:      -6.2      8.223     11.167
REMARK  2 active torsions:
REMARK  status: ('A' for Active; 'I' for Inactive)
REMARK    1  A    between atoms: C_2  and  C_3 
REMARK    2  A    between atoms: C_4  and  N_5 
ROOT
HETATM    1  N   UNL     1       4.584  34.128  62.013  1.00  0.00    -0.321 N 
HETATM    2  C   UNL     1       3.378  33.643  61.406  1.00  0.00     0.141 C 
HETATM    3  N   UNL     1       2.197  34.008  61.818  1.00  0.00    -0.380 N 
HETATM    4  H   UNL     1       2.128  34.677  62.573  1.00  0.00     0.158 HD
HETATM    5  H   UNL     1       1.372  33.629  61.377  1.00  0.00     0.158 HD
HETATM    6  S   UNL     1       3.653  32.493  60.149  1.00  0.00    -0.086 SA
HETATM    7  C   UNL     1       5.326  32.188  60.802  1.00  0.00     0.093 C 
HETATM    8  C   UNL     1       5.766  33.572  61.324  1.00  0.00     0.121 C 
HETATM    9  C   UNL     1       6.452  31.728  59.909  1.00  0.00     0.158 C 
HETATM   10  S   UNL     1       7.901  32.209  60.874  1.00  0.00     0.147 S 
HETATM   11  O   UNL     1       8.380  31.049  61.593  1.00  0.00    -0.228 OA
HETATM   12  O   UNL     1       8.758  33.017  60.032  1.00  0.00    -0.228 OA
HETATM   13  C   UNL     1       7.064  33.297  62.045  1.00  0.00     0.167 C 
ENDROOT
BRANCH   1  14
HETATM   14  C   UNL     1       4.703  34.515  63.354  1.00  0.00     0.043 A 
HETATM   15  C   UNL     1       4.898  35.847  63.773  1.00  0.00    -0.028 A 
HETATM   16  C   UNL     1       4.987  36.093  65.166  1.00  0.00     0.010 A 
HETATM   17  C   UNL     1       4.882  35.074  66.112  1.00  0.00     0.001 A 
HETATM   18  C   UNL     1       4.675  33.772  65.694  1.00  0.00     0.002 A 
HETATM   19  C   UNL     1       4.584  33.499  64.331  1.00  0.00     0.030 A 
BRANCH  15  20
HETATM   20  C   UNL     1       4.973  37.097  62.894  1.00  0.00     0.013 C 
HETATM   21  C   UNL     1       5.787  38.290  63.395  1.00  0.00     0.015 C 
HETATM   22  C   UNL     1       3.571  37.564  62.477  1.00  0.00     0.015 C 
ENDBRANCH  15  20
ENDBRANCH   1  14
TORSDOF 2
ENDMDL
MODEL 10
REMARK VINA RESULT:      -6.0      3.134      4.128
REMARK  2 active torsions:
REMARK  status: ('A' for Active; 'I' for Inactive)
REMARK    1  A    between atoms: C_2  and  C_3 
REMARK    2  A    between atoms: C_4  and  N_5 
ROOT
HETATM    1  N   UNL     1       4.298  28.161  55.462  1.00  0.00    -0.321 N 
HETATM    2  C   UNL     1       4.018  28.288  54.061  1.00  0.00     0.141 C 
HETATM    3  N   UNL     1       4.118  27.283  53.238  1.00  0.00    -0.380 N 
HETATM    4  H   UNL     1       4.376  26.376  53.603  1.00  0.00     0.158 HD
HETATM    5  H   UNL     1       3.931  27.419  52.255  1.00  0.00     0.158 HD
HETATM    6  S   UNL     1       3.614  29.896  53.582  1.00  0.00    -0.086 SA
HETATM    7  C   UNL     1       4.385  30.536  55.104  1.00  0.00     0.093 C 
HETATM    8  C   UNL     1       4.072  29.447  56.151  1.00  0.00     0.121 C 
HETATM    9  C   UNL     1       3.934  31.831  55.735  1.00  0.00     0.158 C 
HETATM   10  S   UNL     1       4.524  31.632  57.431  1.00  0.00     0.147 S 
HETATM   11  O   UNL     1       5.780  32.338  57.566  1.00  0.00    -0.228 OA
HETATM   12  O   UNL     1       3.406  31.846  58.326  1.00  0.00    -0.228 OA
HETATM   13  C   UNL     1       4.870  29.863  57.364  1.00  0.00     0.167 C 
ENDROOT
BRANCH   1  14
HETATM   14  C   UNL     1       5.207  27.248  56.014  1.00  0.00     0.043 A 
HETATM   15  C   UNL     1       6.604  27.334  55.849  1.00  0.00    -0.028 A 
HETATM   16  C   UNL     1       7.404  26.346  56.477  1.00  0.00     0.010 A 
HETATM   17  C   UNL     1       6.856  25.320  57.244  1.00  0.00     0.001 A 
HETATM   18  C   UNL     1       5.485  25.252  57.415  1.00  0.00     0.002 A 
HETATM   19  C   UNL     1       4.673  26.207  56.810  1.00  0.00     0.030 A 
BRANCH  15  20
HETATM   20  C   UNL     1       7.388  28.416  55.103  1.00  0.00     0.013 C 
HETATM   21  C   UNL     1       7.973  28.075  53.733  1.00  0.00     0.015 C 
HETATM   22  C   UNL     1       8.479  29.023  55.997  1.00  0.00     0.015 C 
ENDBRANCH  15  20
ENDBRANCH   1  14
TORSDOF 2
ENDMDL
