MODEL 1
REMARK VINA RESULT:     -10.3      0.000      0.000
REMARK  8 active torsions:
REMARK  status: ('A' for Active; 'I' for Inactive)
REMARK    1  A    between atoms: C_2  and  C_3 
REMARK    2  A    between atoms: C_3  and  C_4 
REMARK       I    between atoms: C_4  and  N_5 
REMARK    3  A    between atoms: N_8  and  C_9 
REMARK    4  A    between atoms: C_12  and  N_13 
REMARK    5  A    between atoms: N_13  and  C_14 
REMARK    6  A    between atoms: C_14  and  N_15 
REMARK       I    between atoms: N_15  and  C_16 
REMARK    7  A    between atoms: C_16  and  C_17 
REMARK    8  A    between atoms: C_19  and  C_20 
ROOT
HETATM    1  N   UNL     1       6.018  31.134  57.212  1.00  0.00    -0.333 N 
HETATM    2  H   UNL     1       6.424  31.897  56.672  1.00  0.00     0.168 HD
ENDROOT
BRANCH   1   3
HETATM    3  C   UNL     1       6.451  29.834  56.885  1.00  0.00     0.034 A 
HETATM    4  C   UNL     1       5.621  28.724  57.005  1.00  0.00     0.031 A 
HETATM    5  C   UNL     1       6.114  27.443  56.756  1.00  0.00     0.026 A 
HETATM    6  C   UNL     1       7.453  27.219  56.405  1.00  0.00     0.010 A 
HETATM    7  C   UNL     1       8.238  28.356  56.168  1.00  0.00     0.026 A 
HETATM    8  C   UNL     1       7.740  29.652  56.390  1.00  0.00     0.031 A 
BRANCH   6   9
HETATM    9  N   UNL     1       7.923  25.895  56.309  1.00  0.00    -0.280 NA
HETATM   10  C   UNL     1       7.150  25.101  55.317  1.00  0.00     0.115 C 
HETATM   11  C   UNL     1       7.830  23.752  55.035  1.00  0.00     0.140 C 
HETATM   12  N   UNL     1       8.110  23.002  56.262  1.00  0.00    -0.350 N 
HETATM   13  C   UNL     1       8.107  21.622  56.374  1.00  0.00     0.219 C 
HETATM   14  C   UNL     1       8.817  23.784  57.286  1.00  0.00     0.140 C 
HETATM   15  O   UNL     1       8.571  21.048  57.363  1.00  0.00    -0.273 OA
HETATM   16  C   UNL     1       8.146  25.143  57.566  1.00  0.00     0.115 C 
BRANCH  13  17
HETATM   17  C   UNL     1       7.452  20.791  55.282  1.00  0.00     0.103 C 
BRANCH  17  18
HETATM   18  C   UNL     1       8.472  20.205  54.307  1.00  0.00     0.005 C 
HETATM   19  C   UNL     1       8.302  20.671  52.870  1.00  0.00     0.005 C 
ENDBRANCH  17  18
ENDBRANCH  13  17
ENDBRANCH   6   9
ENDBRANCH   1   3
BRANCH   1  20
HETATM   20  C   UNL     1       5.332  31.530  58.337  1.00  0.00     0.179 C 
HETATM   21  S   UNL     1       3.715  31.951  58.487  1.00  0.00    -0.040 SA
BRANCH  20  22
HETATM   22  N   UNL     1       6.058  31.568  59.502  1.00  0.00    -0.298 N 
HETATM   23  C   UNL     1       7.347  32.010  59.769  1.00  0.00     0.281 C 
HETATM   24  O   UNL     1       8.199  32.181  58.901  1.00  0.00    -0.265 OA
HETATM   25  H   UNL     1       5.499  31.374  60.326  1.00  0.00     0.171 HD
BRANCH  23  26
HETATM   26  C   UNL     1       7.560  32.188  61.190  1.00  0.00     0.144 A 
HETATM   27  O   UNL     1       6.551  32.771  61.909  1.00  0.00    -0.304 OA
HETATM   28  C   UNL     1       6.948  32.866  63.210  1.00  0.00     0.086 A 
HETATM   29  C   UNL     1       8.217  32.333  63.331  1.00  0.00     0.041 A 
HETATM   30  C   UNL     1       8.610  31.900  62.034  1.00  0.00     0.046 A 
BRANCH  28  31
HETATM   31  C   UNL     1       5.979  33.477  64.117  1.00  0.00    -0.002 A 
HETATM   32  C   UNL     1       6.340  33.829  65.425  1.00  0.00     0.016 A 
HETATM   33  C   UNL     1       5.405  34.406  66.296  1.00  0.00     0.024 A 
HETATM   34  C   UNL     1       4.102  34.638  65.864  1.00  0.00     0.034 A 
HETATM   35 CL   UNL     1       2.955  35.343  66.935  1.00  0.00    -0.084 Cl
HETATM   36  C   UNL     1       3.723  34.301  64.569  1.00  0.00     0.024 A 
HETATM   37  C   UNL     1       4.658  33.724  63.703  1.00  0.00     0.016 A 
ENDBRANCH  28  31
ENDBRANCH  23  26
ENDBRANCH  20  22
ENDBRANCH   1  20
TORSDOF 8
ENDMDL
MODEL 2
REMARK VINA RESULT:     -10.0      4.473     12.236
REMARK  8 active torsions:
REMARK  status: ('A' for Active; 'I' for Inactive)
REMARK    1  A    between atoms: C_2  and  C_3 
REMARK    2  A    between atoms: C_3  and  C_4 
REMARK       I    between atoms: C_4  and  N_5 
REMARK    3  A    between atoms: N_8  and  C_9 
REMARK    4  A    between atoms: C_12  and  N_13 
REMARK    5  A    between atoms: N_13  and  C_14 
REMARK    6  A    between atoms: C_14  and  N_15 
REMARK       I    between atoms: N_15  and  C_16 
REMARK    7  A    between atoms: C_16  and  C_17 
REMARK    8  A    between atoms: C_19  and  C_20 
ROOT
HETATM    1  N   UNL     1       9.625  29.945  58.567  1.00  0.00    -0.333 N 
HETATM    2  H   UNL     1      10.610  30.063  58.803  1.00  0.00     0.168 HD
ENDROOT
BRANCH   1   3
HETATM    3  C   UNL     1       8.698  30.596  59.405  1.00  0.00     0.034 A 
HETATM    4  C   UNL     1       7.601  31.287  58.901  1.00  0.00     0.031 A 
HETATM    5  C   UNL     1       6.756  31.992  59.758  1.00  0.00     0.026 A 
HETATM    6  C   UNL     1       6.986  32.056  61.140  1.00  0.00     0.010 A 
HETATM    7  C   UNL     1       8.020  31.252  61.642  1.00  0.00     0.026 A 
HETATM    8  C   UNL     1       8.859  30.517  60.787  1.00  0.00     0.031 A 
BRANCH   6   9
HETATM    9  N   UNL     1       6.182  32.901  61.930  1.00  0.00    -0.280 NA
HETATM   10  C   UNL     1       6.892  33.359  63.154  1.00  0.00     0.115 C 
HETATM   11  C   UNL     1       6.111  34.475  63.864  1.00  0.00     0.140 C 
HETATM   12  N   UNL     1       4.719  34.098  64.128  1.00  0.00    -0.350 N 
HETATM   13  C   UNL     1       3.968  34.519  65.213  1.00  0.00     0.219 C 
HETATM   14  C   UNL     1       4.012  33.580  62.948  1.00  0.00     0.140 C 
HETATM   15  O   UNL     1       2.746  34.358  65.260  1.00  0.00    -0.273 OA
HETATM   16  C   UNL     1       4.796  32.469  62.224  1.00  0.00     0.115 C 
BRANCH  13  17
HETATM   17  C   UNL     1       4.676  35.134  66.410  1.00  0.00     0.103 C 
BRANCH  17  18
HETATM   18  C   UNL     1       4.830  34.145  67.565  1.00  0.00     0.005 C 
HETATM   19  C   UNL     1       5.962  34.476  68.524  1.00  0.00     0.005 C 
ENDBRANCH  17  18
ENDBRANCH  13  17
ENDBRANCH   6   9
ENDBRANCH   1   3
BRANCH   1  20
HETATM   20  C   UNL     1       9.394  29.403  57.325  1.00  0.00     0.179 C 
HETATM   21  S   UNL     1      10.223  29.671  55.891  1.00  0.00    -0.040 SA
BRANCH  20  22
HETATM   22  N   UNL     1       8.359  28.503  57.243  1.00  0.00    -0.298 N 
HETATM   23  C   UNL     1       7.191  28.512  56.492  1.00  0.00     0.281 C 
HETATM   24  O   UNL     1       6.728  29.521  55.966  1.00  0.00    -0.265 OA
HETATM   25  H   UNL     1       8.561  27.621  57.701  1.00  0.00     0.171 HD
BRANCH  23  26
HETATM   26  C   UNL     1       6.576  27.201  56.459  1.00  0.00     0.144 A 
HETATM   27  O   UNL     1       7.197  26.234  55.714  1.00  0.00    -0.304 OA
HETATM   28  C   UNL     1       6.461  25.089  55.795  1.00  0.00     0.086 A 
HETATM   29  C   UNL     1       5.364  25.318  56.604  1.00  0.00     0.041 A 
HETATM   30  C   UNL     1       5.437  26.674  57.027  1.00  0.00     0.046 A 
BRANCH  28  31
HETATM   31  C   UNL     1       6.989  23.951  55.044  1.00  0.00    -0.002 A 
HETATM   32  C   UNL     1       7.077  23.989  53.646  1.00  0.00     0.016 A 
HETATM   33  C   UNL     1       7.574  22.892  52.930  1.00  0.00     0.024 A 
HETATM   34  C   UNL     1       7.990  21.749  53.606  1.00  0.00     0.034 A 
HETATM   35 CL   UNL     1       8.597  20.402  52.726  1.00  0.00    -0.084 Cl
HETATM   36  C   UNL     1       7.915  21.691  54.994  1.00  0.00     0.024 A 
HETATM   37  C   UNL     1       7.417  22.786  55.706  1.00  0.00     0.016 A 
ENDBRANCH  28  31
ENDBRANCH  23  26
ENDBRANCH  20  22
ENDBRANCH   1  20
TORSDOF 8
ENDMDL
MODEL 3
REMARK VINA RESULT:     -10.0      1.222      1.821
REMARK  8 active torsions:
REMARK  status: ('A' for Active; 'I' for Inactive)
REMARK    1  A    between atoms: C_2  and  C_3 
REMARK    2  A    between atoms: C_3  and  C_4 
REMARK       I    between atoms: C_4  and  N_5 
REMARK    3  A    between atoms: N_8  and  C_9 
REMARK    4  A    between atoms: C_12  and  N_13 
REMARK    5  A    between atoms: N_13  and  C_14 
REMARK    6  A    between atoms: C_14  and  N_15 
REMARK       I    between atoms: N_15  and  C_16 
REMARK    7  A    between atoms: C_16  and  C_17 
REMARK    8  A    between atoms: C_19  and  C_20 
ROOT
HETATM    1  N   UNL     1       5.886  31.360  57.246  1.00  0.00    -0.333 N 
HETATM    2  H   UNL     1       6.484  31.984  56.704  1.00  0.00     0.168 HD
ENDROOT
BRANCH   1   3
HETATM    3  C   UNL     1       5.996  29.984  56.962  1.00  0.00     0.034 A 
HETATM    4  C   UNL     1       7.204  29.301  57.055  1.00  0.00     0.031 A 
HETATM    5  C   UNL     1       7.289  27.960  56.680  1.00  0.00     0.026 A 
HETATM    6  C   UNL     1       6.183  27.260  56.177  1.00  0.00     0.010 A 
HETATM    7  C   UNL     1       4.950  27.926  56.209  1.00  0.00     0.026 A 
HETATM    8  C   UNL     1       4.852  29.270  56.612  1.00  0.00     0.031 A 
BRANCH   6   9
HETATM    9  N   UNL     1       6.367  25.954  55.681  1.00  0.00    -0.280 NA
HETATM   10  C   UNL     1       7.545  25.287  56.298  1.00  0.00     0.115 C 
HETATM   11  C   UNL     1       7.581  23.791  55.949  1.00  0.00     0.140 C 
HETATM   12  N   UNL     1       7.491  23.554  54.505  1.00  0.00    -0.350 N 
HETATM   13  C   UNL     1       8.090  22.505  53.828  1.00  0.00     0.219 C 
HETATM   14  C   UNL     1       6.374  24.255  53.858  1.00  0.00     0.140 C 
HETATM   15  O   UNL     1       7.793  22.229  52.662  1.00  0.00    -0.273 OA
HETATM   16  C   UNL     1       6.324  25.754  54.214  1.00  0.00     0.115 C 
BRANCH  13  17
HETATM   17  C   UNL     1       9.193  21.714  54.513  1.00  0.00     0.103 C 
BRANCH  17  18
HETATM   18  C   UNL     1       8.754  20.295  54.872  1.00  0.00     0.005 C 
HETATM   19  C   UNL     1       7.991  20.192  56.183  1.00  0.00     0.005 C 
ENDBRANCH  17  18
ENDBRANCH  13  17
ENDBRANCH   6   9
ENDBRANCH   1   3
BRANCH   1  20
HETATM   20  C   UNL     1       5.287  31.944  58.338  1.00  0.00     0.179 C 
HETATM   21  S   UNL     1       3.797  32.708  58.433  1.00  0.00    -0.040 SA
BRANCH  20  22
HETATM   22  N   UNL     1       5.988  31.880  59.516  1.00  0.00    -0.298 N 
HETATM   23  C   UNL     1       7.325  32.122  59.805  1.00  0.00     0.281 C 
HETATM   24  O   UNL     1       8.209  32.156  58.954  1.00  0.00    -0.265 OA
HETATM   25  H   UNL     1       5.391  31.778  60.330  1.00  0.00     0.171 HD
BRANCH  23  26
HETATM   26  C   UNL     1       7.536  32.276  61.230  1.00  0.00     0.144 A 
HETATM   27  O   UNL     1       6.527  32.847  61.958  1.00  0.00    -0.304 OA
HETATM   28  C   UNL     1       6.923  32.920  63.260  1.00  0.00     0.086 A 
HETATM   29  C   UNL     1       8.192  32.384  63.374  1.00  0.00     0.041 A 
HETATM   30  C   UNL     1       8.586  31.973  62.070  1.00  0.00     0.046 A 
BRANCH  28  31
HETATM   31  C   UNL     1       5.953  33.516  64.177  1.00  0.00    -0.002 A 
HETATM   32  C   UNL     1       6.293  33.785  65.510  1.00  0.00     0.016 A 
HETATM   33  C   UNL     1       5.358  34.347  66.389  1.00  0.00     0.024 A 
HETATM   34  C   UNL     1       4.075  34.648  65.941  1.00  0.00     0.034 A 
HETATM   35 CL   UNL     1       2.927  35.335  67.022  1.00  0.00    -0.084 Cl
HETATM   36  C   UNL     1       3.716  34.393  64.622  1.00  0.00     0.024 A 
HETATM   37  C   UNL     1       4.652  33.831  63.747  1.00  0.00     0.016 A 
ENDBRANCH  28  31
ENDBRANCH  23  26
ENDBRANCH  20  22
ENDBRANCH   1  20
TORSDOF 8
ENDMDL
MODEL 4
REMARK VINA RESULT:      -9.9      5.324      6.165
REMARK  8 active torsions:
REMARK  status: ('A' for Active; 'I' for Inactive)
REMARK    1  A    between atoms: C_2  and  C_3 
REMARK    2  A    between atoms: C_3  and  C_4 
REMARK       I    between atoms: C_4  and  N_5 
REMARK    3  A    between atoms: N_8  and  C_9 
REMARK    4  A    between atoms: C_12  and  N_13 
REMARK    5  A    between atoms: N_13  and  C_14 
REMARK    6  A    between atoms: C_14  and  N_15 
REMARK       I    between atoms: N_15  and  C_16 
REMARK    7  A    between atoms: C_16  and  C_17 
REMARK    8  A    between atoms: C_19  and  C_20 
ROOT
HETATM    1  N   UNL     1       5.917  28.973  56.836  1.00  0.00    -0.333 N 
HETATM    2  H   UNL     1       5.893  28.217  57.520  1.00  0.00     0.168 HD
ENDROOT
BRANCH   1   3
HETATM    3  C   UNL     1       5.686  28.610  55.494  1.00  0.00     0.034 A 
HETATM    4  C   UNL     1       6.724  28.333  54.611  1.00  0.00     0.031 A 
HETATM    5  C   UNL     1       6.457  28.064  53.268  1.00  0.00     0.026 A 
HETATM    6  C   UNL     1       5.154  28.087  52.752  1.00  0.00     0.010 A 
HETATM    7  C   UNL     1       4.114  28.244  53.681  1.00  0.00     0.026 A 
HETATM    8  C   UNL     1       4.374  28.488  55.040  1.00  0.00     0.031 A 
BRANCH   6   9
HETATM    9  N   UNL     1       4.965  27.951  51.363  1.00  0.00    -0.280 NA
HETATM   10  C   UNL     1       3.790  28.728  50.884  1.00  0.00     0.115 C 
HETATM   11  C   UNL     1       3.751  28.782  49.348  1.00  0.00     0.140 C 
HETATM   12  N   UNL     1       3.831  27.451  48.742  1.00  0.00    -0.350 N 
HETATM   13  C   UNL     1       3.227  27.075  47.554  1.00  0.00     0.219 C 
HETATM   14  C   UNL     1       4.945  26.636  49.247  1.00  0.00     0.140 C 
HETATM   15  O   UNL     1       3.516  26.021  46.982  1.00  0.00    -0.273 OA
HETATM   16  C   UNL     1       4.998  26.587  50.786  1.00  0.00     0.115 C 
BRANCH  13  17
HETATM   17  C   UNL     1       2.127  27.950  46.973  1.00  0.00     0.103 C 
BRANCH  17  18
HETATM   18  C   UNL     1       0.732  27.387  47.244  1.00  0.00     0.005 C 
HETATM   19  C   UNL     1      -0.250  27.575  46.099  1.00  0.00     0.005 C 
ENDBRANCH  17  18
ENDBRANCH  13  17
ENDBRANCH   6   9
ENDBRANCH   1   3
BRANCH   1  20
HETATM   20  C   UNL     1       5.899  30.238  57.376  1.00  0.00     0.179 C 
HETATM   21  S   UNL     1       5.063  31.593  56.848  1.00  0.00    -0.040 SA
BRANCH  20  22
HETATM   22  N   UNL     1       6.647  30.418  58.513  1.00  0.00    -0.298 N 
HETATM   23  C   UNL     1       7.921  29.984  58.854  1.00  0.00     0.281 C 
HETATM   24  O   UNL     1       8.506  29.073  58.275  1.00  0.00    -0.265 OA
HETATM   25  H   UNL     1       6.251  31.105  59.145  1.00  0.00     0.171 HD
BRANCH  23  26
HETATM   26  C   UNL     1       8.435  30.705  60.000  1.00  0.00     0.144 A 
HETATM   27  O   UNL     1       7.524  31.169  60.912  1.00  0.00    -0.304 OA
HETATM   28  C   UNL     1       8.198  31.830  61.895  1.00  0.00     0.086 A 
HETATM   29  C   UNL     1       9.552  31.783  61.621  1.00  0.00     0.041 A 
HETATM   30  C   UNL     1       9.703  31.063  60.404  1.00  0.00     0.046 A 
BRANCH  28  31
HETATM   31  C   UNL     1       7.364  32.397  62.953  1.00  0.00    -0.002 A 
HETATM   32  C   UNL     1       7.940  33.042  64.057  1.00  0.00     0.016 A 
HETATM   33  C   UNL     1       7.138  33.576  65.074  1.00  0.00     0.024 A 
HETATM   34  C   UNL     1       5.752  33.472  64.994  1.00  0.00     0.034 A 
HETATM   35 CL   UNL     1       4.768  34.125  66.245  1.00  0.00    -0.084 Cl
HETATM   36  C   UNL     1       5.158  32.840  63.907  1.00  0.00     0.024 A 
HETATM   37  C   UNL     1       5.962  32.308  62.894  1.00  0.00     0.016 A 
ENDBRANCH  28  31
ENDBRANCH  23  26
ENDBRANCH  20  22
ENDBRANCH   1  20
TORSDOF 8
ENDMDL
MODEL 5
REMARK VINA RESULT:      -9.9      4.513     12.475
REMARK  8 active torsions:
REMARK  status: ('A' for Active; 'I' for Inactive)
REMARK    1  A    between atoms: C_2  and  C_3 
REMARK    2  A    between atoms: C_3  and  C_4 
REMARK       I    between atoms: C_4  and  N_5 
REMARK    3  A    between atoms: N_8  and  C_9 
REMARK    4  A    between atoms: C_12  and  N_13 
REMARK    5  A    between atoms: N_13  and  C_14 
REMARK    6  A    between atoms: C_14  and  N_15 
REMARK       I    between atoms: N_15  and  C_16 
REMARK    7  A    between atoms: C_16  and  C_17 
REMARK    8  A    between atoms: C_19  and  C_20 
ROOT
HETATM    1  N   UNL     1       8.683  29.391  59.067  1.00  0.00    -0.333 N 
HETATM    2  H   UNL     1       8.911  28.464  59.426  1.00  0.00     0.168 HD
ENDROOT
BRANCH   1   3
HETATM    3  C   UNL     1       8.288  30.352  60.020  1.00  0.00     0.034 A 
HETATM    4  C   UNL     1       8.924  30.481  61.249  1.00  0.00     0.031 A 
HETATM    5  C   UNL     1       8.448  31.384  62.201  1.00  0.00     0.026 A 
HETATM    6  C   UNL     1       7.308  32.169  61.972  1.00  0.00     0.010 A 
HETATM    7  C   UNL     1       6.757  32.115  60.684  1.00  0.00     0.026 A 
HETATM    8  C   UNL     1       7.249  31.227  59.711  1.00  0.00     0.031 A 
BRANCH   6   9
HETATM    9  N   UNL     1       6.794  32.952  63.024  1.00  0.00    -0.280 NA
HETATM   10  C   UNL     1       7.753  33.060  64.156  1.00  0.00     0.115 C 
HETATM   11  C   UNL     1       7.295  34.118  65.172  1.00  0.00     0.140 C 
HETATM   12  N   UNL     1       5.916  33.900  65.620  1.00  0.00    -0.350 N 
HETATM   13  C   UNL     1       5.426  34.206  66.878  1.00  0.00     0.219 C 
HETATM   14  C   UNL     1       4.957  33.723  64.520  1.00  0.00     0.140 C 
HETATM   15  O   UNL     1       4.216  34.214  67.121  1.00  0.00    -0.273 OA
HETATM   16  C   UNL     1       5.417  32.672  63.491  1.00  0.00     0.115 C 
BRANCH  13  17
HETATM   17  C   UNL     1       6.406  34.472  68.010  1.00  0.00     0.103 C 
BRANCH  17  18
HETATM   18  C   UNL     1       5.737  34.409  69.383  1.00  0.00     0.005 C 
HETATM   19  C   UNL     1       6.449  33.511  70.383  1.00  0.00     0.005 C 
ENDBRANCH  17  18
ENDBRANCH  13  17
ENDBRANCH   6   9
ENDBRANCH   1   3
BRANCH   1  20
HETATM   20  C   UNL     1       9.062  29.612  57.764  1.00  0.00     0.179 C 
HETATM   21  S   UNL     1      10.212  30.682  57.172  1.00  0.00    -0.040 SA
BRANCH  20  22
HETATM   22  N   UNL     1       8.436  28.842  56.815  1.00  0.00    -0.298 N 
HETATM   23  C   UNL     1       7.292  29.064  56.060  1.00  0.00     0.281 C 
HETATM   24  O   UNL     1       6.445  29.907  56.342  1.00  0.00    -0.265 OA
HETATM   25  H   UNL     1       8.990  28.045  56.520  1.00  0.00     0.171 HD
BRANCH  23  26
HETATM   26  C   UNL     1       7.211  28.145  54.943  1.00  0.00     0.144 A 
HETATM   27  O   UNL     1       7.434  26.819  55.202  1.00  0.00    -0.304 OA
HETATM   28  C   UNL     1       7.332  26.129  54.031  1.00  0.00     0.086 A 
HETATM   29  C   UNL     1       7.032  27.015  53.013  1.00  0.00     0.041 A 
HETATM   30  C   UNL     1       6.957  28.309  53.598  1.00  0.00     0.046 A 
BRANCH  28  31
HETATM   31  C   UNL     1       7.551  24.687  54.132  1.00  0.00    -0.002 A 
HETATM   32  C   UNL     1       7.637  24.058  55.382  1.00  0.00     0.016 A 
HETATM   33  C   UNL     1       7.857  22.677  55.475  1.00  0.00     0.024 A 
HETATM   34  C   UNL     1       7.988  21.913  54.319  1.00  0.00     0.034 A 
HETATM   35 CL   UNL     1       8.261  20.219  54.435  1.00  0.00    -0.084 Cl
HETATM   36  C   UNL     1       7.902  22.516  53.068  1.00  0.00     0.024 A 
HETATM   37  C   UNL     1       7.684  23.894  52.978  1.00  0.00     0.016 A 
ENDBRANCH  28  31
ENDBRANCH  23  26
ENDBRANCH  20  22
ENDBRANCH   1  20
TORSDOF 8
ENDMDL
MODEL 6
REMARK VINA RESULT:      -9.7      2.162      3.008
REMARK  8 active torsions:
REMARK  status: ('A' for Active; 'I' for Inactive)
REMARK    1  A    between atoms: C_2  and  C_3 
REMARK    2  A    between atoms: C_3  and  C_4 
REMARK       I    between atoms: C_4  and  N_5 
REMARK    3  A    between atoms: N_8  and  C_9 
REMARK    4  A    between atoms: C_12  and  N_13 
REMARK    5  A    between atoms: N_13  and  C_14 
REMARK    6  A    between atoms: C_14  and  N_15 
REMARK       I    between atoms: N_15  and  C_16 
REMARK    7  A    between atoms: C_16  and  C_17 
REMARK    8  A    between atoms: C_19  and  C_20 
ROOT
HETATM    1  N   UNL     1       7.721  31.535  59.163  1.00  0.00    -0.333 N 
HETATM    2  H   UNL     1       7.999  32.406  58.713  1.00  0.00     0.168 HD
ENDROOT
BRANCH   1   3
HETATM    3  C   UNL     1       7.645  30.397  58.335  1.00  0.00     0.034 A 
HETATM    4  C   UNL     1       6.448  29.969  57.772  1.00  0.00     0.031 A 
HETATM    5  C   UNL     1       6.398  28.788  57.031  1.00  0.00     0.026 A 
HETATM    6  C   UNL     1       7.530  27.981  56.846  1.00  0.00     0.010 A 
HETATM    7  C   UNL     1       8.749  28.492  57.314  1.00  0.00     0.026 A 
HETATM    8  C   UNL     1       8.811  29.695  58.038  1.00  0.00     0.031 A 
BRANCH   6   9
HETATM    9  N   UNL     1       7.383  26.731  56.213  1.00  0.00    -0.280 NA
HETATM   10  C   UNL     1       8.323  25.717  56.761  1.00  0.00     0.115 C 
HETATM   11  C   UNL     1       7.978  24.308  56.252  1.00  0.00     0.140 C 
HETATM   12  N   UNL     1       7.879  24.253  54.790  1.00  0.00    -0.350 N 
HETATM   13  C   UNL     1       8.205  23.159  54.008  1.00  0.00     0.219 C 
HETATM   14  C   UNL     1       7.007  25.288  54.217  1.00  0.00     0.140 C 
HETATM   15  O   UNL     1       7.886  23.092  52.817  1.00  0.00    -0.273 OA
HETATM   16  C   UNL     1       7.340  26.702  54.732  1.00  0.00     0.115 C 
BRANCH  13  17
HETATM   17  C   UNL     1       9.039  22.039  54.610  1.00  0.00     0.103 C 
BRANCH  17  18
HETATM   18  C   UNL     1       8.267  20.723  54.699  1.00  0.00     0.005 C 
HETATM   19  C   UNL     1       7.659  20.448  56.065  1.00  0.00     0.005 C 
ENDBRANCH  17  18
ENDBRANCH  13  17
ENDBRANCH   6   9
ENDBRANCH   1   3
BRANCH   1  20
HETATM   20  C   UNL     1       7.736  31.570  60.538  1.00  0.00     0.179 C 
HETATM   21  S   UNL     1       8.813  30.837  61.595  1.00  0.00    -0.040 SA
BRANCH  20  22
HETATM   22  N   UNL     1       6.753  32.322  61.133  1.00  0.00    -0.298 N 
HETATM   23  C   UNL     1       5.404  32.467  60.841  1.00  0.00     0.281 C 
HETATM   24  O   UNL     1       4.903  32.150  59.765  1.00  0.00    -0.265 OA
HETATM   25  H   UNL     1       7.040  32.722  62.020  1.00  0.00     0.171 HD
BRANCH  23  26
HETATM   26  C   UNL     1       4.689  33.079  61.942  1.00  0.00     0.144 A 
HETATM   27  O   UNL     1       5.351  33.195  63.135  1.00  0.00    -0.304 OA
HETATM   28  C   UNL     1       4.510  33.774  64.039  1.00  0.00     0.086 A 
HETATM   29  C   UNL     1       3.303  34.041  63.422  1.00  0.00     0.041 A 
HETATM   30  C   UNL     1       3.417  33.594  62.077  1.00  0.00     0.046 A 
BRANCH  28  31
HETATM   31  C   UNL     1       5.066  33.965  65.377  1.00  0.00    -0.002 A 
HETATM   32  C   UNL     1       4.228  34.149  66.486  1.00  0.00     0.016 A 
HETATM   33  C   UNL     1       4.765  34.342  67.766  1.00  0.00     0.024 A 
HETATM   34  C   UNL     1       6.145  34.349  67.949  1.00  0.00     0.034 A 
HETATM   35 CL   UNL     1       6.802  34.589  69.520  1.00  0.00    -0.084 Cl
HETATM   36  C   UNL     1       6.995  34.164  66.864  1.00  0.00     0.024 A 
HETATM   37  C   UNL     1       6.457  33.973  65.587  1.00  0.00     0.016 A 
ENDBRANCH  28  31
ENDBRANCH  23  26
ENDBRANCH  20  22
ENDBRANCH   1  20
TORSDOF 8
ENDMDL
MODEL 7
REMARK VINA RESULT:      -9.7      4.428     11.602
REMARK  8 active torsions:
REMARK  status: ('A' for Active; 'I' for Inactive)
REMARK    1  A    between atoms: C_2  and  C_3 
REMARK    2  A    between atoms: C_3  and  C_4 
REMARK       I    between atoms: C_4  and  N_5 
REMARK    3  A    between atoms: N_8  and  C_9 
REMARK    4  A    between atoms: C_12  and  N_13 
REMARK    5  A    between atoms: N_13  and  C_14 
REMARK    6  A    between atoms: C_14  and  N_15 
REMARK       I    between atoms: N_15  and  C_16 
REMARK    7  A    between atoms: C_16  and  C_17 
REMARK    8  A    between atoms: C_19  and  C_20 
ROOT
HETATM    1  N   UNL     1       5.052  30.628  54.848  1.00  0.00    -0.333 N 
HETATM    2  H   UNL     1       5.311  31.238  54.073  1.00  0.00     0.168 HD
ENDROOT
BRANCH   1   3
HETATM    3  C   UNL     1       4.737  31.261  56.067  1.00  0.00     0.034 A 
HETATM    4  C   UNL     1       4.991  32.610  56.288  1.00  0.00     0.031 A 
HETATM    5  C   UNL     1       4.747  33.180  57.538  1.00  0.00     0.026 A 
HETATM    6  C   UNL     1       4.266  32.423  58.616  1.00  0.00     0.010 A 
HETATM    7  C   UNL     1       3.900  31.098  58.340  1.00  0.00     0.026 A 
HETATM    8  C   UNL     1       4.118  30.525  57.074  1.00  0.00     0.031 A 
BRANCH   6   9
HETATM    9  N   UNL     1       4.179  33.023  59.888  1.00  0.00    -0.280 NA
HETATM   10  C   UNL     1       5.505  33.488  60.375  1.00  0.00     0.115 C 
HETATM   11  C   UNL     1       5.359  34.363  61.630  1.00  0.00     0.140 C 
HETATM   12  N   UNL     1       4.572  33.707  62.678  1.00  0.00    -0.350 N 
HETATM   13  C   UNL     1       4.758  33.873  64.040  1.00  0.00     0.219 C 
HETATM   14  C   UNL     1       3.284  33.179  62.208  1.00  0.00     0.140 C 
HETATM   15  O   UNL     1       3.927  33.480  64.863  1.00  0.00    -0.273 OA
HETATM   16  C   UNL     1       3.421  32.310  60.943  1.00  0.00     0.115 C 
BRANCH  13  17
HETATM   17  C   UNL     1       6.052  34.494  64.541  1.00  0.00     0.103 C 
BRANCH  17  18
HETATM   18  C   UNL     1       7.055  33.444  65.018  1.00  0.00     0.005 C 
HETATM   19  C   UNL     1       7.951  32.894  63.920  1.00  0.00     0.005 C 
ENDBRANCH  17  18
ENDBRANCH  13  17
ENDBRANCH   6   9
ENDBRANCH   1   3
BRANCH   1  20
HETATM   20  C   UNL     1       4.792  29.325  54.490  1.00  0.00     0.179 C 
HETATM   21  S   UNL     1       3.522  28.721  53.575  1.00  0.00    -0.040 SA
BRANCH  20  22
HETATM   22  N   UNL     1       5.702  28.390  54.918  1.00  0.00    -0.298 N 
HETATM   23  C   UNL     1       6.872  28.516  55.655  1.00  0.00     0.281 C 
HETATM   24  O   UNL     1       7.469  29.579  55.807  1.00  0.00    -0.265 OA
HETATM   25  H   UNL     1       5.381  27.436  54.794  1.00  0.00     0.171 HD
BRANCH  23  26
HETATM   26  C   UNL     1       7.312  27.236  56.169  1.00  0.00     0.144 A 
HETATM   27  O   UNL     1       7.423  26.203  55.276  1.00  0.00    -0.304 OA
HETATM   28  C   UNL     1       7.828  25.091  55.951  1.00  0.00     0.086 A 
HETATM   29  C   UNL     1       7.989  25.410  57.286  1.00  0.00     0.041 A 
HETATM   30  C   UNL     1       7.656  26.786  57.426  1.00  0.00     0.046 A 
BRANCH  28  31
HETATM   31  C   UNL     1       7.990  23.888  55.136  1.00  0.00    -0.002 A 
HETATM   32  C   UNL     1       7.816  23.931  53.746  1.00  0.00     0.016 A 
HETATM   33  C   UNL     1       7.962  22.774  52.969  1.00  0.00     0.024 A 
HETATM   34  C   UNL     1       8.288  21.564  53.577  1.00  0.00     0.034 A 
HETATM   35 CL   UNL     1       8.465  20.144  52.623  1.00  0.00    -0.084 Cl
HETATM   36  C   UNL     1       8.470  21.499  54.954  1.00  0.00     0.024 A 
HETATM   37  C   UNL     1       8.322  22.655  55.727  1.00  0.00     0.016 A 
ENDBRANCH  28  31
ENDBRANCH  23  26
ENDBRANCH  20  22
ENDBRANCH   1  20
TORSDOF 8
ENDMDL
MODEL 8
REMARK VINA RESULT:      -9.6      4.482     12.545
REMARK  8 active torsions:
REMARK  status: ('A' for Active; 'I' for Inactive)
REMARK    1  A    between atoms: C_2  and  C_3 
REMARK    2  A    between atoms: C_3  and  C_4 
REMARK       I    between atoms: C_4  and  N_5 
REMARK    3  A    between atoms: N_8  and  C_9 
REMARK    4  A    between atoms: C_12  and  N_13 
REMARK    5  A    between atoms: N_13  and  C_14 
REMARK    6  A    between atoms: C_14  and  N_15 
REMARK       I    between atoms: N_15  and  C_16 
REMARK    7  A    between atoms: C_16  and  C_17 
REMARK    8  A    between atoms: C_19  and  C_20 
ROOT
HETATM    1  N   UNL     1       5.915  31.338  57.586  1.00  0.00    -0.333 N 
HETATM    2  H   UNL     1       6.432  31.870  56.886  1.00  0.00     0.168 HD
ENDROOT
BRANCH   1   3
HETATM    3  C   UNL     1       5.938  31.845  58.901  1.00  0.00     0.034 A 
HETATM    4  C   UNL     1       4.821  32.428  59.489  1.00  0.00     0.031 A 
HETATM    5  C   UNL     1       4.907  32.997  60.760  1.00  0.00     0.026 A 
HETATM    6  C   UNL     1       6.112  33.029  61.477  1.00  0.00     0.010 A 
HETATM    7  C   UNL     1       7.192  32.328  60.922  1.00  0.00     0.026 A 
HETATM    8  C   UNL     1       7.104  31.728  59.654  1.00  0.00     0.031 A 
BRANCH   6   9
HETATM    9  N   UNL     1       6.169  33.745  62.689  1.00  0.00    -0.280 NA
HETATM   10  C   UNL     1       6.859  32.975  63.758  1.00  0.00     0.115 C 
HETATM   11  C   UNL     1       7.143  33.858  64.983  1.00  0.00     0.140 C 
HETATM   12  N   UNL     1       5.940  34.541  65.468  1.00  0.00    -0.350 N 
HETATM   13  C   UNL     1       5.679  34.859  66.790  1.00  0.00     0.219 C 
HETATM   14  C   UNL     1       5.201  35.256  64.418  1.00  0.00     0.140 C 
HETATM   15  O   UNL     1       4.769  35.630  67.106  1.00  0.00    -0.273 OA
HETATM   16  C   UNL     1       4.924  34.380  63.181  1.00  0.00     0.115 C 
BRANCH  13  17
HETATM   17  C   UNL     1       6.490  34.189  67.888  1.00  0.00     0.103 C 
BRANCH  17  18
HETATM   18  C   UNL     1       6.435  34.962  69.205  1.00  0.00     0.005 C 
HETATM   19  C   UNL     1       7.794  35.399  69.729  1.00  0.00     0.005 C 
ENDBRANCH  17  18
ENDBRANCH  13  17
ENDBRANCH   6   9
ENDBRANCH   1   3
BRANCH   1  20
HETATM   20  C   UNL     1       5.071  30.382  57.072  1.00  0.00     0.179 C 
HETATM   21  S   UNL     1       3.488  30.555  56.543  1.00  0.00    -0.040 SA
BRANCH  20  22
HETATM   22  N   UNL     1       5.593  29.118  56.952  1.00  0.00    -0.298 N 
HETATM   23  C   UNL     1       6.176  28.463  55.876  1.00  0.00     0.281 C 
HETATM   24  O   UNL     1       6.052  28.826  54.709  1.00  0.00    -0.265 OA
HETATM   25  H   UNL     1       5.696  28.644  57.843  1.00  0.00     0.171 HD
BRANCH  23  26
HETATM   26  C   UNL     1       6.897  27.282  56.305  1.00  0.00     0.144 A 
HETATM   27  O   UNL     1       6.978  26.238  55.422  1.00  0.00    -0.304 OA
HETATM   28  C   UNL     1       7.672  25.226  56.014  1.00  0.00     0.086 A 
HETATM   29  C   UNL     1       8.049  25.622  57.284  1.00  0.00     0.041 A 
HETATM   30  C   UNL     1       7.549  26.941  57.471  1.00  0.00     0.046 A 
BRANCH  28  31
HETATM   31  C   UNL     1       7.845  24.025  55.200  1.00  0.00    -0.002 A 
HETATM   32  C   UNL     1       7.921  24.106  53.802  1.00  0.00     0.016 A 
HETATM   33  C   UNL     1       8.076  22.952  53.024  1.00  0.00     0.024 A 
HETATM   34  C   UNL     1       8.161  21.705  53.638  1.00  0.00     0.034 A 
HETATM   35 CL   UNL     1       8.349  20.288  52.681  1.00  0.00    -0.084 Cl
HETATM   36  C   UNL     1       8.092  21.600  55.023  1.00  0.00     0.024 A 
HETATM   37  C   UNL     1       7.936  22.754  55.797  1.00  0.00     0.016 A 
ENDBRANCH  28  31
ENDBRANCH  23  26
ENDBRANCH  20  22
ENDBRANCH   1  20
TORSDOF 8
ENDMDL
MODEL 9
REMARK VINA RESULT:      -9.5      1.680      2.122
REMARK  8 active torsions:
REMARK  status: ('A' for Active; 'I' for Inactive)
REMARK    1  A    between atoms: C_2  and  C_3 
REMARK    2  A    between atoms: C_3  and  C_4 
REMARK       I    between atoms: C_4  and  N_5 
REMARK    3  A    between atoms: N_8  and  C_9 
REMARK    4  A    between atoms: C_12  and  N_13 
REMARK    5  A    between atoms: N_13  and  C_14 
REMARK    6  A    between atoms: C_14  and  N_15 
REMARK       I    between atoms: N_15  and  C_16 
REMARK    7  A    between atoms: C_16  and  C_17 
REMARK    8  A    between atoms: C_19  and  C_20 
ROOT
HETATM    1  N   UNL     1       3.899  31.031  55.957  1.00  0.00    -0.333 N 
HETATM    2  H   UNL     1       2.918  31.099  55.685  1.00  0.00     0.168 HD
ENDROOT
BRANCH   1   3
HETATM    3  C   UNL     1       4.490  29.755  55.857  1.00  0.00     0.034 A 
HETATM    4  C   UNL     1       4.614  28.908  56.953  1.00  0.00     0.031 A 
HETATM    5  C   UNL     1       5.284  27.690  56.833  1.00  0.00     0.026 A 
HETATM    6  C   UNL     1       5.875  27.285  55.627  1.00  0.00     0.010 A 
HETATM    7  C   UNL     1       5.631  28.093  54.506  1.00  0.00     0.026 A 
HETATM    8  C   UNL     1       4.933  29.308  54.615  1.00  0.00     0.031 A 
BRANCH   6   9
HETATM    9  N   UNL     1       6.660  26.116  55.608  1.00  0.00    -0.280 NA
HETATM   10  C   UNL     1       6.051  25.052  54.766  1.00  0.00     0.115 C 
HETATM   11  C   UNL     1       7.033  23.891  54.544  1.00  0.00     0.140 C 
HETATM   12  N   UNL     1       7.575  23.372  55.803  1.00  0.00    -0.350 N 
HETATM   13  C   UNL     1       7.930  22.054  56.038  1.00  0.00     0.219 C 
HETATM   14  C   UNL     1       8.124  24.411  56.685  1.00  0.00     0.140 C 
HETATM   15  O   UNL     1       8.589  21.725  57.028  1.00  0.00    -0.273 OA
HETATM   16  C   UNL     1       7.149  25.585  56.902  1.00  0.00     0.115 C 
BRANCH  13  17
HETATM   17  C   UNL     1       7.439  20.973  55.088  1.00  0.00     0.103 C 
BRANCH  17  18
HETATM   18  C   UNL     1       8.579  20.333  54.297  1.00  0.00     0.005 C 
HETATM   19  C   UNL     1       8.427  20.440  52.788  1.00  0.00     0.005 C 
ENDBRANCH  17  18
ENDBRANCH  13  17
ENDBRANCH   6   9
ENDBRANCH   1   3
BRANCH   1  20
HETATM   20  C   UNL     1       4.537  32.240  56.111  1.00  0.00     0.179 C 
HETATM   21  S   UNL     1       4.699  33.489  55.003  1.00  0.00    -0.040 SA
BRANCH  20  22
HETATM   22  N   UNL     1       5.103  32.471  57.340  1.00  0.00    -0.298 N 
HETATM   23  C   UNL     1       4.634  32.239  58.626  1.00  0.00     0.281 C 
HETATM   24  O   UNL     1       3.451  32.045  58.893  1.00  0.00    -0.265 OA
HETATM   25  H   UNL     1       6.086  32.717  57.286  1.00  0.00     0.171 HD
BRANCH  23  26
HETATM   26  C   UNL     1       5.705  32.307  59.598  1.00  0.00     0.144 A 
HETATM   27  O   UNL     1       5.375  32.689  60.872  1.00  0.00    -0.304 OA
HETATM   28  C   UNL     1       6.512  32.709  61.623  1.00  0.00     0.086 A 
HETATM   29  C   UNL     1       7.580  32.329  60.832  1.00  0.00     0.041 A 
HETATM   30  C   UNL     1       7.062  32.073  59.532  1.00  0.00     0.046 A 
BRANCH  28  31
HETATM   31  C   UNL     1       6.334  33.106  63.019  1.00  0.00    -0.002 A 
HETATM   32  C   UNL     1       7.437  33.272  63.867  1.00  0.00     0.016 A 
HETATM   33  C   UNL     1       7.261  33.643  65.207  1.00  0.00     0.024 A 
HETATM   34  C   UNL     1       5.979  33.854  65.709  1.00  0.00     0.034 A 
HETATM   35 CL   UNL     1       5.765  34.306  67.354  1.00  0.00    -0.084 Cl
HETATM   36  C   UNL     1       4.870  33.699  64.884  1.00  0.00     0.024 A 
HETATM   37  C   UNL     1       5.049  33.328  63.547  1.00  0.00     0.016 A 
ENDBRANCH  28  31
ENDBRANCH  23  26
ENDBRANCH  20  22
ENDBRANCH   1  20
TORSDOF 8
ENDMDL
MODEL 10
REMARK VINA RESULT:      -9.2      5.823      7.077
REMARK  8 active torsions:
REMARK  status: ('A' for Active; 'I' for Inactive)
REMARK    1  A    between atoms: C_2  and  C_3 
REMARK    2  A    between atoms: C_3  and  C_4 
REMARK       I    between atoms: C_4  and  N_5 
REMARK    3  A    between atoms: N_8  and  C_9 
REMARK    4  A    between atoms: C_12  and  N_13 
REMARK    5  A    between atoms: N_13  and  C_14 
REMARK    6  A    between atoms: C_14  and  N_15 
REMARK       I    between atoms: N_15  and  C_16 
REMARK    7  A    between atoms: C_16  and  C_17 
REMARK    8  A    between atoms: C_19  and  C_20 
ROOT
HETATM    1  N   UNL     1       6.105  27.348  56.612  1.00  0.00    -0.333 N 
HETATM    2  H   UNL     1       5.521  27.766  57.336  1.00  0.00     0.168 HD
ENDROOT
BRANCH   1   3
HETATM    3  C   UNL     1       5.637  27.460  55.287  1.00  0.00     0.034 A 
HETATM    4  C   UNL     1       5.151  26.367  54.578  1.00  0.00     0.031 A 
HETATM    5  C   UNL     1       4.780  26.501  53.239  1.00  0.00     0.026 A 
HETATM    6  C   UNL     1       4.903  27.719  52.555  1.00  0.00     0.010 A 
HETATM    7  C   UNL     1       5.275  28.834  53.319  1.00  0.00     0.026 A 
HETATM    8  C   UNL     1       5.624  28.712  54.675  1.00  0.00     0.031 A 
BRANCH   6   9
HETATM    9  N   UNL     1       4.649  27.754  51.170  1.00  0.00    -0.280 NA
HETATM   10  C   UNL     1       3.394  28.486  50.853  1.00  0.00     0.115 C 
HETATM   11  C   UNL     1       3.266  28.741  49.343  1.00  0.00     0.140 C 
HETATM   12  N   UNL     1       3.417  27.513  48.556  1.00  0.00    -0.350 N 
HETATM   13  C   UNL     1       2.779  27.250  47.356  1.00  0.00     0.219 C 
HETATM   14  C   UNL     1       4.616  26.735  48.896  1.00  0.00     0.140 C 
HETATM   15  O   UNL     1       3.117  26.309  46.632  1.00  0.00    -0.273 OA
HETATM   16  C   UNL     1       4.757  26.486  50.410  1.00  0.00     0.115 C 
BRANCH  13  17
HETATM   17  C   UNL     1       1.585  28.098  46.949  1.00  0.00     0.103 C 
BRANCH  17  18
HETATM   18  C   UNL     1       0.481  27.270  46.291  1.00  0.00     0.005 C 
HETATM   19  C   UNL     1      -0.536  28.091  45.515  1.00  0.00     0.005 C 
ENDBRANCH  17  18
ENDBRANCH  13  17
ENDBRANCH   6   9
ENDBRANCH   1   3
BRANCH   1  20
HETATM   20  C   UNL     1       7.368  26.994  57.026  1.00  0.00     0.179 C 
HETATM   21  S   UNL     1       8.079  25.475  57.043  1.00  0.00    -0.040 SA
BRANCH  20  22
HETATM   22  N   UNL     1       8.167  28.019  57.467  1.00  0.00    -0.298 N 
HETATM   23  C   UNL     1       8.738  29.093  56.797  1.00  0.00     0.281 C 
HETATM   24  O   UNL     1       8.864  29.143  55.576  1.00  0.00    -0.265 OA
HETATM   25  H   UNL     1       8.225  28.073  58.478  1.00  0.00     0.171 HD
BRANCH  23  26
HETATM   26  C   UNL     1       9.201  30.106  57.722  1.00  0.00     0.144 A 
HETATM   27  O   UNL     1       8.395  30.401  58.789  1.00  0.00    -0.304 OA
HETATM   28  C   UNL     1       8.992  31.381  59.523  1.00  0.00     0.086 A 
HETATM   29  C   UNL     1      10.196  31.714  58.932  1.00  0.00     0.041 A 
HETATM   30  C   UNL     1      10.329  30.898  57.775  1.00  0.00     0.046 A 
BRANCH  28  31
HETATM   31  C   UNL     1       8.252  31.818  60.705  1.00  0.00    -0.002 A 
HETATM   32  C   UNL     1       8.885  31.938  61.950  1.00  0.00     0.016 A 
HETATM   33  C   UNL     1       8.170  32.348  63.082  1.00  0.00     0.024 A 
HETATM   34  C   UNL     1       6.813  32.645  62.979  1.00  0.00     0.034 A 
HETATM   35 CL   UNL     1       5.935  33.145  64.371  1.00  0.00    -0.084 Cl
HETATM   36  C   UNL     1       6.165  32.538  61.753  1.00  0.00     0.024 A 
HETATM   37  C   UNL     1       6.882  32.127  60.625  1.00  0.00     0.016 A 
ENDBRANCH  28  31
ENDBRANCH  23  26
ENDBRANCH  20  22
ENDBRANCH   1  20
TORSDOF 8
ENDMDL
