MODEL 1
REMARK VINA RESULT:      -9.8      0.000      0.000
REMARK  6 active torsions:
REMARK  status: ('A' for Active; 'I' for Inactive)
REMARK    1  A    between atoms: O_2  and  C_3 
REMARK    2  A    between atoms: C_6  and  C_7 
REMARK    3  A    between atoms: C_11  and  C_12 
REMARK       I    between atoms: C_12  and  N_13 
REMARK    4  A    between atoms: N_13  and  N_14 
REMARK       I    between atoms: N_14  and  C_15 
REMARK    5  A    between atoms: C_15  and  C_16 
REMARK    6  A    between atoms: C_16  and  C_17 
ROOT
HETATM    1  C   UNL     1       5.719  28.865  57.376  1.00  0.00     0.288 C 
HETATM    2  N   UNL     1       6.822  29.237  58.117  1.00  0.00    -0.262 N 
HETATM    3  O   UNL     1       4.674  29.513  57.398  1.00  0.00    -0.264 OA
HETATM    4  H   UNL     1       7.735  28.808  57.978  1.00  0.00     0.190 HD
ENDROOT
BRANCH   1   5
HETATM    5  C   UNL     1       5.887  27.690  56.566  1.00  0.00     0.121 A 
HETATM    6  N   UNL     1       4.972  27.330  55.618  1.00  0.00    -0.272 N 
HETATM    7  N   UNL     1       5.288  26.213  54.944  1.00  0.00    -0.174 NA
HETATM    8  H   UNL     1       4.109  27.813  55.388  1.00  0.00     0.189 HD
HETATM    9  C   UNL     1       6.473  25.835  55.447  1.00  0.00     0.089 A 
HETATM   10  C   UNL     1       6.872  26.726  56.484  1.00  0.00     0.071 A 
BRANCH   9  11
HETATM   11  C   UNL     1       7.188  24.658  54.944  1.00  0.00    -0.005 A 
HETATM   12  C   UNL     1       6.875  24.100  53.698  1.00  0.00     0.016 A 
HETATM   13  C   UNL     1       7.565  22.976  53.230  1.00  0.00     0.037 A 
HETATM   14  C   UNL     1       8.578  22.390  53.990  1.00  0.00     0.068 A 
HETATM   15  C   UNL     1       8.892  22.935  55.234  1.00  0.00     0.037 A 
HETATM   16  C   UNL     1       8.200  24.058  55.707  1.00  0.00     0.016 A 
BRANCH  14  17
HETATM   17  O   UNL     1       9.171  21.303  53.411  1.00  0.00    -0.356 OA
HETATM   18  C   UNL     1       8.308  20.355  52.795  1.00  0.00     0.210 C 
ENDBRANCH  14  17
ENDBRANCH   9  11
ENDBRANCH   1   5
BRANCH   2  19
HETATM   19  N   UNL     1       6.843  30.522  58.683  1.00  0.00    -0.267 N 
HETATM   20  C   UNL     1       7.914  30.825  59.500  1.00  0.00     0.240 C 
HETATM   21  O   UNL     1       8.697  29.963  59.897  1.00  0.00    -0.272 OA
HETATM   22  H   UNL     1       6.290  31.236  58.208  1.00  0.00     0.190 HD
BRANCH  20  23
HETATM   23  C   UNL     1       8.037  32.290  59.866  1.00  0.00     0.148 C 
BRANCH  23  24
HETATM   24  C   UNL     1       7.539  32.585  61.256  1.00  0.00     0.011 A 
HETATM   25  C   UNL     1       6.231  33.001  61.533  1.00  0.00     0.043 A 
HETATM   26 CL   UNL     1       5.065  33.238  60.279  1.00  0.00    -0.084 Cl
HETATM   27  C   UNL     1       5.821  33.247  62.850  1.00  0.00     0.024 A 
HETATM   28  C   UNL     1       6.711  33.071  63.909  1.00  0.00     0.005 A 
HETATM   29  C   UNL     1       8.009  32.645  63.651  1.00  0.00     0.043 A 
HETATM   30  C   UNL     1       8.409  32.405  62.338  1.00  0.00     0.124 A 
HETATM   31  F   UNL     1       9.669  32.004  62.121  1.00  0.00    -0.205 F 
ENDBRANCH  23  24
ENDBRANCH  20  23
ENDBRANCH   2  19
TORSDOF 6
ENDMDL
MODEL 2
REMARK VINA RESULT:      -9.5      1.599      2.008
REMARK  6 active torsions:
REMARK  status: ('A' for Active; 'I' for Inactive)
REMARK    1  A    between atoms: O_2  and  C_3 
REMARK    2  A    between atoms: C_6  and  C_7 
REMARK    3  A    between atoms: C_11  and  C_12 
REMARK       I    between atoms: C_12  and  N_13 
REMARK    4  A    between atoms: N_13  and  N_14 
REMARK       I    between atoms: N_14  and  C_15 
REMARK    5  A    between atoms: C_15  and  C_16 
REMARK    6  A    between atoms: C_16  and  C_17 
ROOT
HETATM    1  C   UNL     1       5.775  29.177  56.429  1.00  0.00     0.288 C 
HETATM    2  N   UNL     1       6.095  29.191  57.770  1.00  0.00    -0.262 N 
HETATM    3  O   UNL     1       5.469  30.203  55.823  1.00  0.00    -0.264 OA
HETATM    4  H   UNL     1       6.507  28.384  58.235  1.00  0.00     0.190 HD
ENDROOT
BRANCH   1   5
HETATM    5  C   UNL     1       5.846  27.891  55.791  1.00  0.00     0.121 A 
HETATM    6  N   UNL     1       4.861  27.443  54.956  1.00  0.00    -0.272 N 
HETATM    7  N   UNL     1       5.090  26.228  54.437  1.00  0.00    -0.174 NA
HETATM    8  H   UNL     1       4.005  27.930  54.707  1.00  0.00     0.189 HD
HETATM    9  C   UNL     1       6.288  25.869  54.924  1.00  0.00     0.089 A 
HETATM   10  C   UNL     1       6.784  26.879  55.796  1.00  0.00     0.071 A 
BRANCH   9  11
HETATM   11  C   UNL     1       6.923  24.599  54.559  1.00  0.00    -0.005 A 
HETATM   12  C   UNL     1       7.206  23.627  55.527  1.00  0.00     0.016 A 
HETATM   13  C   UNL     1       7.813  22.419  55.164  1.00  0.00     0.037 A 
HETATM   14  C   UNL     1       8.146  22.157  53.835  1.00  0.00     0.068 A 
HETATM   15  C   UNL     1       7.875  23.121  52.865  1.00  0.00     0.037 A 
HETATM   16  C   UNL     1       7.271  24.333  53.227  1.00  0.00     0.016 A 
BRANCH  14  17
HETATM   17  O   UNL     1       8.729  20.939  53.621  1.00  0.00    -0.356 OA
HETATM   18  C   UNL     1       8.744  20.034  54.719  1.00  0.00     0.210 C 
ENDBRANCH  14  17
ENDBRANCH   9  11
ENDBRANCH   1   5
BRANCH   2  19
HETATM   19  N   UNL     1       6.348  30.429  58.383  1.00  0.00    -0.267 N 
HETATM   20  C   UNL     1       7.573  30.582  58.999  1.00  0.00     0.240 C 
HETATM   21  O   UNL     1       8.326  29.629  59.201  1.00  0.00    -0.272 OA
HETATM   22  H   UNL     1       5.791  31.220  58.055  1.00  0.00     0.190 HD
BRANCH  20  23
HETATM   23  C   UNL     1       7.907  32.002  59.404  1.00  0.00     0.148 C 
BRANCH  23  24
HETATM   24  C   UNL     1       7.561  32.292  60.841  1.00  0.00     0.011 A 
HETATM   25  C   UNL     1       8.436  32.047  61.908  1.00  0.00     0.043 A 
HETATM   26 CL   UNL     1      10.002  31.359  61.662  1.00  0.00    -0.084 Cl
HETATM   27  C   UNL     1       8.062  32.350  63.223  1.00  0.00     0.024 A 
HETATM   28  C   UNL     1       6.814  32.912  63.491  1.00  0.00     0.005 A 
HETATM   29  C   UNL     1       5.940  33.173  62.440  1.00  0.00     0.043 A 
HETATM   30  C   UNL     1       6.318  32.865  61.135  1.00  0.00     0.124 A 
HETATM   31  F   UNL     1       5.451  33.121  60.146  1.00  0.00    -0.205 F 
ENDBRANCH  23  24
ENDBRANCH  20  23
ENDBRANCH   2  19
TORSDOF 6
ENDMDL
MODEL 3
REMARK VINA RESULT:      -9.2      4.000     10.827
REMARK  6 active torsions:
REMARK  status: ('A' for Active; 'I' for Inactive)
REMARK    1  A    between atoms: O_2  and  C_3 
REMARK    2  A    between atoms: C_6  and  C_7 
REMARK    3  A    between atoms: C_11  and  C_12 
REMARK       I    between atoms: C_12  and  N_13 
REMARK    4  A    between atoms: N_13  and  N_14 
REMARK       I    between atoms: N_14  and  C_15 
REMARK    5  A    between atoms: C_15  and  C_16 
REMARK    6  A    between atoms: C_16  and  C_17 
ROOT
HETATM    1  C   UNL     1       8.148  27.951  56.337  1.00  0.00     0.288 C 
HETATM    2  N   UNL     1       8.003  26.640  56.738  1.00  0.00    -0.262 N 
HETATM    3  O   UNL     1       8.004  28.291  55.163  1.00  0.00    -0.264 OA
HETATM    4  H   UNL     1       7.955  26.378  57.721  1.00  0.00     0.190 HD
ENDROOT
BRANCH   1   5
HETATM    5  C   UNL     1       8.454  28.887  57.384  1.00  0.00     0.121 A 
HETATM    6  N   UNL     1       9.639  29.566  57.423  1.00  0.00    -0.272 N 
HETATM    7  N   UNL     1       9.758  30.407  58.460  1.00  0.00    -0.174 NA
HETATM    8  H   UNL     1      10.407  29.491  56.762  1.00  0.00     0.189 HD
HETATM    9  C   UNL     1       8.594  30.302  59.120  1.00  0.00     0.089 A 
HETATM   10  C   UNL     1       7.757  29.340  58.486  1.00  0.00     0.071 A 
BRANCH   9  11
HETATM   11  C   UNL     1       8.307  31.102  60.315  1.00  0.00    -0.005 A 
HETATM   12  C   UNL     1       7.450  32.208  60.256  1.00  0.00     0.016 A 
HETATM   13  C   UNL     1       7.185  32.963  61.405  1.00  0.00     0.037 A 
HETATM   14  C   UNL     1       7.764  32.629  62.630  1.00  0.00     0.068 A 
HETATM   15  C   UNL     1       8.624  31.534  62.697  1.00  0.00     0.037 A 
HETATM   16  C   UNL     1       8.894  30.779  61.547  1.00  0.00     0.016 A 
BRANCH  14  17
HETATM   17  O   UNL     1       7.416  33.447  63.668  1.00  0.00    -0.356 OA
HETATM   18  C   UNL     1       6.161  33.196  64.289  1.00  0.00     0.210 C 
ENDBRANCH  14  17
ENDBRANCH   9  11
ENDBRANCH   1   5
BRANCH   2  19
HETATM   19  N   UNL     1       7.409  25.731  55.847  1.00  0.00    -0.267 N 
HETATM   20  C   UNL     1       7.599  24.389  56.106  1.00  0.00     0.240 C 
HETATM   21  O   UNL     1       8.418  23.993  56.936  1.00  0.00    -0.272 OA
HETATM   22  H   UNL     1       6.625  26.082  55.296  1.00  0.00     0.190 HD
BRANCH  20  23
HETATM   23  C   UNL     1       6.729  23.456  55.290  1.00  0.00     0.148 C 
BRANCH  23  24
HETATM   24  C   UNL     1       7.527  22.408  54.561  1.00  0.00     0.011 A 
HETATM   25  C   UNL     1       8.076  22.606  53.288  1.00  0.00     0.043 A 
HETATM   26 CL   UNL     1       7.861  24.087  52.423  1.00  0.00    -0.084 Cl
HETATM   27  C   UNL     1       8.822  21.597  52.665  1.00  0.00     0.024 A 
HETATM   28  C   UNL     1       9.039  20.380  53.310  1.00  0.00     0.005 A 
HETATM   29  C   UNL     1       8.510  20.173  54.579  1.00  0.00     0.043 A 
HETATM   30  C   UNL     1       7.767  21.181  55.190  1.00  0.00     0.124 A 
HETATM   31  F   UNL     1       7.265  20.948  56.411  1.00  0.00    -0.205 F 
ENDBRANCH  23  24
ENDBRANCH  20  23
ENDBRANCH   2  19
TORSDOF 6
ENDMDL
MODEL 4
REMARK VINA RESULT:      -9.2      7.850     11.299
REMARK  6 active torsions:
REMARK  status: ('A' for Active; 'I' for Inactive)
REMARK    1  A    between atoms: O_2  and  C_3 
REMARK    2  A    between atoms: C_6  and  C_7 
REMARK    3  A    between atoms: C_11  and  C_12 
REMARK       I    between atoms: C_12  and  N_13 
REMARK    4  A    between atoms: N_13  and  N_14 
REMARK       I    between atoms: N_14  and  C_15 
REMARK    5  A    between atoms: C_15  and  C_16 
REMARK    6  A    between atoms: C_16  and  C_17 
ROOT
HETATM    1  C   UNL     1       5.450  27.099  50.704  1.00  0.00     0.288 C 
HETATM    2  N   UNL     1       5.993  25.844  50.887  1.00  0.00    -0.262 N 
HETATM    3  O   UNL     1       5.668  28.022  51.488  1.00  0.00    -0.264 OA
HETATM    4  H   UNL     1       5.955  25.129  50.163  1.00  0.00     0.190 HD
ENDROOT
BRANCH   1   5
HETATM    5  C   UNL     1       4.637  27.254  49.530  1.00  0.00     0.121 A 
HETATM    6  N   UNL     1       4.989  26.704  48.329  1.00  0.00    -0.272 N 
HETATM    7  N   UNL     1       4.113  26.935  47.340  1.00  0.00    -0.174 NA
HETATM    8  H   UNL     1       5.822  26.158  48.130  1.00  0.00     0.189 HD
HETATM    9  C   UNL     1       3.129  27.643  47.914  1.00  0.00     0.089 A 
HETATM   10  C   UNL     1       3.433  27.883  49.284  1.00  0.00     0.071 A 
BRANCH   9  11
HETATM   11  C   UNL     1       1.944  28.070  47.164  1.00  0.00    -0.005 A 
HETATM   12  C   UNL     1       0.966  27.148  46.769  1.00  0.00     0.016 A 
HETATM   13  C   UNL     1      -0.160  27.570  46.053  1.00  0.00     0.037 A 
HETATM   14  C   UNL     1      -0.335  28.914  45.720  1.00  0.00     0.068 A 
HETATM   15  C   UNL     1       0.636  29.838  46.103  1.00  0.00     0.037 A 
HETATM   16  C   UNL     1       1.767  29.418  46.816  1.00  0.00     0.016 A 
BRANCH  14  17
HETATM   17  O   UNL     1      -1.479  29.186  45.024  1.00  0.00    -0.356 OA
HETATM   18  C   UNL     1      -2.552  29.765  45.756  1.00  0.00     0.210 C 
ENDBRANCH  14  17
ENDBRANCH   9  11
ENDBRANCH   1   5
BRANCH   2  19
HETATM   19  N   UNL     1       7.030  25.696  51.822  1.00  0.00    -0.267 N 
HETATM   20  C   UNL     1       6.729  25.014  52.984  1.00  0.00     0.240 C 
HETATM   21  O   UNL     1       5.571  24.736  53.297  1.00  0.00    -0.272 OA
HETATM   22  H   UNL     1       7.981  25.783  51.463  1.00  0.00     0.190 HD
BRANCH  20  23
HETATM   23  C   UNL     1       7.928  24.645  53.832  1.00  0.00     0.148 C 
BRANCH  23  24
HETATM   24  C   UNL     1       7.913  23.202  54.262  1.00  0.00     0.011 A 
HETATM   25  C   UNL     1       7.769  22.797  55.595  1.00  0.00     0.043 A 
HETATM   26 CL   UNL     1       7.618  23.940  56.883  1.00  0.00    -0.084 Cl
HETATM   27  C   UNL     1       7.749  21.438  55.933  1.00  0.00     0.024 A 
HETATM   28  C   UNL     1       7.861  20.463  54.941  1.00  0.00     0.005 A 
HETATM   29  C   UNL     1       7.991  20.850  53.611  1.00  0.00     0.043 A 
HETATM   30  C   UNL     1       8.014  22.204  53.285  1.00  0.00     0.124 A 
HETATM   31  F   UNL     1       8.149  22.545  51.996  1.00  0.00    -0.205 F 
ENDBRANCH  23  24
ENDBRANCH  20  23
ENDBRANCH   2  19
TORSDOF 6
ENDMDL
MODEL 5
REMARK VINA RESULT:      -9.1      3.674     10.536
REMARK  6 active torsions:
REMARK  status: ('A' for Active; 'I' for Inactive)
REMARK    1  A    between atoms: O_2  and  C_3 
REMARK    2  A    between atoms: C_6  and  C_7 
REMARK    3  A    between atoms: C_11  and  C_12 
REMARK       I    between atoms: C_12  and  N_13 
REMARK    4  A    between atoms: N_13  and  N_14 
REMARK       I    between atoms: N_14  and  C_15 
REMARK    5  A    between atoms: C_15  and  C_16 
REMARK    6  A    between atoms: C_16  and  C_17 
ROOT
HETATM    1  C   UNL     1       8.823  29.308  56.936  1.00  0.00     0.288 C 
HETATM    2  N   UNL     1       8.387  28.038  57.251  1.00  0.00    -0.262 N 
HETATM    3  O   UNL     1       9.171  29.611  55.796  1.00  0.00    -0.264 OA
HETATM    4  H   UNL     1       7.942  27.825  58.143  1.00  0.00     0.190 HD
ENDROOT
BRANCH   1   5
HETATM    5  C   UNL     1       8.818  30.249  58.022  1.00  0.00     0.121 A 
HETATM    6  N   UNL     1       9.715  31.278  58.091  1.00  0.00    -0.272 N 
HETATM    7  N   UNL     1       9.564  32.069  59.163  1.00  0.00    -0.174 NA
HETATM    8  H   UNL     1      10.456  31.485  57.428  1.00  0.00     0.189 HD
HETATM    9  C   UNL     1       8.506  31.562  59.816  1.00  0.00     0.089 A 
HETATM   10  C   UNL     1       8.024  30.404  59.141  1.00  0.00     0.071 A 
BRANCH   9  11
HETATM   11  C   UNL     1       7.987  32.174  61.042  1.00  0.00    -0.005 A 
HETATM   12  C   UNL     1       8.660  32.031  62.263  1.00  0.00     0.016 A 
HETATM   13  C   UNL     1       8.152  32.620  63.426  1.00  0.00     0.037 A 
HETATM   14  C   UNL     1       6.971  33.363  63.396  1.00  0.00     0.068 A 
HETATM   15  C   UNL     1       6.291  33.505  62.187  1.00  0.00     0.037 A 
HETATM   16  C   UNL     1       6.795  32.913  61.022  1.00  0.00     0.016 A 
BRANCH  14  17
HETATM   17  O   UNL     1       6.594  33.885  64.601  1.00  0.00    -0.356 OA
HETATM   18  C   UNL     1       5.291  34.452  64.675  1.00  0.00     0.210 C 
ENDBRANCH  14  17
ENDBRANCH   9  11
ENDBRANCH   1   5
BRANCH   2  19
HETATM   19  N   UNL     1       8.072  27.161  56.201  1.00  0.00    -0.267 N 
HETATM   20  C   UNL     1       6.733  26.904  55.983  1.00  0.00     0.240 C 
HETATM   21  O   UNL     1       5.864  27.240  56.788  1.00  0.00    -0.272 OA
HETATM   22  H   UNL     1       8.782  27.047  55.476  1.00  0.00     0.190 HD
BRANCH  20  23
HETATM   23  C   UNL     1       6.429  26.179  54.689  1.00  0.00     0.148 C 
BRANCH  23  24
HETATM   24  C   UNL     1       7.061  24.814  54.626  1.00  0.00     0.011 A 
HETATM   25  C   UNL     1       7.821  24.367  53.537  1.00  0.00     0.043 A 
HETATM   26 CL   UNL     1       8.082  25.353  52.142  1.00  0.00    -0.084 Cl
HETATM   27  C   UNL     1       8.397  23.090  53.543  1.00  0.00     0.024 A 
HETATM   28  C   UNL     1       8.229  22.245  54.640  1.00  0.00     0.005 A 
HETATM   29  C   UNL     1       7.488  22.680  55.733  1.00  0.00     0.043 A 
HETATM   30  C   UNL     1       6.917  23.951  55.719  1.00  0.00     0.124 A 
HETATM   31  F   UNL     1       6.201  24.338  56.784  1.00  0.00    -0.205 F 
ENDBRANCH  23  24
ENDBRANCH  20  23
ENDBRANCH   2  19
TORSDOF 6
ENDMDL
MODEL 6
REMARK VINA RESULT:      -8.9      3.488     10.982
REMARK  6 active torsions:
REMARK  status: ('A' for Active; 'I' for Inactive)
REMARK    1  A    between atoms: O_2  and  C_3 
REMARK    2  A    between atoms: C_6  and  C_7 
REMARK    3  A    between atoms: C_11  and  C_12 
REMARK       I    between atoms: C_12  and  N_13 
REMARK    4  A    between atoms: N_13  and  N_14 
REMARK       I    between atoms: N_14  and  C_15 
REMARK    5  A    between atoms: C_15  and  C_16 
REMARK    6  A    between atoms: C_16  and  C_17 
ROOT
HETATM    1  C   UNL     1       8.385  30.285  59.266  1.00  0.00     0.288 C 
HETATM    2  N   UNL     1       7.678  29.238  58.712  1.00  0.00    -0.262 N 
HETATM    3  O   UNL     1       9.546  30.528  58.942  1.00  0.00    -0.264 OA
HETATM    4  H   UNL     1       6.674  29.132  58.848  1.00  0.00     0.190 HD
ENDROOT
BRANCH   1   5
HETATM    5  C   UNL     1       7.664  31.079  60.222  1.00  0.00     0.121 A 
HETATM    6  N   UNL     1       6.473  31.675  59.916  1.00  0.00    -0.272 N 
HETATM    7  N   UNL     1       5.929  32.369  60.926  1.00  0.00    -0.174 NA
HETATM    8  H   UNL     1       5.985  31.640  59.026  1.00  0.00     0.189 HD
HETATM    9  C   UNL     1       6.779  32.203  61.951  1.00  0.00     0.089 A 
HETATM   10  C   UNL     1       7.893  31.417  61.541  1.00  0.00     0.071 A 
BRANCH   9  11
HETATM   11  C   UNL     1       6.522  32.785  63.272  1.00  0.00    -0.005 A 
HETATM   12  C   UNL     1       7.575  33.173  64.110  1.00  0.00     0.016 A 
HETATM   13  C   UNL     1       7.315  33.726  65.369  1.00  0.00     0.037 A 
HETATM   14  C   UNL     1       6.005  33.905  65.815  1.00  0.00     0.068 A 
HETATM   15  C   UNL     1       4.949  33.514  64.991  1.00  0.00     0.037 A 
HETATM   16  C   UNL     1       5.208  32.957  63.732  1.00  0.00     0.016 A 
BRANCH  14  17
HETATM   17  O   UNL     1       5.895  34.459  67.060  1.00  0.00    -0.356 OA
HETATM   18  C   UNL     1       4.727  34.138  67.804  1.00  0.00     0.210 C 
ENDBRANCH  14  17
ENDBRANCH   9  11
ENDBRANCH   1   5
BRANCH   2  19
HETATM   19  N   UNL     1       8.196  28.617  57.564  1.00  0.00    -0.267 N 
HETATM   20  C   UNL     1       7.295  28.296  56.569  1.00  0.00     0.240 C 
HETATM   21  O   UNL     1       6.078  28.345  56.749  1.00  0.00    -0.272 OA
HETATM   22  H   UNL     1       9.192  28.748  57.387  1.00  0.00     0.190 HD
BRANCH  20  23
HETATM   23  C   UNL     1       7.923  27.882  55.254  1.00  0.00     0.148 C 
BRANCH  23  24
HETATM   24  C   UNL     1       7.225  26.707  54.623  1.00  0.00     0.011 A 
HETATM   25  C   UNL     1       6.382  26.821  53.509  1.00  0.00     0.043 A 
HETATM   26 CL   UNL     1       6.050  28.346  52.769  1.00  0.00    -0.084 Cl
HETATM   27  C   UNL     1       5.770  25.688  52.956  1.00  0.00     0.024 A 
HETATM   28  C   UNL     1       6.000  24.425  53.502  1.00  0.00     0.005 A 
HETATM   29  C   UNL     1       6.845  24.296  54.599  1.00  0.00     0.043 A 
HETATM   30  C   UNL     1       7.446  25.428  55.145  1.00  0.00     0.124 A 
HETATM   31  F   UNL     1       8.249  25.271  56.207  1.00  0.00    -0.205 F 
ENDBRANCH  23  24
ENDBRANCH  20  23
ENDBRANCH   2  19
TORSDOF 6
ENDMDL
MODEL 7
REMARK VINA RESULT:      -8.5      1.751      2.213
REMARK  6 active torsions:
REMARK  status: ('A' for Active; 'I' for Inactive)
REMARK    1  A    between atoms: O_2  and  C_3 
REMARK    2  A    between atoms: C_6  and  C_7 
REMARK    3  A    between atoms: C_11  and  C_12 
REMARK       I    between atoms: C_12  and  N_13 
REMARK    4  A    between atoms: N_13  and  N_14 
REMARK       I    between atoms: N_14  and  C_15 
REMARK    5  A    between atoms: C_15  and  C_16 
REMARK    6  A    between atoms: C_16  and  C_17 
ROOT
HETATM    1  C   UNL     1       5.671  30.108  57.211  1.00  0.00     0.288 C 
HETATM    2  N   UNL     1       5.427  30.420  58.532  1.00  0.00    -0.262 N 
HETATM    3  O   UNL     1       5.827  30.978  56.356  1.00  0.00    -0.264 OA
HETATM    4  H   UNL     1       5.463  29.718  59.269  1.00  0.00     0.190 HD
ENDROOT
BRANCH   1   5
HETATM    5  C   UNL     1       5.754  28.704  56.914  1.00  0.00     0.121 A 
HETATM    6  N   UNL     1       4.679  27.871  57.056  1.00  0.00    -0.272 N 
HETATM    7  N   UNL     1       4.925  26.595  56.725  1.00  0.00    -0.174 NA
HETATM    8  H   UNL     1       3.750  28.125  57.377  1.00  0.00     0.189 HD
HETATM    9  C   UNL     1       6.205  26.587  56.322  1.00  0.00     0.089 A 
HETATM   10  C   UNL     1       6.766  27.890  56.448  1.00  0.00     0.071 A 
BRANCH   9  11
HETATM   11  C   UNL     1       6.857  25.367  55.836  1.00  0.00    -0.005 A 
HETATM   12  C   UNL     1       7.922  24.788  56.537  1.00  0.00     0.016 A 
HETATM   13  C   UNL     1       8.535  23.623  56.061  1.00  0.00     0.037 A 
HETATM   14  C   UNL     1       8.098  23.013  54.885  1.00  0.00     0.068 A 
HETATM   15  C   UNL     1       7.042  23.586  54.177  1.00  0.00     0.037 A 
HETATM   16  C   UNL     1       6.430  24.754  54.649  1.00  0.00     0.016 A 
BRANCH  14  17
HETATM   17  O   UNL     1       8.781  21.881  54.539  1.00  0.00    -0.356 OA
HETATM   18  C   UNL     1       8.038  20.855  53.893  1.00  0.00     0.210 C 
ENDBRANCH  14  17
ENDBRANCH   9  11
ENDBRANCH   1   5
BRANCH   2  19
HETATM   19  N   UNL     1       5.636  31.743  58.955  1.00  0.00    -0.267 N 
HETATM   20  C   UNL     1       4.765  32.240  59.903  1.00  0.00     0.240 C 
HETATM   21  O   UNL     1       3.729  31.651  60.211  1.00  0.00    -0.272 OA
HETATM   22  H   UNL     1       6.573  32.122  58.811  1.00  0.00     0.190 HD
BRANCH  20  23
HETATM   23  C   UNL     1       5.186  33.557  60.522  1.00  0.00     0.148 C 
BRANCH  23  24
HETATM   24  C   UNL     1       5.771  33.391  61.899  1.00  0.00     0.011 A 
HETATM   25  C   UNL     1       5.012  33.474  63.073  1.00  0.00     0.043 A 
HETATM   26 CL   UNL     1       3.316  33.803  63.040  1.00  0.00    -0.084 Cl
HETATM   27  C   UNL     1       5.611  33.297  64.327  1.00  0.00     0.024 A 
HETATM   28  C   UNL     1       6.975  33.023  64.424  1.00  0.00     0.005 A 
HETATM   29  C   UNL     1       7.739  32.924  63.266  1.00  0.00     0.043 A 
HETATM   30  C   UNL     1       7.136  33.105  62.024  1.00  0.00     0.124 A 
HETATM   31  F   UNL     1       7.900  33.012  60.927  1.00  0.00    -0.205 F 
ENDBRANCH  23  24
ENDBRANCH  20  23
ENDBRANCH   2  19
TORSDOF 6
ENDMDL
MODEL 8
REMARK VINA RESULT:      -8.4      7.993     11.007
REMARK  6 active torsions:
REMARK  status: ('A' for Active; 'I' for Inactive)
REMARK    1  A    between atoms: O_2  and  C_3 
REMARK    2  A    between atoms: C_6  and  C_7 
REMARK    3  A    between atoms: C_11  and  C_12 
REMARK       I    between atoms: C_12  and  N_13 
REMARK    4  A    between atoms: N_13  and  N_14 
REMARK       I    between atoms: N_14  and  C_15 
REMARK    5  A    between atoms: C_15  and  C_16 
REMARK    6  A    between atoms: C_16  and  C_17 
ROOT
HETATM    1  C   UNL     1       4.555  27.993  50.939  1.00  0.00     0.288 C 
HETATM    2  N   UNL     1       4.211  27.287  52.073  1.00  0.00    -0.262 N 
HETATM    3  O   UNL     1       5.544  28.724  50.903  1.00  0.00    -0.264 OA
HETATM    4  H   UNL     1       3.500  26.559  52.061  1.00  0.00     0.190 HD
ENDROOT
BRANCH   1   5
HETATM    5  C   UNL     1       3.694  27.796  49.805  1.00  0.00     0.121 A 
HETATM    6  N   UNL     1       3.581  26.584  49.186  1.00  0.00    -0.272 N 
HETATM    7  N   UNL     1       2.727  26.571  48.152  1.00  0.00    -0.174 NA
HETATM    8  H   UNL     1       4.068  25.727  49.430  1.00  0.00     0.189 HD
HETATM    9  C   UNL     1       2.233  27.818  48.101  1.00  0.00     0.089 A 
HETATM   10  C   UNL     1       2.834  28.624  49.110  1.00  0.00     0.071 A 
BRANCH   9  11
HETATM   11  C   UNL     1       1.223  28.212  47.115  1.00  0.00    -0.005 A 
HETATM   12  C   UNL     1       0.498  27.251  46.399  1.00  0.00     0.016 A 
HETATM   13  C   UNL     1      -0.463  27.641  45.460  1.00  0.00     0.037 A 
HETATM   14  C   UNL     1      -0.722  28.990  45.218  1.00  0.00     0.068 A 
HETATM   15  C   UNL     1      -0.001  29.955  45.921  1.00  0.00     0.037 A 
HETATM   16  C   UNL     1       0.965  29.566  46.859  1.00  0.00     0.016 A 
BRANCH  14  17
HETATM   17  O   UNL     1      -1.688  29.228  44.280  1.00  0.00    -0.356 OA
HETATM   18  C   UNL     1      -1.548  28.560  43.033  1.00  0.00     0.210 C 
ENDBRANCH  14  17
ENDBRANCH   9  11
ENDBRANCH   1   5
BRANCH   2  19
HETATM   19  N   UNL     1       5.157  27.184  53.106  1.00  0.00    -0.267 N 
HETATM   20  C   UNL     1       5.373  25.925  53.629  1.00  0.00     0.240 C 
HETATM   21  O   UNL     1       4.635  24.974  53.371  1.00  0.00    -0.272 OA
HETATM   22  H   UNL     1       5.846  27.934  53.168  1.00  0.00     0.190 HD
BRANCH  20  23
HETATM   23  C   UNL     1       6.579  25.815  54.540  1.00  0.00     0.148 C 
BRANCH  23  24
HETATM   24  C   UNL     1       7.205  24.446  54.510  1.00  0.00     0.011 A 
HETATM   25  C   UNL     1       7.865  23.926  53.389  1.00  0.00     0.043 A 
HETATM   26 CL   UNL     1       7.998  24.817  51.915  1.00  0.00    -0.084 Cl
HETATM   27  C   UNL     1       8.441  22.649  53.427  1.00  0.00     0.024 A 
HETATM   28  C   UNL     1       8.374  21.879  54.588  1.00  0.00     0.005 A 
HETATM   29  C   UNL     1       7.733  22.388  55.712  1.00  0.00     0.043 A 
HETATM   30  C   UNL     1       7.160  23.657  55.665  1.00  0.00     0.124 A 
HETATM   31  F   UNL     1       6.543  24.116  56.763  1.00  0.00    -0.205 F 
ENDBRANCH  23  24
ENDBRANCH  20  23
ENDBRANCH   2  19
TORSDOF 6
ENDMDL
MODEL 9
REMARK VINA RESULT:      -8.4      6.506     11.233
REMARK  6 active torsions:
REMARK  status: ('A' for Active; 'I' for Inactive)
REMARK    1  A    between atoms: O_2  and  C_3 
REMARK    2  A    between atoms: C_6  and  C_7 
REMARK    3  A    between atoms: C_11  and  C_12 
REMARK       I    between atoms: C_12  and  N_13 
REMARK    4  A    between atoms: N_13  and  N_14 
REMARK       I    between atoms: N_14  and  C_15 
REMARK    5  A    between atoms: C_15  and  C_16 
REMARK    6  A    between atoms: C_16  and  C_17 
ROOT
HETATM    1  C   UNL     1       6.978  26.169  52.708  1.00  0.00     0.288 C 
HETATM    2  N   UNL     1       6.027  26.872  51.998  1.00  0.00    -0.262 N 
HETATM    3  O   UNL     1       7.487  25.139  52.269  1.00  0.00    -0.264 OA
HETATM    4  H   UNL     1       5.726  27.805  52.275  1.00  0.00     0.190 HD
ENDROOT
BRANCH   1   5
HETATM    5  C   UNL     1       7.344  26.735  53.977  1.00  0.00     0.121 A 
HETATM    6  N   UNL     1       7.330  25.999  55.128  1.00  0.00    -0.272 N 
HETATM    7  N   UNL     1       7.710  26.677  56.220  1.00  0.00    -0.174 NA
HETATM    8  H   UNL     1       7.068  25.022  55.223  1.00  0.00     0.189 HD
HETATM    9  C   UNL     1       8.014  27.905  55.771  1.00  0.00     0.089 A 
HETATM   10  C   UNL     1       7.775  27.987  54.370  1.00  0.00     0.071 A 
BRANCH   9  11
HETATM   11  C   UNL     1       8.514  28.954  56.664  1.00  0.00    -0.005 A 
HETATM   12  C   UNL     1       9.801  29.484  56.509  1.00  0.00     0.016 A 
HETATM   13  C   UNL     1      10.266  30.485  57.370  1.00  0.00     0.037 A 
HETATM   14  C   UNL     1       9.459  30.978  58.396  1.00  0.00     0.068 A 
HETATM   15  C   UNL     1       8.179  30.452  58.563  1.00  0.00     0.037 A 
HETATM   16  C   UNL     1       7.713  29.446  57.705  1.00  0.00     0.016 A 
BRANCH  14  17
HETATM   17  O   UNL     1      10.036  31.956  59.158  1.00  0.00    -0.356 OA
HETATM   18  C   UNL     1       9.559  32.096  60.490  1.00  0.00     0.210 C 
ENDBRANCH  14  17
ENDBRANCH   9  11
ENDBRANCH   1   5
BRANCH   2  19
HETATM   19  N   UNL     1       5.845  26.563  50.640  1.00  0.00    -0.267 N 
HETATM   20  C   UNL     1       4.870  27.269  49.965  1.00  0.00     0.240 C 
HETATM   21  O   UNL     1       4.050  27.975  50.552  1.00  0.00    -0.272 OA
HETATM   22  H   UNL     1       6.631  26.115  50.167  1.00  0.00     0.190 HD
BRANCH  20  23
HETATM   23  C   UNL     1       4.891  27.100  48.460  1.00  0.00     0.148 C 
BRANCH  23  24
HETATM   24  C   UNL     1       3.562  27.406  47.823  1.00  0.00     0.011 A 
HETATM   25  C   UNL     1       2.589  26.430  47.566  1.00  0.00     0.043 A 
HETATM   26 CL   UNL     1       2.847  24.764  47.944  1.00  0.00    -0.084 Cl
HETATM   27  C   UNL     1       1.364  26.778  46.983  1.00  0.00     0.024 A 
HETATM   28  C   UNL     1       1.089  28.106  46.658  1.00  0.00     0.005 A 
HETATM   29  C   UNL     1       2.040  29.087  46.919  1.00  0.00     0.043 A 
HETATM   30  C   UNL     1       3.257  28.732  47.496  1.00  0.00     0.124 A 
HETATM   31  F   UNL     1       4.155  29.699  47.728  1.00  0.00    -0.205 F 
ENDBRANCH  23  24
ENDBRANCH  20  23
ENDBRANCH   2  19
TORSDOF 6
ENDMDL
MODEL 10
REMARK VINA RESULT:      -8.2      4.401     10.664
REMARK  6 active torsions:
REMARK  status: ('A' for Active; 'I' for Inactive)
REMARK    1  A    between atoms: O_2  and  C_3 
REMARK    2  A    between atoms: C_6  and  C_7 
REMARK    3  A    between atoms: C_11  and  C_12 
REMARK       I    between atoms: C_12  and  N_13 
REMARK    4  A    between atoms: N_13  and  N_14 
REMARK       I    between atoms: N_14  and  C_15 
REMARK    5  A    between atoms: C_15  and  C_16 
REMARK    6  A    between atoms: C_16  and  C_17 
ROOT
HETATM    1  C   UNL     1       7.781  28.038  57.644  1.00  0.00     0.288 C 
HETATM    2  N   UNL     1       7.384  26.718  57.597  1.00  0.00    -0.262 N 
HETATM    3  O   UNL     1       8.968  28.359  57.691  1.00  0.00    -0.264 OA
HETATM    4  H   UNL     1       6.424  26.450  57.391  1.00  0.00     0.190 HD
ENDROOT
BRANCH   1   5
HETATM    5  C   UNL     1       6.717  29.004  57.611  1.00  0.00     0.121 A 
HETATM    6  N   UNL     1       5.441  28.661  57.262  1.00  0.00    -0.272 N 
HETATM    7  N   UNL     1       4.570  29.680  57.294  1.00  0.00    -0.174 NA
HETATM    8  H   UNL     1       5.110  27.740  56.991  1.00  0.00     0.189 HD
HETATM    9  C   UNL     1       5.291  30.734  57.708  1.00  0.00     0.089 A 
HETATM   10  C   UNL     1       6.650  30.353  57.896  1.00  0.00     0.071 A 
BRANCH   9  11
HETATM   11  C   UNL     1       4.687  32.054  57.911  1.00  0.00    -0.005 A 
HETATM   12  C   UNL     1       3.959  32.346  59.071  1.00  0.00     0.016 A 
HETATM   13  C   UNL     1       3.387  33.610  59.251  1.00  0.00     0.037 A 
HETATM   14  C   UNL     1       3.531  34.606  58.284  1.00  0.00     0.068 A 
HETATM   15  C   UNL     1       4.249  34.323  57.122  1.00  0.00     0.037 A 
HETATM   16  C   UNL     1       4.819  33.056  56.938  1.00  0.00     0.016 A 
BRANCH  14  17
HETATM   17  O   UNL     1       2.926  35.793  58.590  1.00  0.00    -0.356 OA
HETATM   18  C   UNL     1       3.448  36.510  59.702  1.00  0.00     0.210 C 
ENDBRANCH  14  17
ENDBRANCH   9  11
ENDBRANCH   1   5
BRANCH   2  19
HETATM   19  N   UNL     1       8.353  25.740  57.316  1.00  0.00    -0.267 N 
HETATM   20  C   UNL     1       7.942  24.650  56.575  1.00  0.00     0.240 C 
HETATM   21  O   UNL     1       6.753  24.424  56.351  1.00  0.00    -0.272 OA
HETATM   22  H   UNL     1       9.327  26.038  57.367  1.00  0.00     0.190 HD
BRANCH  20  23
HETATM   23  C   UNL     1       9.064  23.767  56.071  1.00  0.00     0.148 C 
BRANCH  23  24
HETATM   24  C   UNL     1       8.582  22.706  55.117  1.00  0.00     0.011 A 
HETATM   25  C   UNL     1       8.196  22.974  53.798  1.00  0.00     0.043 A 
HETATM   26 CL   UNL     1       8.218  24.576  53.150  1.00  0.00    -0.084 Cl
HETATM   27  C   UNL     1       7.769  21.941  52.953  1.00  0.00     0.024 A 
HETATM   28  C   UNL     1       7.733  20.625  53.411  1.00  0.00     0.005 A 
HETATM   29  C   UNL     1       8.126  20.341  54.715  1.00  0.00     0.043 A 
HETATM   30  C   UNL     1       8.546  21.375  55.549  1.00  0.00     0.124 A 
HETATM   31  F   UNL     1       8.911  21.070  56.802  1.00  0.00    -0.205 F 
ENDBRANCH  23  24
ENDBRANCH  20  23
ENDBRANCH   2  19
TORSDOF 6
ENDMDL
