MODEL 1
REMARK VINA RESULT:      -9.8      0.000      0.000
REMARK  10 active torsions:
REMARK  status: ('A' for Active; 'I' for Inactive)
REMARK    1  A    between atoms: C_2  and  N_3 
REMARK    2  A    between atoms: N_3  and  C_4 
REMARK    3  A    between atoms: C_6  and  N_7 
REMARK    4  A    between atoms: N_10  and  C_12 
REMARK    5  A    between atoms: C_25  and  N_26 
REMARK    6  A    between atoms: N_26  and  C_27 
REMARK    7  A    between atoms: C_27  and  C_28 
REMARK    8  A    between atoms: C_28  and  O_29 
REMARK    9  A    between atoms: C_33  and  O_34 
REMARK   10  A    between atoms: O_34  and  C_35 
ROOT
HETATM    1  C   UNL     1       6.303  27.567  57.331  1.00  0.00     0.745 A 
HETATM    2  N   UNL     1       5.400  28.517  57.108  1.00  0.00     0.130 NA
HETATM    3  C   UNL     1       5.763  29.765  57.347  1.00  0.00     0.743 A 
HETATM    4  N   UNL     1       6.954  30.085  57.828  1.00  0.00    -0.030 NA
HETATM    5  C   UNL     1       7.794  29.082  58.047  1.00  0.00     0.238 A 
HETATM    6  N   UNL     1       7.505  27.809  57.827  1.00  0.00    -0.030 NA
ENDROOT
BRANCH   3   7
HETATM    7  N   UNL     1       4.837  30.780  57.093  1.00  0.00    -0.210 N 
HETATM    8  C   UNL     1       5.391  32.135  56.986  1.00  0.00     0.169 C 
HETATM    9  C   UNL     1       5.630  32.740  58.387  1.00  0.00     0.256 C 
HETATM   10  N   UNL     1       4.315  32.724  59.212  1.00  0.00    -0.059 N 
HETATM   11  H   UNL     1       3.623  33.220  58.635  1.00  0.00     0.281 HD
HETATM   12  C   UNL     1       3.792  31.266  59.296  1.00  0.00     0.256 C 
HETATM   13  C   UNL     1       3.595  30.688  57.873  1.00  0.00     0.169 C 
BRANCH  10  14
HETATM   14  C   UNL     1       4.368  33.503  60.542  1.00  0.00     0.129 C 
HETATM   15  C   UNL     1       4.122  35.009  60.250  1.00  0.00     0.043 C 
HETATM   16  C   UNL     1       4.129  35.823  61.555  1.00  0.00    -0.012 C 
HETATM   17  C   UNL     1       5.489  35.640  62.252  1.00  0.00     0.009 C 
HETATM   18  C   UNL     1       3.010  35.316  62.475  1.00  0.00     0.009 C 
HETATM   19  C   UNL     1       5.724  34.153  62.573  1.00  0.00    -0.012 C 
HETATM   20  C   UNL     1       5.723  33.337  61.261  1.00  0.00     0.043 C 
HETATM   21  C   UNL     1       4.595  33.658  63.490  1.00  0.00     0.009 C 
HETATM   22  C   UNL     1       3.234  33.833  62.795  1.00  0.00    -0.012 C 
HETATM   23  C   UNL     1       3.234  33.020  61.488  1.00  0.00     0.043 C 
ENDBRANCH  10  14
ENDBRANCH   3   7
BRANCH   1  24
HETATM   24  N   UNL     1       5.989  26.232  57.085  1.00  0.00    -0.188 N 
HETATM   25  H   UNL     1       5.396  25.871  57.822  1.00  0.00     0.184 HD
BRANCH  24  26
HETATM   26  C   UNL     1       6.661  25.259  56.331  1.00  0.00     0.049 A 
HETATM   27  C   UNL     1       6.267  24.872  55.047  1.00  0.00     0.033 A 
HETATM   28  C   UNL     1       6.945  23.868  54.341  1.00  0.00     0.039 A 
HETATM   29  C   UNL     1       8.024  23.207  54.924  1.00  0.00     0.078 A 
HETATM   30  C   UNL     1       8.414  23.569  56.215  1.00  0.00     0.039 A 
HETATM   31  C   UNL     1       7.740  24.581  56.910  1.00  0.00     0.033 A 
BRANCH  29  32
HETATM   32  O   UNL     1       8.766  22.211  54.362  1.00  0.00    -0.255 OA
BRANCH  32  33
HETATM   33  C   UNL     1       8.155  20.941  54.203  1.00  0.00     0.530 C 
HETATM   34  F   UNL     1       7.363  20.650  55.258  1.00  0.00    -0.144 F 
HETATM   35  F   UNL     1       7.425  20.892  53.068  1.00  0.00    -0.144 F 
HETATM   36  F   UNL     1       9.118  19.998  54.129  1.00  0.00    -0.144 F 
ENDBRANCH  32  33
ENDBRANCH  29  32
ENDBRANCH  24  26
ENDBRANCH   1  24
BRANCH   5  37
HETATM   37  N   UNL     1       9.040  29.443  58.528  1.00  0.00    -0.258 NA
HETATM   38  H   UNL     1       8.931  29.767  59.484  1.00  0.00     0.130 HD
BRANCH  37  39
HETATM   39  C   UNL     1       9.804  30.392  57.715  1.00  0.00     0.121 C 
BRANCH  39  40
HETATM   40  C   UNL     1      10.736  29.682  56.723  1.00  0.00     0.178 C 
BRANCH  40  41
HETATM   41  O   UNL     1      12.096  29.822  57.138  1.00  0.00    -0.400 OA
HETATM   42  H   UNL     1      12.139  29.535  58.067  1.00  0.00     0.209 HD
ENDBRANCH  40  41
ENDBRANCH  39  40
ENDBRANCH  37  39
ENDBRANCH   5  37
TORSDOF 10
ENDMDL
MODEL 2
REMARK VINA RESULT:      -9.7      1.241      1.971
REMARK  10 active torsions:
REMARK  status: ('A' for Active; 'I' for Inactive)
REMARK    1  A    between atoms: C_2  and  N_3 
REMARK    2  A    between atoms: N_3  and  C_4 
REMARK    3  A    between atoms: C_6  and  N_7 
REMARK    4  A    between atoms: N_10  and  C_12 
REMARK    5  A    between atoms: C_25  and  N_26 
REMARK    6  A    between atoms: N_26  and  C_27 
REMARK    7  A    between atoms: C_27  and  C_28 
REMARK    8  A    between atoms: C_28  and  O_29 
REMARK    9  A    between atoms: C_33  and  O_34 
REMARK   10  A    between atoms: O_34  and  C_35 
ROOT
HETATM    1  C   UNL     1       5.846  27.546  55.516  1.00  0.00     0.745 A 
HETATM    2  N   UNL     1       4.912  28.479  55.663  1.00  0.00     0.130 NA
HETATM    3  C   UNL     1       5.321  29.719  55.870  1.00  0.00     0.743 A 
HETATM    4  N   UNL     1       6.602  30.042  55.974  1.00  0.00    -0.030 NA
HETATM    5  C   UNL     1       7.475  29.054  55.838  1.00  0.00     0.238 A 
HETATM    6  N   UNL     1       7.142  27.791  55.624  1.00  0.00    -0.030 NA
ENDROOT
BRANCH   3   7
HETATM    7  N   UNL     1       4.354  30.719  56.000  1.00  0.00    -0.210 N 
HETATM    8  C   UNL     1       4.865  32.093  56.068  1.00  0.00     0.169 C 
HETATM    9  C   UNL     1       5.359  32.422  57.494  1.00  0.00     0.256 C 
HETATM   10  N   UNL     1       4.224  32.183  58.526  1.00  0.00    -0.059 N 
HETATM   11  H   UNL     1       3.431  32.749  58.198  1.00  0.00     0.281 HD
HETATM   12  C   UNL     1       3.740  30.713  58.409  1.00  0.00     0.256 C 
HETATM   13  C   UNL     1       3.283  30.417  56.960  1.00  0.00     0.169 C 
BRANCH  10  14
HETATM   14  C   UNL     1       4.520  32.688  59.953  1.00  0.00     0.129 C 
HETATM   15  C   UNL     1       3.566  31.969  60.946  1.00  0.00     0.043 C 
HETATM   16  C   UNL     1       3.849  32.414  62.391  1.00  0.00    -0.012 C 
HETATM   17  C   UNL     1       3.657  33.938  62.491  1.00  0.00     0.009 C 
HETATM   18  C   UNL     1       5.295  32.055  62.758  1.00  0.00     0.009 C 
HETATM   19  C   UNL     1       4.623  34.658  61.532  1.00  0.00    -0.012 C 
HETATM   20  C   UNL     1       4.333  34.215  60.081  1.00  0.00     0.043 C 
HETATM   21  C   UNL     1       6.066  34.286  61.908  1.00  0.00     0.009 C 
HETATM   22  C   UNL     1       6.264  32.764  61.803  1.00  0.00    -0.012 C 
HETATM   23  C   UNL     1       5.975  32.323  60.357  1.00  0.00     0.043 C 
ENDBRANCH  10  14
ENDBRANCH   3   7
BRANCH   1  24
HETATM   24  N   UNL     1       5.482  26.222  55.280  1.00  0.00    -0.188 N 
HETATM   25  H   UNL     1       4.570  26.034  55.677  1.00  0.00     0.184 HD
BRANCH  24  26
HETATM   26  C   UNL     1       6.269  25.087  55.034  1.00  0.00     0.049 A 
HETATM   27  C   UNL     1       6.898  24.352  56.044  1.00  0.00     0.033 A 
HETATM   28  C   UNL     1       7.706  23.245  55.752  1.00  0.00     0.039 A 
HETATM   29  C   UNL     1       7.926  22.866  54.430  1.00  0.00     0.078 A 
HETATM   30  C   UNL     1       7.322  23.604  53.411  1.00  0.00     0.039 A 
HETATM   31  C   UNL     1       6.506  24.702  53.709  1.00  0.00     0.033 A 
BRANCH  29  32
HETATM   32  O   UNL     1       8.693  21.822  54.002  1.00  0.00    -0.255 OA
BRANCH  32  33
HETATM   33  C   UNL     1       8.105  20.532  53.990  1.00  0.00     0.530 C 
HETATM   34  F   UNL     1       7.365  20.327  55.102  1.00  0.00    -0.144 F 
HETATM   35  F   UNL     1       7.328  20.361  52.899  1.00  0.00    -0.144 F 
HETATM   36  F   UNL     1       9.085  19.605  53.961  1.00  0.00    -0.144 F 
ENDBRANCH  32  33
ENDBRANCH  29  32
ENDBRANCH  24  26
ENDBRANCH   1  24
BRANCH   5  37
HETATM   37  N   UNL     1       8.806  29.420  55.928  1.00  0.00    -0.258 NA
HETATM   38  H   UNL     1       9.340  28.839  55.289  1.00  0.00     0.130 HD
BRANCH  37  39
HETATM   39  C   UNL     1       9.391  29.434  57.270  1.00  0.00     0.121 C 
BRANCH  39  40
HETATM   40  C   UNL     1      10.590  30.387  57.367  1.00  0.00     0.178 C 
BRANCH  40  41
HETATM   41  O   UNL     1      11.795  29.700  57.025  1.00  0.00    -0.400 OA
HETATM   42  H   UNL     1      12.316  30.304  56.467  1.00  0.00     0.209 HD
ENDBRANCH  40  41
ENDBRANCH  39  40
ENDBRANCH  37  39
ENDBRANCH   5  37
TORSDOF 10
ENDMDL
MODEL 3
REMARK VINA RESULT:      -9.7      0.988      1.430
REMARK  10 active torsions:
REMARK  status: ('A' for Active; 'I' for Inactive)
REMARK    1  A    between atoms: C_2  and  N_3 
REMARK    2  A    between atoms: N_3  and  C_4 
REMARK    3  A    between atoms: C_6  and  N_7 
REMARK    4  A    between atoms: N_10  and  C_12 
REMARK    5  A    between atoms: C_25  and  N_26 
REMARK    6  A    between atoms: N_26  and  C_27 
REMARK    7  A    between atoms: C_27  and  C_28 
REMARK    8  A    between atoms: C_28  and  O_29 
REMARK    9  A    between atoms: C_33  and  O_34 
REMARK   10  A    between atoms: O_34  and  C_35 
ROOT
HETATM    1  C   UNL     1       5.962  27.309  55.980  1.00  0.00     0.745 A 
HETATM    2  N   UNL     1       5.111  28.323  55.872  1.00  0.00     0.130 NA
HETATM    3  C   UNL     1       5.485  29.485  56.379  1.00  0.00     0.743 A 
HETATM    4  N   UNL     1       6.636  29.652  57.013  1.00  0.00    -0.030 NA
HETATM    5  C   UNL     1       7.424  28.589  57.101  1.00  0.00     0.238 A 
HETATM    6  N   UNL     1       7.120  27.397  56.613  1.00  0.00    -0.030 NA
ENDROOT
BRANCH   3   7
HETATM    7  N   UNL     1       4.614  30.571  56.251  1.00  0.00    -0.210 N 
HETATM    8  C   UNL     1       5.243  31.896  56.276  1.00  0.00     0.169 C 
HETATM    9  C   UNL     1       5.536  32.335  57.728  1.00  0.00     0.256 C 
HETATM   10  N   UNL     1       4.233  32.306  58.572  1.00  0.00    -0.059 N 
HETATM   11  H   UNL     1       3.563  32.897  58.064  1.00  0.00     0.281 HD
HETATM   12  C   UNL     1       3.629  30.878  58.513  1.00  0.00     0.256 C 
HETATM   13  C   UNL     1       3.380  30.465  57.041  1.00  0.00     0.169 C 
BRANCH  10  14
HETATM   14  C   UNL     1       4.348  32.935  59.975  1.00  0.00     0.129 C 
HETATM   15  C   UNL     1       3.825  34.397  59.912  1.00  0.00     0.043 C 
HETATM   16  C   UNL     1       3.886  35.056  61.300  1.00  0.00    -0.012 C 
HETATM   17  C   UNL     1       5.343  35.042  61.797  1.00  0.00     0.009 C 
HETATM   18  C   UNL     1       3.005  34.265  62.276  1.00  0.00     0.009 C 
HETATM   19  C   UNL     1       5.856  33.594  61.892  1.00  0.00    -0.012 C 
HETATM   20  C   UNL     1       5.800  32.935  60.496  1.00  0.00     0.043 C 
HETATM   21  C   UNL     1       4.962  32.813  62.869  1.00  0.00     0.009 C 
HETATM   22  C   UNL     1       3.506  32.819  62.373  1.00  0.00    -0.012 C 
HETATM   23  C   UNL     1       3.451  32.162  60.981  1.00  0.00     0.043 C 
ENDBRANCH  10  14
ENDBRANCH   3   7
BRANCH   1  24
HETATM   24  N   UNL     1       5.635  26.062  55.452  1.00  0.00    -0.188 N 
HETATM   25  H   UNL     1       4.689  25.811  55.708  1.00  0.00     0.184 HD
BRANCH  24  26
HETATM   26  C   UNL     1       6.453  24.988  55.071  1.00  0.00     0.049 A 
HETATM   27  C   UNL     1       6.869  23.985  55.953  1.00  0.00     0.033 A 
HETATM   28  C   UNL     1       7.717  22.949  55.540  1.00  0.00     0.039 A 
HETATM   29  C   UNL     1       8.192  22.910  54.232  1.00  0.00     0.078 A 
HETATM   30  C   UNL     1       7.802  23.916  53.347  1.00  0.00     0.039 A 
HETATM   31  C   UNL     1       6.945  24.943  53.762  1.00  0.00     0.033 A 
BRANCH  29  32
HETATM   32  O   UNL     1       9.026  21.972  53.698  1.00  0.00    -0.255 OA
BRANCH  32  33
HETATM   33  C   UNL     1       8.502  20.673  53.472  1.00  0.00     0.530 C 
HETATM   34  F   UNL     1       9.261  19.992  52.587  1.00  0.00    -0.144 F 
HETATM   35  F   UNL     1       8.422  19.974  54.625  1.00  0.00    -0.144 F 
HETATM   36  F   UNL     1       7.259  20.786  52.959  1.00  0.00    -0.144 F 
ENDBRANCH  32  33
ENDBRANCH  29  32
ENDBRANCH  24  26
ENDBRANCH   1  24
BRANCH   5  37
HETATM   37  N   UNL     1       8.629  28.794  57.747  1.00  0.00    -0.258 NA
HETATM   38  H   UNL     1       8.507  29.545  58.419  1.00  0.00     0.130 HD
BRANCH  37  39
HETATM   39  C   UNL     1       9.799  29.013  56.893  1.00  0.00     0.121 C 
BRANCH  39  40
HETATM   40  C   UNL     1      10.729  30.096  57.455  1.00  0.00     0.178 C 
BRANCH  40  41
HETATM   41  O   UNL     1      12.086  29.808  57.111  1.00  0.00    -0.400 OA
HETATM   42  H   UNL     1      12.314  28.967  57.544  1.00  0.00     0.209 HD
ENDBRANCH  40  41
ENDBRANCH  39  40
ENDBRANCH  37  39
ENDBRANCH   5  37
TORSDOF 10
ENDMDL
MODEL 4
REMARK VINA RESULT:      -9.4      4.870      8.383
REMARK  10 active torsions:
REMARK  status: ('A' for Active; 'I' for Inactive)
REMARK    1  A    between atoms: C_2  and  N_3 
REMARK    2  A    between atoms: N_3  and  C_4 
REMARK    3  A    between atoms: C_6  and  N_7 
REMARK    4  A    between atoms: N_10  and  C_12 
REMARK    5  A    between atoms: C_25  and  N_26 
REMARK    6  A    between atoms: N_26  and  C_27 
REMARK    7  A    between atoms: C_27  and  C_28 
REMARK    8  A    between atoms: C_28  and  O_29 
REMARK    9  A    between atoms: C_33  and  O_34 
REMARK   10  A    between atoms: O_34  and  C_35 
ROOT
HETATM    1  C   UNL     1       7.170  27.815  54.315  1.00  0.00     0.745 A 
HETATM    2  N   UNL     1       5.983  28.229  53.883  1.00  0.00     0.130 NA
HETATM    3  C   UNL     1       5.414  29.226  54.537  1.00  0.00     0.743 A 
HETATM    4  N   UNL     1       5.959  29.783  55.608  1.00  0.00    -0.030 NA
HETATM    5  C   UNL     1       7.133  29.303  55.994  1.00  0.00     0.238 A 
HETATM    6  N   UNL     1       7.766  28.312  55.386  1.00  0.00    -0.030 NA
ENDROOT
BRANCH   3   7
HETATM    7  N   UNL     1       4.178  29.693  54.081  1.00  0.00    -0.210 N 
HETATM    8  C   UNL     1       3.194  28.659  53.743  1.00  0.00     0.169 C 
HETATM    9  C   UNL     1       3.467  28.084  52.335  1.00  0.00     0.256 C 
HETATM   10  N   UNL     1       3.483  29.224  51.281  1.00  0.00    -0.059 N 
HETATM   11  H   UNL     1       2.583  29.708  51.387  1.00  0.00     0.281 HD
HETATM   12  C   UNL     1       4.551  30.272  51.692  1.00  0.00     0.256 C 
HETATM   13  C   UNL     1       4.258  30.800  53.118  1.00  0.00     0.169 C 
BRANCH  10  14
HETATM   14  C   UNL     1       3.522  28.756  49.812  1.00  0.00     0.129 C 
HETATM   15  C   UNL     1       4.194  29.863  48.953  1.00  0.00     0.043 C 
HETATM   16  C   UNL     1       4.288  29.425  47.481  1.00  0.00    -0.012 C 
HETATM   17  C   UNL     1       2.872  29.139  46.953  1.00  0.00     0.009 C 
HETATM   18  C   UNL     1       5.138  28.151  47.385  1.00  0.00     0.009 C 
HETATM   19  C   UNL     1       2.213  28.020  47.780  1.00  0.00    -0.012 C 
HETATM   20  C   UNL     1       2.112  28.464  49.256  1.00  0.00     0.043 C 
HETATM   21  C   UNL     1       3.076  26.753  47.679  1.00  0.00     0.009 C 
HETATM   22  C   UNL     1       4.491  27.032  48.213  1.00  0.00    -0.012 C 
HETATM   23  C   UNL     1       4.391  27.475  49.684  1.00  0.00     0.043 C 
ENDBRANCH  10  14
ENDBRANCH   3   7
BRANCH   1  24
HETATM   24  N   UNL     1       7.831  26.778  53.660  1.00  0.00    -0.188 N 
HETATM   25  H   UNL     1       8.172  27.093  52.761  1.00  0.00     0.184 HD
BRANCH  24  26
HETATM   26  C   UNL     1       7.710  25.387  53.797  1.00  0.00     0.049 A 
HETATM   27  C   UNL     1       7.400  24.756  55.005  1.00  0.00     0.033 A 
HETATM   28  C   UNL     1       7.325  23.360  55.107  1.00  0.00     0.039 A 
HETATM   29  C   UNL     1       7.589  22.561  53.998  1.00  0.00     0.078 A 
HETATM   30  C   UNL     1       7.921  23.177  52.790  1.00  0.00     0.039 A 
HETATM   31  C   UNL     1       7.983  24.573  52.692  1.00  0.00     0.033 A 
BRANCH  29  32
HETATM   32  O   UNL     1       7.563  21.197  53.954  1.00  0.00    -0.255 OA
BRANCH  32  33
HETATM   33  C   UNL     1       8.747  20.502  54.310  1.00  0.00     0.530 C 
HETATM   34  F   UNL     1       9.688  21.354  54.773  1.00  0.00    -0.144 F 
HETATM   35  F   UNL     1       8.495  19.561  55.245  1.00  0.00    -0.144 F 
HETATM   36  F   UNL     1       9.239  19.889  53.213  1.00  0.00    -0.144 F 
ENDBRANCH  32  33
ENDBRANCH  29  32
ENDBRANCH  24  26
ENDBRANCH   1  24
BRANCH   5  37
HETATM   37  N   UNL     1       7.693  29.916  57.100  1.00  0.00    -0.258 NA
HETATM   38  H   UNL     1       7.745  30.914  56.920  1.00  0.00     0.130 HD
BRANCH  37  39
HETATM   39  C   UNL     1       8.972  29.378  57.568  1.00  0.00     0.121 C 
BRANCH  39  40
HETATM   40  C   UNL     1      10.149  30.296  57.209  1.00  0.00     0.178 C 
BRANCH  40  41
HETATM   41  O   UNL     1      10.539  30.089  55.850  1.00  0.00    -0.400 OA
HETATM   42  H   UNL     1      10.399  29.145  55.657  1.00  0.00     0.209 HD
ENDBRANCH  40  41
ENDBRANCH  39  40
ENDBRANCH  37  39
ENDBRANCH   5  37
TORSDOF 10
ENDMDL
MODEL 5
REMARK VINA RESULT:      -9.4      7.533     10.343
REMARK  10 active torsions:
REMARK  status: ('A' for Active; 'I' for Inactive)
REMARK    1  A    between atoms: C_2  and  N_3 
REMARK    2  A    between atoms: N_3  and  C_4 
REMARK    3  A    between atoms: C_6  and  N_7 
REMARK    4  A    between atoms: N_10  and  C_12 
REMARK    5  A    between atoms: C_25  and  N_26 
REMARK    6  A    between atoms: N_26  and  C_27 
REMARK    7  A    between atoms: C_27  and  C_28 
REMARK    8  A    between atoms: C_28  and  O_29 
REMARK    9  A    between atoms: C_33  and  O_34 
REMARK   10  A    between atoms: O_34  and  C_35 
ROOT
HETATM    1  C   UNL     1       5.170  26.146  52.022  1.00  0.00     0.745 A 
HETATM    2  N   UNL     1       4.863  25.878  50.758  1.00  0.00     0.130 NA
HETATM    3  C   UNL     1       4.930  26.875  49.893  1.00  0.00     0.743 A 
HETATM    4  N   UNL     1       5.247  28.111  50.249  1.00  0.00    -0.030 NA
HETATM    5  C   UNL     1       5.519  28.307  51.532  1.00  0.00     0.238 A 
HETATM    6  N   UNL     1       5.478  27.358  52.454  1.00  0.00    -0.030 NA
ENDROOT
BRANCH   3   7
HETATM    7  N   UNL     1       4.637  26.606  48.553  1.00  0.00    -0.210 N 
HETATM    8  C   UNL     1       5.126  27.594  47.585  1.00  0.00     0.169 C 
HETATM    9  C   UNL     1       4.179  28.813  47.521  1.00  0.00     0.256 C 
HETATM   10  N   UNL     1       2.733  28.353  47.188  1.00  0.00    -0.059 N 
HETATM   11  H   UNL     1       2.811  27.815  46.316  1.00  0.00     0.281 HD
HETATM   12  C   UNL     1       2.276  27.323  48.254  1.00  0.00     0.256 C 
HETATM   13  C   UNL     1       3.268  26.135  48.307  1.00  0.00     0.169 C 
BRANCH  10  14
HETATM   14  C   UNL     1       1.741  29.492  46.875  1.00  0.00     0.129 C 
HETATM   15  C   UNL     1       1.282  30.136  48.212  1.00  0.00     0.043 C 
HETATM   16  C   UNL     1       0.316  31.304  47.948  1.00  0.00    -0.012 C 
HETATM   17  C   UNL     1      -0.906  30.777  47.174  1.00  0.00     0.009 C 
HETATM   18  C   UNL     1       1.030  32.373  47.111  1.00  0.00     0.009 C 
HETATM   19  C   UNL     1      -0.461  30.166  45.834  1.00  0.00    -0.012 C 
HETATM   20  C   UNL     1       0.504  28.989  46.100  1.00  0.00     0.043 C 
HETATM   21  C   UNL     1       0.256  31.246  45.008  1.00  0.00     0.009 C 
HETATM   22  C   UNL     1       1.482  31.770  45.775  1.00  0.00    -0.012 C 
HETATM   23  C   UNL     1       2.443  30.597  46.041  1.00  0.00     0.043 C 
ENDBRANCH  10  14
ENDBRANCH   3   7
BRANCH   1  24
HETATM   24  N   UNL     1       5.133  25.136  52.981  1.00  0.00    -0.188 N 
HETATM   25  H   UNL     1       4.271  25.186  53.509  1.00  0.00     0.184 HD
BRANCH  24  26
HETATM   26  C   UNL     1       6.172  24.428  53.604  1.00  0.00     0.049 A 
HETATM   27  C   UNL     1       7.045  23.579  52.917  1.00  0.00     0.033 A 
HETATM   28  C   UNL     1       8.048  22.861  53.583  1.00  0.00     0.039 A 
HETATM   29  C   UNL     1       8.179  22.958  54.966  1.00  0.00     0.078 A 
HETATM   30  C   UNL     1       7.300  23.785  55.667  1.00  0.00     0.039 A 
HETATM   31  C   UNL     1       6.308  24.509  54.994  1.00  0.00     0.033 A 
BRANCH  29  32
HETATM   32  O   UNL     1       9.097  22.314  55.742  1.00  0.00    -0.255 OA
BRANCH  32  33
HETATM   33  C   UNL     1       8.711  21.089  56.344  1.00  0.00     0.530 C 
HETATM   34  F   UNL     1       7.636  20.561  55.719  1.00  0.00    -0.144 F 
HETATM   35  F   UNL     1       9.724  20.197  56.323  1.00  0.00    -0.144 F 
HETATM   36  F   UNL     1       8.376  21.321  57.630  1.00  0.00    -0.144 F 
ENDBRANCH  32  33
ENDBRANCH  29  32
ENDBRANCH  24  26
ENDBRANCH   1  24
BRANCH   5  37
HETATM   37  N   UNL     1       5.869  29.600  51.875  1.00  0.00    -0.258 NA
HETATM   38  H   UNL     1       6.036  29.631  52.876  1.00  0.00     0.130 HD
BRANCH  37  39
HETATM   39  C   UNL     1       4.956  30.661  51.442  1.00  0.00     0.121 C 
BRANCH  39  40
HETATM   40  C   UNL     1       5.629  31.640  50.471  1.00  0.00     0.178 C 
BRANCH  40  41
HETATM   41  O   UNL     1       6.557  30.946  49.635  1.00  0.00    -0.400 OA
HETATM   42  H   UNL     1       7.296  30.666  50.204  1.00  0.00     0.209 HD
ENDBRANCH  40  41
ENDBRANCH  39  40
ENDBRANCH  37  39
ENDBRANCH   5  37
TORSDOF 10
ENDMDL
MODEL 6
REMARK VINA RESULT:      -9.3      1.927      2.689
REMARK  10 active torsions:
REMARK  status: ('A' for Active; 'I' for Inactive)
REMARK    1  A    between atoms: C_2  and  N_3 
REMARK    2  A    between atoms: N_3  and  C_4 
REMARK    3  A    between atoms: C_6  and  N_7 
REMARK    4  A    between atoms: N_10  and  C_12 
REMARK    5  A    between atoms: C_25  and  N_26 
REMARK    6  A    between atoms: N_26  and  C_27 
REMARK    7  A    between atoms: C_27  and  C_28 
REMARK    8  A    between atoms: C_28  and  O_29 
REMARK    9  A    between atoms: C_33  and  O_34 
REMARK   10  A    between atoms: O_34  and  C_35 
ROOT
HETATM    1  C   UNL     1       5.539  29.104  57.478  1.00  0.00     0.745 A 
HETATM    2  N   UNL     1       4.582  29.973  57.785  1.00  0.00     0.130 NA
HETATM    3  C   UNL     1       4.958  31.144  58.267  1.00  0.00     0.743 A 
HETATM    4  N   UNL     1       6.227  31.453  58.487  1.00  0.00    -0.030 NA
HETATM    5  C   UNL     1       7.125  30.527  58.178  1.00  0.00     0.238 A 
HETATM    6  N   UNL     1       6.824  29.335  57.686  1.00  0.00    -0.030 NA
ENDROOT
BRANCH   3   7
HETATM    7  N   UNL     1       3.967  32.081  58.570  1.00  0.00    -0.210 N 
HETATM    8  C   UNL     1       4.406  33.481  58.608  1.00  0.00     0.169 C 
HETATM    9  C   UNL     1       5.088  33.804  59.956  1.00  0.00     0.256 C 
HETATM   10  N   UNL     1       4.133  33.473  61.135  1.00  0.00    -0.059 N 
HETATM   11  H   UNL     1       3.270  33.999  60.945  1.00  0.00     0.281 HD
HETATM   12  C   UNL     1       3.719  31.981  61.042  1.00  0.00     0.256 C 
HETATM   13  C   UNL     1       3.069  31.693  59.666  1.00  0.00     0.169 C 
BRANCH  10  14
HETATM   14  C   UNL     1       4.609  33.960  62.519  1.00  0.00     0.129 C 
HETATM   15  C   UNL     1       3.383  34.492  63.311  1.00  0.00     0.043 C 
HETATM   16  C   UNL     1       3.804  34.956  64.716  1.00  0.00    -0.012 C 
HETATM   17  C   UNL     1       4.861  36.066  64.580  1.00  0.00     0.009 C 
HETATM   18  C   UNL     1       4.403  33.769  65.483  1.00  0.00     0.009 C 
HETATM   19  C   UNL     1       6.092  35.536  63.824  1.00  0.00    -0.012 C 
HETATM   20  C   UNL     1       5.670  35.076  62.411  1.00  0.00     0.043 C 
HETATM   21  C   UNL     1       6.679  34.346  64.601  1.00  0.00     0.009 C 
HETATM   22  C   UNL     1       5.627  33.231  64.733  1.00  0.00    -0.012 C 
HETATM   23  C   UNL     1       5.206  32.773  63.324  1.00  0.00     0.043 C 
ENDBRANCH  10  14
ENDBRANCH   3   7
BRANCH   1  24
HETATM   24  N   UNL     1       5.209  27.857  56.951  1.00  0.00    -0.188 N 
HETATM   25  H   UNL     1       4.456  27.440  57.483  1.00  0.00     0.184 HD
BRANCH  24  26
HETATM   26  C   UNL     1       5.969  26.956  56.189  1.00  0.00     0.049 A 
HETATM   27  C   UNL     1       6.705  27.332  55.061  1.00  0.00     0.033 A 
HETATM   28  C   UNL     1       7.421  26.394  54.306  1.00  0.00     0.039 A 
HETATM   29  C   UNL     1       7.393  25.045  54.652  1.00  0.00     0.078 A 
HETATM   30  C   UNL     1       6.645  24.654  55.763  1.00  0.00     0.039 A 
HETATM   31  C   UNL     1       5.940  25.597  56.521  1.00  0.00     0.033 A 
BRANCH  29  32
HETATM   32  O   UNL     1       8.031  24.027  54.006  1.00  0.00    -0.255 OA
BRANCH  32  33
HETATM   33  C   UNL     1       7.477  23.570  52.783  1.00  0.00     0.530 C 
HETATM   34  F   UNL     1       8.018  24.224  51.732  1.00  0.00    -0.144 F 
HETATM   35  F   UNL     1       7.669  22.242  52.630  1.00  0.00    -0.144 F 
HETATM   36  F   UNL     1       6.149  23.809  52.788  1.00  0.00    -0.144 F 
ENDBRANCH  32  33
ENDBRANCH  29  32
ENDBRANCH  24  26
ENDBRANCH   1  24
BRANCH   5  37
HETATM   37  N   UNL     1       8.444  30.881  58.395  1.00  0.00    -0.258 NA
HETATM   38  H   UNL     1       9.006  30.496  57.642  1.00  0.00     0.130 HD
BRANCH  37  39
HETATM   39  C   UNL     1       9.000  30.556  59.710  1.00  0.00     0.121 C 
BRANCH  39  40
HETATM   40  C   UNL     1       9.411  31.813  60.489  1.00  0.00     0.178 C 
BRANCH  40  41
HETATM   41  O   UNL     1       8.770  32.965  59.938  1.00  0.00    -0.400 OA
HETATM   42  H   UNL     1       9.476  33.576  59.662  1.00  0.00     0.209 HD
ENDBRANCH  40  41
ENDBRANCH  39  40
ENDBRANCH  37  39
ENDBRANCH   5  37
TORSDOF 10
ENDMDL
MODEL 7
REMARK VINA RESULT:      -9.2      3.704      6.668
REMARK  10 active torsions:
REMARK  status: ('A' for Active; 'I' for Inactive)
REMARK    1  A    between atoms: C_2  and  N_3 
REMARK    2  A    between atoms: N_3  and  C_4 
REMARK    3  A    between atoms: C_6  and  N_7 
REMARK    4  A    between atoms: N_10  and  C_12 
REMARK    5  A    between atoms: C_25  and  N_26 
REMARK    6  A    between atoms: N_26  and  C_27 
REMARK    7  A    between atoms: C_27  and  C_28 
REMARK    8  A    between atoms: C_28  and  O_29 
REMARK    9  A    between atoms: C_33  and  O_34 
REMARK   10  A    between atoms: O_34  and  C_35 
ROOT
HETATM    1  C   UNL     1       7.608  28.171  57.546  1.00  0.00     0.745 A 
HETATM    2  N   UNL     1       6.338  28.239  57.160  1.00  0.00     0.130 NA
HETATM    3  C   UNL     1       5.723  29.400  57.301  1.00  0.00     0.743 A 
HETATM    4  N   UNL     1       6.308  30.460  57.840  1.00  0.00    -0.030 NA
HETATM    5  C   UNL     1       7.569  30.310  58.222  1.00  0.00     0.238 A 
HETATM    6  N   UNL     1       8.251  29.182  58.108  1.00  0.00    -0.030 NA
ENDROOT
BRANCH   3   7
HETATM    7  N   UNL     1       4.396  29.498  56.875  1.00  0.00    -0.210 N 
HETATM    8  C   UNL     1       3.877  28.339  56.140  1.00  0.00     0.169 C 
HETATM    9  C   UNL     1       4.327  28.383  54.662  1.00  0.00     0.256 C 
HETATM   10  N   UNL     1       3.888  29.720  54.005  1.00  0.00    -0.059 N 
HETATM   11  H   UNL     1       2.873  29.778  54.154  1.00  0.00     0.281 HD
HETATM   12  C   UNL     1       4.479  30.899  54.823  1.00  0.00     0.256 C 
HETATM   13  C   UNL     1       4.029  30.800  56.301  1.00  0.00     0.169 C 
BRANCH  10  14
HETATM   14  C   UNL     1       4.079  29.791  52.477  1.00  0.00     0.129 C 
HETATM   15  C   UNL     1       5.310  28.927  52.086  1.00  0.00     0.043 C 
HETATM   16  C   UNL     1       5.519  28.939  50.562  1.00  0.00    -0.012 C 
HETATM   17  C   UNL     1       5.729  30.391  50.097  1.00  0.00     0.009 C 
HETATM   18  C   UNL     1       4.277  28.356  49.875  1.00  0.00     0.009 C 
HETATM   19  C   UNL     1       4.500  31.245  50.453  1.00  0.00    -0.012 C 
HETATM   20  C   UNL     1       4.294  31.238  51.984  1.00  0.00     0.043 C 
HETATM   21  C   UNL     1       3.263  30.648  49.763  1.00  0.00     0.009 C 
HETATM   22  C   UNL     1       3.045  29.199  50.230  1.00  0.00    -0.012 C 
HETATM   23  C   UNL     1       2.841  29.192  51.756  1.00  0.00     0.043 C 
ENDBRANCH  10  14
ENDBRANCH   3   7
BRANCH   1  24
HETATM   24  N   UNL     1       8.318  26.980  57.411  1.00  0.00    -0.188 N 
HETATM   25  H   UNL     1       9.287  27.120  57.670  1.00  0.00     0.184 HD
BRANCH  24  26
HETATM   26  C   UNL     1       8.072  25.855  56.610  1.00  0.00     0.049 A 
HETATM   27  C   UNL     1       7.290  25.891  55.452  1.00  0.00     0.033 A 
HETATM   28  C   UNL     1       7.038  24.735  54.700  1.00  0.00     0.039 A 
HETATM   29  C   UNL     1       7.546  23.506  55.111  1.00  0.00     0.078 A 
HETATM   30  C   UNL     1       8.311  23.452  56.277  1.00  0.00     0.039 A 
HETATM   31  C   UNL     1       8.569  24.612  57.019  1.00  0.00     0.033 A 
BRANCH  29  32
HETATM   32  O   UNL     1       7.374  22.305  54.486  1.00  0.00    -0.255 OA
BRANCH  32  33
HETATM   33  C   UNL     1       8.138  22.053  53.319  1.00  0.00     0.530 C 
HETATM   34  F   UNL     1       7.838  20.843  52.796  1.00  0.00    -0.144 F 
HETATM   35  F   UNL     1       7.930  23.006  52.386  1.00  0.00    -0.144 F 
HETATM   36  F   UNL     1       9.447  22.056  53.644  1.00  0.00    -0.144 F 
ENDBRANCH  32  33
ENDBRANCH  29  32
ENDBRANCH  24  26
ENDBRANCH   1  24
BRANCH   5  37
HETATM   37  N   UNL     1       8.165  31.436  58.760  1.00  0.00    -0.258 NA
HETATM   38  H   UNL     1       8.221  32.145  58.035  1.00  0.00     0.130 HD
BRANCH  37  39
HETATM   39  C   UNL     1       9.452  31.238  59.429  1.00  0.00     0.121 C 
BRANCH  39  40
HETATM   40  C   UNL     1       9.323  31.294  60.957  1.00  0.00     0.178 C 
BRANCH  40  41
HETATM   41  O   UNL     1       8.960  30.010  61.469  1.00  0.00    -0.400 OA
HETATM   42  H   UNL     1       8.487  30.163  62.305  1.00  0.00     0.209 HD
ENDBRANCH  40  41
ENDBRANCH  39  40
ENDBRANCH  37  39
ENDBRANCH   5  37
TORSDOF 10
ENDMDL
MODEL 8
REMARK VINA RESULT:      -9.1      5.777     11.025
REMARK  10 active torsions:
REMARK  status: ('A' for Active; 'I' for Inactive)
REMARK    1  A    between atoms: C_2  and  N_3 
REMARK    2  A    between atoms: N_3  and  C_4 
REMARK    3  A    between atoms: C_6  and  N_7 
REMARK    4  A    between atoms: N_10  and  C_12 
REMARK    5  A    between atoms: C_25  and  N_26 
REMARK    6  A    between atoms: N_26  and  C_27 
REMARK    7  A    between atoms: C_27  and  C_28 
REMARK    8  A    between atoms: C_28  and  O_29 
REMARK    9  A    between atoms: C_33  and  O_34 
REMARK   10  A    between atoms: O_34  and  C_35 
ROOT
HETATM    1  C   UNL     1       6.078  31.752  59.036  1.00  0.00     0.745 A 
HETATM    2  N   UNL     1       7.106  30.963  58.743  1.00  0.00     0.130 NA
HETATM    3  C   UNL     1       6.887  29.970  57.898  1.00  0.00     0.743 A 
HETATM    4  N   UNL     1       5.694  29.721  57.380  1.00  0.00    -0.030 NA
HETATM    5  C   UNL     1       4.711  30.538  57.735  1.00  0.00     0.238 A 
HETATM    6  N   UNL     1       4.856  31.555  58.571  1.00  0.00    -0.030 NA
ENDROOT
BRANCH   3   7
HETATM    7  N   UNL     1       7.963  29.146  57.557  1.00  0.00    -0.210 N 
HETATM    8  C   UNL     1       8.551  29.383  56.234  1.00  0.00     0.169 C 
HETATM    9  C   UNL     1       7.711  28.700  55.132  1.00  0.00     0.256 C 
HETATM   10  N   UNL     1       7.566  27.183  55.428  1.00  0.00    -0.059 N 
HETATM   11  H   UNL     1       8.525  26.829  55.527  1.00  0.00     0.281 HD
HETATM   12  C   UNL     1       6.928  27.005  56.831  1.00  0.00     0.256 C 
HETATM   13  C   UNL     1       7.783  27.728  57.901  1.00  0.00     0.169 C 
BRANCH  10  14
HETATM   14  C   UNL     1       6.941  26.351  54.289  1.00  0.00     0.129 C 
HETATM   15  C   UNL     1       8.002  26.159  53.170  1.00  0.00     0.043 C 
HETATM   16  C   UNL     1       7.435  25.301  52.026  1.00  0.00    -0.012 C 
HETATM   17  C   UNL     1       6.188  25.995  51.452  1.00  0.00     0.009 C 
HETATM   18  C   UNL     1       7.048  23.921  52.572  1.00  0.00     0.009 C 
HETATM   19  C   UNL     1       5.120  26.159  52.548  1.00  0.00    -0.012 C 
HETATM   20  C   UNL     1       5.688  27.026  53.694  1.00  0.00     0.043 C 
HETATM   21  C   UNL     1       4.745  24.770  53.089  1.00  0.00     0.009 C 
HETATM   22  C   UNL     1       5.988  24.075  53.670  1.00  0.00    -0.012 C 
HETATM   23  C   UNL     1       6.554  24.940  54.811  1.00  0.00     0.043 C 
ENDBRANCH  10  14
ENDBRANCH   3   7
BRANCH   1  24
HETATM   24  N   UNL     1       6.246  32.825  59.908  1.00  0.00    -0.188 N 
HETATM   25  H   UNL     1       7.102  33.321  59.692  1.00  0.00     0.184 HD
BRANCH  24  26
HETATM   26  C   UNL     1       5.744  33.041  61.200  1.00  0.00     0.049 A 
HETATM   27  C   UNL     1       5.268  34.278  61.645  1.00  0.00     0.033 A 
HETATM   28  C   UNL     1       4.809  34.460  62.956  1.00  0.00     0.039 A 
HETATM   29  C   UNL     1       4.842  33.405  63.864  1.00  0.00     0.078 A 
HETATM   30  C   UNL     1       5.335  32.170  63.439  1.00  0.00     0.039 A 
HETATM   31  C   UNL     1       5.782  31.991  62.125  1.00  0.00     0.033 A 
BRANCH  29  32
HETATM   32  O   UNL     1       4.439  33.441  65.167  1.00  0.00    -0.255 OA
BRANCH  32  33
HETATM   33  C   UNL     1       5.302  34.055  66.109  1.00  0.00     0.530 C 
HETATM   34  F   UNL     1       6.574  33.631  65.950  1.00  0.00    -0.144 F 
HETATM   35  F   UNL     1       5.262  35.401  65.999  1.00  0.00    -0.144 F 
HETATM   36  F   UNL     1       4.901  33.720  67.353  1.00  0.00    -0.144 F 
ENDBRANCH  32  33
ENDBRANCH  29  32
ENDBRANCH  24  26
ENDBRANCH   1  24
BRANCH   5  37
HETATM   37  N   UNL     1       3.480  30.272  57.164  1.00  0.00    -0.258 NA
HETATM   38  H   UNL     1       3.467  29.300  56.873  1.00  0.00     0.130 HD
BRANCH  37  39
HETATM   39  C   UNL     1       3.052  31.169  56.088  1.00  0.00     0.121 C 
BRANCH  39  40
HETATM   40  C   UNL     1       3.402  30.613  54.701  1.00  0.00     0.178 C 
BRANCH  40  41
HETATM   41  O   UNL     1       4.809  30.706  54.475  1.00  0.00    -0.400 OA
HETATM   42  H   UNL     1       5.130  31.463  54.994  1.00  0.00     0.209 HD
ENDBRANCH  40  41
ENDBRANCH  39  40
ENDBRANCH  37  39
ENDBRANCH   5  37
TORSDOF 10
ENDMDL
MODEL 9
REMARK VINA RESULT:      -8.9      5.195      7.714
REMARK  10 active torsions:
REMARK  status: ('A' for Active; 'I' for Inactive)
REMARK    1  A    between atoms: C_2  and  N_3 
REMARK    2  A    between atoms: N_3  and  C_4 
REMARK    3  A    between atoms: C_6  and  N_7 
REMARK    4  A    between atoms: N_10  and  C_12 
REMARK    5  A    between atoms: C_25  and  N_26 
REMARK    6  A    between atoms: N_26  and  C_27 
REMARK    7  A    between atoms: C_27  and  C_28 
REMARK    8  A    between atoms: C_28  and  O_29 
REMARK    9  A    between atoms: C_33  and  O_34 
REMARK   10  A    between atoms: O_34  and  C_35 
ROOT
HETATM    1  C   UNL     1       7.791  29.885  58.595  1.00  0.00     0.745 A 
HETATM    2  N   UNL     1       6.745  30.558  58.130  1.00  0.00     0.130 NA
HETATM    3  C   UNL     1       5.955  29.935  57.272  1.00  0.00     0.743 A 
HETATM    4  N   UNL     1       6.194  28.705  56.843  1.00  0.00    -0.030 NA
HETATM    5  C   UNL     1       7.270  28.104  57.335  1.00  0.00     0.238 A 
HETATM    6  N   UNL     1       8.102  28.661  58.200  1.00  0.00    -0.030 NA
ENDROOT
BRANCH   3   7
HETATM    7  N   UNL     1       4.834  30.617  56.793  1.00  0.00    -0.210 N 
HETATM    8  C   UNL     1       5.061  32.010  56.392  1.00  0.00     0.169 C 
HETATM    9  C   UNL     1       5.067  32.940  57.626  1.00  0.00     0.256 C 
HETATM   10  N   UNL     1       3.745  32.784  58.424  1.00  0.00    -0.059 N 
HETATM   11  H   UNL     1       2.993  32.963  57.747  1.00  0.00     0.281 HD
HETATM   12  C   UNL     1       3.574  31.295  58.826  1.00  0.00     0.256 C 
HETATM   13  C   UNL     1       3.604  30.396  57.566  1.00  0.00     0.169 C 
BRANCH  10  14
HETATM   14  C   UNL     1       3.534  33.818  59.549  1.00  0.00     0.129 C 
HETATM   15  C   UNL     1       4.273  35.130  59.167  1.00  0.00     0.043 C 
HETATM   16  C   UNL     1       4.060  36.207  60.246  1.00  0.00    -0.012 C 
HETATM   17  C   UNL     1       4.590  35.679  61.591  1.00  0.00     0.009 C 
HETATM   18  C   UNL     1       2.561  36.510  60.369  1.00  0.00     0.009 C 
HETATM   19  C   UNL     1       3.839  34.396  61.990  1.00  0.00    -0.012 C 
HETATM   20  C   UNL     1       4.058  33.314  60.910  1.00  0.00     0.043 C 
HETATM   21  C   UNL     1       2.339  34.714  62.106  1.00  0.00     0.009 C 
HETATM   22  C   UNL     1       1.804  35.235  60.761  1.00  0.00    -0.012 C 
HETATM   23  C   UNL     1       2.024  34.156  59.685  1.00  0.00     0.043 C 
ENDBRANCH  10  14
ENDBRANCH   3   7
BRANCH   1  24
HETATM   24  N   UNL     1       8.654  30.479  59.513  1.00  0.00    -0.188 N 
HETATM   25  H   UNL     1       9.560  30.030  59.483  1.00  0.00     0.184 HD
BRANCH  24  26
HETATM   26  C   UNL     1       8.385  31.199  60.687  1.00  0.00     0.049 A 
HETATM   27  C   UNL     1       7.841  32.486  60.694  1.00  0.00     0.033 A 
HETATM   28  C   UNL     1       7.622  33.186  61.889  1.00  0.00     0.039 A 
HETATM   29  C   UNL     1       7.972  32.615  63.110  1.00  0.00     0.078 A 
HETATM   30  C   UNL     1       8.537  31.339  63.116  1.00  0.00     0.039 A 
HETATM   31  C   UNL     1       8.743  30.641  61.920  1.00  0.00     0.033 A 
BRANCH  29  32
HETATM   32  O   UNL     1       7.826  33.181  64.342  1.00  0.00    -0.255 OA
BRANCH  32  33
HETATM   33  C   UNL     1       6.519  33.554  64.747  1.00  0.00     0.530 C 
HETATM   34  F   UNL     1       6.211  34.793  64.304  1.00  0.00    -0.144 F 
HETATM   35  F   UNL     1       5.600  32.675  64.292  1.00  0.00    -0.144 F 
HETATM   36  F   UNL     1       6.465  33.565  66.095  1.00  0.00    -0.144 F 
ENDBRANCH  32  33
ENDBRANCH  29  32
ENDBRANCH  24  26
ENDBRANCH   1  24
BRANCH   5  37
HETATM   37  N   UNL     1       7.486  26.812  56.889  1.00  0.00    -0.258 NA
HETATM   38  H   UNL     1       8.390  26.781  56.428  1.00  0.00     0.130 HD
BRANCH  37  39
HETATM   39  C   UNL     1       6.431  26.222  56.062  1.00  0.00     0.121 C 
BRANCH  39  40
HETATM   40  C   UNL     1       5.413  25.436  56.899  1.00  0.00     0.178 C 
BRANCH  40  41
HETATM   41  O   UNL     1       4.272  26.250  57.178  1.00  0.00    -0.400 OA
HETATM   42  H   UNL     1       4.156  26.845  56.417  1.00  0.00     0.209 HD
ENDBRANCH  40  41
ENDBRANCH  39  40
ENDBRANCH  37  39
ENDBRANCH   5  37
TORSDOF 10
ENDMDL
MODEL 10
REMARK VINA RESULT:      -8.9      7.552     10.368
REMARK  10 active torsions:
REMARK  status: ('A' for Active; 'I' for Inactive)
REMARK    1  A    between atoms: C_2  and  N_3 
REMARK    2  A    between atoms: N_3  and  C_4 
REMARK    3  A    between atoms: C_6  and  N_7 
REMARK    4  A    between atoms: N_10  and  C_12 
REMARK    5  A    between atoms: C_25  and  N_26 
REMARK    6  A    between atoms: N_26  and  C_27 
REMARK    7  A    between atoms: C_27  and  C_28 
REMARK    8  A    between atoms: C_28  and  O_29 
REMARK    9  A    between atoms: C_33  and  O_34 
REMARK   10  A    between atoms: O_34  and  C_35 
ROOT
HETATM    1  C   UNL     1       5.085  26.095  51.962  1.00  0.00     0.745 A 
HETATM    2  N   UNL     1       4.779  25.855  50.692  1.00  0.00     0.130 NA
HETATM    3  C   UNL     1       4.897  26.859  49.840  1.00  0.00     0.743 A 
HETATM    4  N   UNL     1       5.262  28.076  50.214  1.00  0.00    -0.030 NA
HETATM    5  C   UNL     1       5.530  28.245  51.502  1.00  0.00     0.238 A 
HETATM    6  N   UNL     1       5.440  27.287  52.412  1.00  0.00    -0.030 NA
ENDROOT
BRANCH   3   7
HETATM    7  N   UNL     1       4.606  26.619  48.495  1.00  0.00    -0.210 N 
HETATM    8  C   UNL     1       5.115  27.616  47.546  1.00  0.00     0.169 C 
HETATM    9  C   UNL     1       4.187  28.850  47.501  1.00  0.00     0.256 C 
HETATM   10  N   UNL     1       2.736  28.420  47.153  1.00  0.00    -0.059 N 
HETATM   11  H   UNL     1       2.808  27.896  46.272  1.00  0.00     0.281 HD
HETATM   12  C   UNL     1       2.257  27.378  48.198  1.00  0.00     0.256 C 
HETATM   13  C   UNL     1       3.230  26.174  48.234  1.00  0.00     0.169 C 
BRANCH  10  14
HETATM   14  C   UNL     1       1.763  29.580  46.857  1.00  0.00     0.129 C 
HETATM   15  C   UNL     1       0.489  29.003  46.179  1.00  0.00     0.043 C 
HETATM   16  C   UNL     1      -0.529  30.121  45.897  1.00  0.00    -0.012 C 
HETATM   17  C   UNL     1       0.122  31.171  44.980  1.00  0.00     0.009 C 
HETATM   18  C   UNL     1      -0.938  30.780  47.221  1.00  0.00     0.009 C 
HETATM   19  C   UNL     1       1.367  31.769  45.659  1.00  0.00    -0.012 C 
HETATM   20  C   UNL     1       2.392  30.647  45.936  1.00  0.00     0.043 C 
HETATM   21  C   UNL     1       0.944  32.422  46.985  1.00  0.00     0.009 C 
HETATM   22  C   UNL     1       0.299  31.374  47.908  1.00  0.00    -0.012 C 
HETATM   23  C   UNL     1       1.320  30.256  48.183  1.00  0.00     0.043 C 
ENDBRANCH  10  14
ENDBRANCH   3   7
BRANCH   1  24
HETATM   24  N   UNL     1       4.997  25.075  52.908  1.00  0.00    -0.188 N 
HETATM   25  H   UNL     1       4.095  25.101  53.367  1.00  0.00     0.184 HD
BRANCH  24  26
HETATM   26  C   UNL     1       5.999  24.386  53.606  1.00  0.00     0.049 A 
HETATM   27  C   UNL     1       6.232  24.545  54.976  1.00  0.00     0.033 A 
HETATM   28  C   UNL     1       7.270  23.865  55.628  1.00  0.00     0.039 A 
HETATM   29  C   UNL     1       8.119  23.026  54.911  1.00  0.00     0.078 A 
HETATM   30  C   UNL     1       7.911  22.876  53.539  1.00  0.00     0.039 A 
HETATM   31  C   UNL     1       6.866  23.549  52.894  1.00  0.00     0.033 A 
BRANCH  29  32
HETATM   32  O   UNL     1       9.169  22.313  55.411  1.00  0.00    -0.255 OA
BRANCH  32  33
HETATM   33  C   UNL     1       8.879  21.124  56.127  1.00  0.00     0.530 C 
HETATM   34  F   UNL     1       9.949  20.299  56.148  1.00  0.00    -0.144 F 
HETATM   35  F   UNL     1       8.501  21.399  57.393  1.00  0.00    -0.144 F 
HETATM   36  F   UNL     1       7.866  20.480  55.512  1.00  0.00    -0.144 F 
ENDBRANCH  32  33
ENDBRANCH  29  32
ENDBRANCH  24  26
ENDBRANCH   1  24
BRANCH   5  37
HETATM   37  N   UNL     1       5.931  29.518  51.864  1.00  0.00    -0.258 NA
HETATM   38  H   UNL     1       6.248  29.490  52.828  1.00  0.00     0.130 HD
BRANCH  37  39
HETATM   39  C   UNL     1       4.965  30.596  51.640  1.00  0.00     0.121 C 
BRANCH  39  40
HETATM   40  C   UNL     1       3.860  30.610  52.704  1.00  0.00     0.178 C 
BRANCH  40  41
HETATM   41  O   UNL     1       2.666  30.023  52.182  1.00  0.00    -0.400 OA
HETATM   42  H   UNL     1       2.816  29.062  52.148  1.00  0.00     0.209 HD
ENDBRANCH  40  41
ENDBRANCH  39  40
ENDBRANCH  37  39
ENDBRANCH   5  37
TORSDOF 10
ENDMDL
