MODEL 1
REMARK VINA RESULT:      -9.4      0.000      0.000
REMARK  6 active torsions:
REMARK  status: ('A' for Active; 'I' for Inactive)
REMARK    1  A    between atoms: O_2  and  C_3 
REMARK    2  A    between atoms: C_7  and  O_8 
REMARK    3  A    between atoms: O_8  and  C_9 
REMARK    4  A    between atoms: C_9  and  C_10 
REMARK    5  A    between atoms: C_13  and  O_14 
REMARK    6  A    between atoms: C_17  and  C_23 
ROOT
HETATM    1  C   UNL     1       6.648  27.306  56.933  1.00  0.00     0.132 A 
HETATM    2  N   UNL     1       6.213  26.851  55.804  1.00  0.00    -0.229 NA
HETATM    3  C   UNL     1       6.643  25.574  55.379  1.00  0.00     0.108 A 
HETATM    4  C   UNL     1       6.159  25.031  54.174  1.00  0.00     0.098 A 
HETATM    5  C   UNL     1       6.608  23.772  53.742  1.00  0.00     0.051 A 
HETATM    6  C   UNL     1       7.526  23.026  54.501  1.00  0.00    -0.019 A 
HETATM    7  C   UNL     1       7.987  23.558  55.707  1.00  0.00     0.032 A 
HETATM    8  C   UNL     1       7.543  24.815  56.133  1.00  0.00     0.064 A 
HETATM    9  C   UNL     1       8.010  25.376  57.412  1.00  0.00     0.259 A 
HETATM   10  O   UNL     1       8.780  24.770  58.147  1.00  0.00    -0.267 OA
HETATM   11  N   UNL     1       7.523  26.615  57.729  1.00  0.00    -0.309 N 
HETATM   12  H   UNL     1       7.788  26.990  58.631  1.00  0.00     0.170 HD
ENDROOT
BRANCH   1  13
HETATM   13  C   UNL     1       6.243  28.678  57.436  1.00  0.00     0.254 C 
BRANCH  13  14
HETATM   14  O   UNL     1       6.892  29.645  56.610  1.00  0.00    -0.344 OA
BRANCH  14  15
HETATM   15  C   UNL     1       8.138  30.012  57.043  1.00  0.00     0.071 A 
HETATM   16  C   UNL     1       9.205  29.558  56.268  1.00  0.00     0.037 A 
HETATM   17  C   UNL     1      10.512  29.895  56.612  1.00  0.00     0.005 A 
HETATM   18  C   UNL     1      10.747  30.709  57.720  1.00  0.00     0.037 A 
HETATM   19  C   UNL     1       9.682  31.196  58.483  1.00  0.00     0.070 A 
HETATM   20  C   UNL     1       8.373  30.843  58.143  1.00  0.00     0.073 A 
BRANCH  19  21
HETATM   21  O   UNL     1      10.052  32.004  59.524  1.00  0.00    -0.356 OA
HETATM   22  C   UNL     1       9.034  32.374  60.446  1.00  0.00     0.210 C 
ENDBRANCH  19  21
ENDBRANCH  14  15
ENDBRANCH  13  14
ENDBRANCH   1  13
BRANCH   4  23
HETATM   23  O   UNL     1       5.271  25.810  53.473  1.00  0.00    -0.354 OA
HETATM   24  C   UNL     1       5.567  26.066  52.107  1.00  0.00     0.210 C 
ENDBRANCH   4  23
BRANCH   6  25
HETATM   25  C   UNL     1       7.985  21.730  54.024  1.00  0.00     0.010 A 
HETATM   26  C   UNL     1       8.633  20.668  54.701  1.00  0.00     0.152 A 
HETATM   27  N   UNL     1       8.905  19.633  53.903  1.00  0.00    -0.187 NA
HETATM   28  N   UNL     1       8.430  20.022  52.711  1.00  0.00    -0.289 N 
HETATM   29  H   UNL     1       8.521  19.386  51.925  1.00  0.00     0.188 HD
HETATM   30  C   UNL     1       7.873  21.269  52.729  1.00  0.00     0.123 A 
ENDBRANCH   6  25
TORSDOF 6
ENDMDL
MODEL 2
REMARK VINA RESULT:      -9.2      1.364      1.971
REMARK  6 active torsions:
REMARK  status: ('A' for Active; 'I' for Inactive)
REMARK    1  A    between atoms: O_2  and  C_3 
REMARK    2  A    between atoms: C_7  and  O_8 
REMARK    3  A    between atoms: O_8  and  C_9 
REMARK    4  A    between atoms: C_9  and  C_10 
REMARK    5  A    between atoms: C_13  and  O_14 
REMARK    6  A    between atoms: C_17  and  C_23 
ROOT
HETATM    1  C   UNL     1       6.195  27.589  56.524  1.00  0.00     0.132 A 
HETATM    2  N   UNL     1       5.890  26.985  55.422  1.00  0.00    -0.229 NA
HETATM    3  C   UNL     1       6.414  25.693  55.192  1.00  0.00     0.108 A 
HETATM    4  C   UNL     1       6.072  24.990  54.022  1.00  0.00     0.098 A 
HETATM    5  C   UNL     1       6.615  23.717  53.784  1.00  0.00     0.051 A 
HETATM    6  C   UNL     1       7.488  23.114  54.706  1.00  0.00    -0.019 A 
HETATM    7  C   UNL     1       7.809  23.805  55.876  1.00  0.00     0.032 A 
HETATM    8  C   UNL     1       7.271  25.076  56.108  1.00  0.00     0.064 A 
HETATM    9  C   UNL     1       7.590  25.805  57.348  1.00  0.00     0.259 A 
HETATM   10  O   UNL     1       8.313  25.329  58.215  1.00  0.00    -0.267 OA
HETATM   11  N   UNL     1       7.021  27.043  57.471  1.00  0.00    -0.309 N 
HETATM   12  H   UNL     1       7.183  27.532  58.342  1.00  0.00     0.170 HD
ENDROOT
BRANCH   1  13
HETATM   13  C   UNL     1       5.684  28.986  56.822  1.00  0.00     0.254 C 
BRANCH  13  14
HETATM   14  O   UNL     1       6.807  29.867  56.794  1.00  0.00    -0.344 OA
BRANCH  14  15
HETATM   15  C   UNL     1       7.037  30.526  57.972  1.00  0.00     0.071 A 
HETATM   16  C   UNL     1       6.198  31.609  58.231  1.00  0.00     0.037 A 
HETATM   17  C   UNL     1       6.336  32.333  59.413  1.00  0.00     0.005 A 
HETATM   18  C   UNL     1       7.301  31.956  60.346  1.00  0.00     0.037 A 
HETATM   19  C   UNL     1       8.125  30.852  60.110  1.00  0.00     0.070 A 
HETATM   20  C   UNL     1       7.993  30.137  58.915  1.00  0.00     0.073 A 
BRANCH  19  21
HETATM   21  O   UNL     1       9.009  30.576  61.117  1.00  0.00    -0.356 OA
HETATM   22  C   UNL     1       8.551  30.774  62.449  1.00  0.00     0.210 C 
ENDBRANCH  19  21
ENDBRANCH  14  15
ENDBRANCH  13  14
ENDBRANCH   1  13
BRANCH   4  23
HETATM   23  O   UNL     1       5.219  25.635  53.157  1.00  0.00    -0.354 OA
HETATM   24  C   UNL     1       5.532  25.575  51.773  1.00  0.00     0.210 C 
ENDBRANCH   4  23
BRANCH   6  25
HETATM   25  C   UNL     1       8.047  21.800  54.429  1.00  0.00     0.010 A 
HETATM   26  C   UNL     1       8.154  21.073  53.218  1.00  0.00     0.152 A 
HETATM   27  N   UNL     1       8.730  19.879  53.377  1.00  0.00    -0.187 NA
HETATM   28  N   UNL     1       8.999  19.834  54.690  1.00  0.00    -0.289 N 
HETATM   29  H   UNL     1       9.451  19.003  55.061  1.00  0.00     0.188 HD
HETATM   30  C   UNL     1       8.609  20.956  55.364  1.00  0.00     0.123 A 
ENDBRANCH   6  25
TORSDOF 6
ENDMDL
MODEL 3
REMARK VINA RESULT:      -8.7      2.327      3.077
REMARK  6 active torsions:
REMARK  status: ('A' for Active; 'I' for Inactive)
REMARK    1  A    between atoms: O_2  and  C_3 
REMARK    2  A    between atoms: C_7  and  O_8 
REMARK    3  A    between atoms: O_8  and  C_9 
REMARK    4  A    between atoms: C_9  and  C_10 
REMARK    5  A    between atoms: C_13  and  O_14 
REMARK    6  A    between atoms: C_17  and  C_23 
ROOT
HETATM    1  C   UNL     1       6.906  27.954  55.977  1.00  0.00     0.132 A 
HETATM    2  N   UNL     1       6.764  27.347  54.845  1.00  0.00    -0.229 NA
HETATM    3  C   UNL     1       7.124  25.984  54.760  1.00  0.00     0.108 A 
HETATM    4  C   UNL     1       6.946  25.280  53.554  1.00  0.00     0.098 A 
HETATM    5  C   UNL     1       7.330  23.932  53.465  1.00  0.00     0.051 A 
HETATM    6  C   UNL     1       7.877  23.256  54.570  1.00  0.00    -0.019 A 
HETATM    7  C   UNL     1       8.032  23.951  55.772  1.00  0.00     0.032 A 
HETATM    8  C   UNL     1       7.654  25.296  55.856  1.00  0.00     0.064 A 
HETATM    9  C   UNL     1       7.798  26.032  57.124  1.00  0.00     0.259 A 
HETATM   10  O   UNL     1       8.231  25.501  58.139  1.00  0.00    -0.267 OA
HETATM   11  N   UNL     1       7.410  27.343  57.095  1.00  0.00    -0.309 N 
HETATM   12  H   UNL     1       7.447  27.847  57.972  1.00  0.00     0.170 HD
ENDROOT
BRANCH   1  13
HETATM   13  C   UNL     1       6.558  29.423  56.130  1.00  0.00     0.254 C 
BRANCH  13  14
HETATM   14  O   UNL     1       5.278  29.497  56.757  1.00  0.00    -0.344 OA
BRANCH  14  15
HETATM   15  C   UNL     1       5.169  30.480  57.704  1.00  0.00     0.071 A 
HETATM   16  C   UNL     1       6.372  31.019  58.157  1.00  0.00     0.037 A 
HETATM   17  C   UNL     1       6.368  32.039  59.104  1.00  0.00     0.005 A 
HETATM   18  C   UNL     1       5.155  32.536  59.580  1.00  0.00     0.037 A 
HETATM   19  C   UNL     1       3.943  32.025  59.108  1.00  0.00     0.070 A 
HETATM   20  C   UNL     1       3.952  30.990  58.168  1.00  0.00     0.073 A 
BRANCH  19  21
HETATM   21  O   UNL     1       2.830  32.619  59.638  1.00  0.00    -0.356 OA
HETATM   22  C   UNL     1       3.015  33.402  60.811  1.00  0.00     0.210 C 
ENDBRANCH  19  21
ENDBRANCH  14  15
ENDBRANCH  13  14
ENDBRANCH   1  13
BRANCH   4  23
HETATM   23  O   UNL     1       6.414  25.996  52.509  1.00  0.00    -0.354 OA
HETATM   24  C   UNL     1       5.366  25.385  51.769  1.00  0.00     0.210 C 
ENDBRANCH   4  23
BRANCH   6  25
HETATM   25  C   UNL     1       8.278  21.863  54.447  1.00  0.00     0.010 A 
HETATM   26  C   UNL     1       8.286  20.994  53.329  1.00  0.00     0.152 A 
HETATM   27  N   UNL     1       8.723  19.768  53.626  1.00  0.00    -0.187 NA
HETATM   28  N   UNL     1       9.002  19.843  54.936  1.00  0.00    -0.289 N 
HETATM   29  H   UNL     1       9.360  19.014  55.401  1.00  0.00     0.188 HD
HETATM   30  C   UNL     1       8.751  21.073  55.475  1.00  0.00     0.123 A 
ENDBRANCH   6  25
TORSDOF 6
ENDMDL
MODEL 4
REMARK VINA RESULT:      -8.6      3.668      6.563
REMARK  6 active torsions:
REMARK  status: ('A' for Active; 'I' for Inactive)
REMARK    1  A    between atoms: O_2  and  C_3 
REMARK    2  A    between atoms: C_7  and  O_8 
REMARK    3  A    between atoms: O_8  and  C_9 
REMARK    4  A    between atoms: C_9  and  C_10 
REMARK    5  A    between atoms: C_13  and  O_14 
REMARK    6  A    between atoms: C_17  and  C_23 
ROOT
HETATM    1  C   UNL     1       7.026  31.396  59.280  1.00  0.00     0.132 A 
HETATM    2  N   UNL     1       7.770  30.605  58.577  1.00  0.00    -0.229 NA
HETATM    3  C   UNL     1       7.160  29.818  57.576  1.00  0.00     0.108 A 
HETATM    4  C   UNL     1       7.943  28.975  56.765  1.00  0.00     0.098 A 
HETATM    5  C   UNL     1       7.330  28.174  55.788  1.00  0.00     0.051 A 
HETATM    6  C   UNL     1       5.939  28.207  55.585  1.00  0.00    -0.019 A 
HETATM    7  C   UNL     1       5.167  29.061  56.377  1.00  0.00     0.032 A 
HETATM    8  C   UNL     1       5.780  29.854  57.354  1.00  0.00     0.064 A 
HETATM    9  C   UNL     1       4.975  30.769  58.181  1.00  0.00     0.259 A 
HETATM   10  O   UNL     1       3.764  30.882  58.038  1.00  0.00    -0.267 OA
HETATM   11  N   UNL     1       5.670  31.490  59.114  1.00  0.00    -0.309 N 
HETATM   12  H   UNL     1       5.142  32.167  59.650  1.00  0.00     0.170 HD
ENDROOT
BRANCH   1  13
HETATM   13  C   UNL     1       7.616  32.251  60.386  1.00  0.00     0.254 C 
BRANCH  13  14
HETATM   14  O   UNL     1       7.592  31.477  61.584  1.00  0.00    -0.344 OA
BRANCH  14  15
HETATM   15  C   UNL     1       7.069  32.130  62.669  1.00  0.00     0.071 A 
HETATM   16  C   UNL     1       8.000  32.705  63.533  1.00  0.00     0.037 A 
HETATM   17  C   UNL     1       7.569  33.410  64.655  1.00  0.00     0.005 A 
HETATM   18  C   UNL     1       6.204  33.558  64.896  1.00  0.00     0.037 A 
HETATM   19  C   UNL     1       5.264  33.013  64.017  1.00  0.00     0.070 A 
HETATM   20  C   UNL     1       5.700  32.293  62.901  1.00  0.00     0.073 A 
BRANCH  19  21
HETATM   21  O   UNL     1       3.960  33.254  64.359  1.00  0.00    -0.356 OA
HETATM   22  C   UNL     1       3.698  34.430  65.113  1.00  0.00     0.210 C 
ENDBRANCH  19  21
ENDBRANCH  14  15
ENDBRANCH  13  14
ENDBRANCH   1  13
BRANCH   4  23
HETATM   23  O   UNL     1       9.294  28.981  57.015  1.00  0.00    -0.354 OA
HETATM   24  C   UNL     1      10.129  29.622  56.060  1.00  0.00     0.210 C 
ENDBRANCH   4  23
BRANCH   6  25
HETATM   25  C   UNL     1       5.328  27.357  54.575  1.00  0.00     0.010 A 
HETATM   26  C   UNL     1       5.549  25.997  54.250  1.00  0.00     0.152 A 
HETATM   27  N   UNL     1       4.786  25.574  53.238  1.00  0.00    -0.187 NA
HETATM   28  N   UNL     1       4.070  26.660  52.910  1.00  0.00    -0.289 N 
HETATM   29  H   UNL     1       3.402  26.584  52.150  1.00  0.00     0.188 HD
HETATM   30  C   UNL     1       4.358  27.752  53.677  1.00  0.00     0.123 A 
ENDBRANCH   6  25
TORSDOF 6
ENDMDL
MODEL 5
REMARK VINA RESULT:      -8.6      1.719      3.378
REMARK  6 active torsions:
REMARK  status: ('A' for Active; 'I' for Inactive)
REMARK    1  A    between atoms: O_2  and  C_3 
REMARK    2  A    between atoms: C_7  and  O_8 
REMARK    3  A    between atoms: O_8  and  C_9 
REMARK    4  A    between atoms: C_9  and  C_10 
REMARK    5  A    between atoms: C_13  and  O_14 
REMARK    6  A    between atoms: C_17  and  C_23 
ROOT
HETATM    1  C   UNL     1       4.866  27.361  54.792  1.00  0.00     0.132 A 
HETATM    2  N   UNL     1       5.514  26.647  55.653  1.00  0.00    -0.229 NA
HETATM    3  C   UNL     1       6.101  25.436  55.222  1.00  0.00     0.108 A 
HETATM    4  C   UNL     1       6.847  24.653  56.121  1.00  0.00     0.098 A 
HETATM    5  C   UNL     1       7.407  23.437  55.696  1.00  0.00     0.051 A 
HETATM    6  C   UNL     1       7.253  22.987  54.373  1.00  0.00    -0.019 A 
HETATM    7  C   UNL     1       6.530  23.778  53.476  1.00  0.00     0.032 A 
HETATM    8  C   UNL     1       5.968  24.986  53.905  1.00  0.00     0.064 A 
HETATM    9  C   UNL     1       5.219  25.834  52.961  1.00  0.00     0.259 A 
HETATM   10  O   UNL     1       5.075  25.528  51.784  1.00  0.00    -0.267 OA
HETATM   11  N   UNL     1       4.702  26.988  53.484  1.00  0.00    -0.309 N 
HETATM   12  H   UNL     1       4.236  27.610  52.837  1.00  0.00     0.170 HD
ENDROOT
BRANCH   1  13
HETATM   13  C   UNL     1       4.194  28.659  55.196  1.00  0.00     0.254 C 
BRANCH  13  14
HETATM   14  O   UNL     1       5.128  29.714  54.967  1.00  0.00    -0.344 OA
BRANCH  14  15
HETATM   15  C   UNL     1       5.629  30.282  56.108  1.00  0.00     0.071 A 
HETATM   16  C   UNL     1       4.885  31.337  56.634  1.00  0.00     0.037 A 
HETATM   17  C   UNL     1       5.299  31.969  57.804  1.00  0.00     0.005 A 
HETATM   18  C   UNL     1       6.446  31.525  58.461  1.00  0.00     0.037 A 
HETATM   19  C   UNL     1       7.180  30.447  57.959  1.00  0.00     0.070 A 
HETATM   20  C   UNL     1       6.770  29.826  56.775  1.00  0.00     0.073 A 
BRANCH  19  21
HETATM   21  O   UNL     1       8.268  30.100  58.714  1.00  0.00    -0.356 OA
HETATM   22  C   UNL     1       8.351  30.657  60.019  1.00  0.00     0.210 C 
ENDBRANCH  19  21
ENDBRANCH  14  15
ENDBRANCH  13  14
ENDBRANCH   1  13
BRANCH   4  23
HETATM   23  O   UNL     1       6.956  25.141  57.401  1.00  0.00    -0.354 OA
HETATM   24  C   UNL     1       8.201  25.718  57.773  1.00  0.00     0.210 C 
ENDBRANCH   4  23
BRANCH   6  25
HETATM   25  C   UNL     1       7.832  21.718  53.962  1.00  0.00     0.010 A 
HETATM   26  C   UNL     1       8.491  20.712  54.710  1.00  0.00     0.152 A 
HETATM   27  N   UNL     1       8.893  19.684  53.959  1.00  0.00    -0.187 NA
HETATM   28  N   UNL     1       8.491  20.022  52.725  1.00  0.00    -0.289 N 
HETATM   29  H   UNL     1       8.687  19.380  51.962  1.00  0.00     0.188 HD
HETATM   30  C   UNL     1       7.855  21.229  52.672  1.00  0.00     0.123 A 
ENDBRANCH   6  25
TORSDOF 6
ENDMDL
MODEL 6
REMARK VINA RESULT:      -8.5      2.126      3.033
REMARK  6 active torsions:
REMARK  status: ('A' for Active; 'I' for Inactive)
REMARK    1  A    between atoms: O_2  and  C_3 
REMARK    2  A    between atoms: C_7  and  O_8 
REMARK    3  A    between atoms: O_8  and  C_9 
REMARK    4  A    between atoms: C_9  and  C_10 
REMARK    5  A    between atoms: C_13  and  O_14 
REMARK    6  A    between atoms: C_17  and  C_23 
ROOT
HETATM    1  C   UNL     1       5.009  27.626  55.053  1.00  0.00     0.132 A 
HETATM    2  N   UNL     1       5.510  27.165  53.954  1.00  0.00    -0.229 NA
HETATM    3  C   UNL     1       6.078  25.871  53.962  1.00  0.00     0.108 A 
HETATM    4  C   UNL     1       6.598  25.321  52.775  1.00  0.00     0.098 A 
HETATM    5  C   UNL     1       7.186  24.045  52.792  1.00  0.00     0.051 A 
HETATM    6  C   UNL     1       7.252  23.289  53.975  1.00  0.00    -0.019 A 
HETATM    7  C   UNL     1       6.715  23.829  55.147  1.00  0.00     0.032 A 
HETATM    8  C   UNL     1       6.136  25.103  55.128  1.00  0.00     0.064 A 
HETATM    9  C   UNL     1       5.552  25.673  56.355  1.00  0.00     0.259 A 
HETATM   10  O   UNL     1       5.538  25.059  57.415  1.00  0.00    -0.267 OA
HETATM   11  N   UNL     1       5.021  26.928  56.231  1.00  0.00    -0.309 N 
HETATM   12  H   UNL     1       4.564  27.310  57.049  1.00  0.00     0.170 HD
ENDROOT
BRANCH   1  13
HETATM   13  C   UNL     1       4.404  29.016  55.117  1.00  0.00     0.254 C 
BRANCH  13  14
HETATM   14  O   UNL     1       3.881  29.194  56.433  1.00  0.00    -0.344 OA
BRANCH  14  15
HETATM   15  C   UNL     1       4.413  30.256  57.114  1.00  0.00     0.071 A 
HETATM   16  C   UNL     1       3.497  31.211  57.556  1.00  0.00     0.037 A 
HETATM   17  C   UNL     1       3.936  32.319  58.276  1.00  0.00     0.005 A 
HETATM   18  C   UNL     1       5.291  32.458  58.574  1.00  0.00     0.037 A 
HETATM   19  C   UNL     1       6.212  31.490  58.163  1.00  0.00     0.070 A 
HETATM   20  C   UNL     1       5.770  30.387  57.427  1.00  0.00     0.073 A 
BRANCH  19  21
HETATM   21  O   UNL     1       7.503  31.737  58.544  1.00  0.00    -0.356 OA
HETATM   22  C   UNL     1       8.350  30.609  58.722  1.00  0.00     0.210 C 
ENDBRANCH  19  21
ENDBRANCH  14  15
ENDBRANCH  13  14
ENDBRANCH   1  13
BRANCH   4  23
HETATM   23  O   UNL     1       6.511  26.110  51.654  1.00  0.00    -0.354 OA
HETATM   24  C   UNL     1       5.356  25.959  50.841  1.00  0.00     0.210 C 
ENDBRANCH   4  23
BRANCH   6  25
HETATM   25  C   UNL     1       7.877  21.976  53.968  1.00  0.00     0.010 A 
HETATM   26  C   UNL     1       7.983  21.003  52.943  1.00  0.00     0.152 A 
HETATM   27  N   UNL     1       8.634  19.905  53.334  1.00  0.00    -0.187 NA
HETATM   28  N   UNL     1       8.954  20.168  54.610  1.00  0.00    -0.289 N 
HETATM   29  H   UNL     1       9.467  19.464  55.133  1.00  0.00     0.188 HD
HETATM   30  C   UNL     1       8.522  21.391  55.038  1.00  0.00     0.123 A 
ENDBRANCH   6  25
TORSDOF 6
ENDMDL
MODEL 7
REMARK VINA RESULT:      -8.5      2.345      3.940
REMARK  6 active torsions:
REMARK  status: ('A' for Active; 'I' for Inactive)
REMARK    1  A    between atoms: O_2  and  C_3 
REMARK    2  A    between atoms: C_7  and  O_8 
REMARK    3  A    between atoms: O_8  and  C_9 
REMARK    4  A    between atoms: C_9  and  C_10 
REMARK    5  A    between atoms: C_13  and  O_14 
REMARK    6  A    between atoms: C_17  and  C_23 
ROOT
HETATM    1  C   UNL     1       4.919  27.305  53.965  1.00  0.00     0.132 A 
HETATM    2  N   UNL     1       5.864  26.960  54.776  1.00  0.00    -0.229 NA
HETATM    3  C   UNL     1       6.432  25.673  54.643  1.00  0.00     0.108 A 
HETATM    4  C   UNL     1       7.490  25.277  55.483  1.00  0.00     0.098 A 
HETATM    5  C   UNL     1       8.034  23.988  55.365  1.00  0.00     0.051 A 
HETATM    6  C   UNL     1       7.555  23.079  54.405  1.00  0.00    -0.019 A 
HETATM    7  C   UNL     1       6.519  23.483  53.559  1.00  0.00     0.032 A 
HETATM    8  C   UNL     1       5.974  24.766  53.682  1.00  0.00     0.064 A 
HETATM    9  C   UNL     1       4.894  25.206  52.782  1.00  0.00     0.259 A 
HETATM   10  O   UNL     1       4.450  24.485  51.897  1.00  0.00    -0.267 OA
HETATM   11  N   UNL     1       4.426  26.474  52.994  1.00  0.00    -0.309 N 
HETATM   12  H   UNL     1       3.725  26.813  52.348  1.00  0.00     0.170 HD
ENDROOT
BRANCH   1  13
HETATM   13  C   UNL     1       4.252  28.664  54.069  1.00  0.00     0.254 C 
BRANCH  13  14
HETATM   14  O   UNL     1       5.238  29.590  54.525  1.00  0.00    -0.344 OA
BRANCH  14  15
HETATM   15  C   UNL     1       4.984  30.124  55.760  1.00  0.00     0.071 A 
HETATM   16  C   UNL     1       3.640  30.178  56.130  1.00  0.00     0.037 A 
HETATM   17  C   UNL     1       3.279  30.684  57.376  1.00  0.00     0.005 A 
HETATM   18  C   UNL     1       4.267  31.114  58.261  1.00  0.00     0.037 A 
HETATM   19  C   UNL     1       5.617  31.034  57.911  1.00  0.00     0.070 A 
HETATM   20  C   UNL     1       5.976  30.540  56.654  1.00  0.00     0.073 A 
BRANCH  19  21
HETATM   21  O   UNL     1       6.482  31.465  58.881  1.00  0.00    -0.356 OA
HETATM   22  C   UNL     1       6.021  32.500  59.741  1.00  0.00     0.210 C 
ENDBRANCH  19  21
ENDBRANCH  14  15
ENDBRANCH  13  14
ENDBRANCH   1  13
BRANCH   4  23
HETATM   23  O   UNL     1       7.910  26.205  56.404  1.00  0.00    -0.354 OA
HETATM   24  C   UNL     1       7.631  25.937  57.771  1.00  0.00     0.210 C 
ENDBRANCH   4  23
BRANCH   6  25
HETATM   25  C   UNL     1       8.127  21.745  54.313  1.00  0.00     0.010 A 
HETATM   26  C   UNL     1       8.402  20.928  53.188  1.00  0.00     0.152 A 
HETATM   27  N   UNL     1       8.928  19.747  53.520  1.00  0.00    -0.187 NA
HETATM   28  N   UNL     1       8.997  19.800  54.859  1.00  0.00    -0.289 N 
HETATM   29  H   UNL     1       9.375  18.997  55.353  1.00  0.00     0.188 HD
HETATM   30  C   UNL     1       8.529  20.971  55.382  1.00  0.00     0.123 A 
ENDBRANCH   6  25
TORSDOF 6
ENDMDL
MODEL 8
REMARK VINA RESULT:      -8.5      2.877      8.797
REMARK  6 active torsions:
REMARK  status: ('A' for Active; 'I' for Inactive)
REMARK    1  A    between atoms: O_2  and  C_3 
REMARK    2  A    between atoms: C_7  and  O_8 
REMARK    3  A    between atoms: O_8  and  C_9 
REMARK    4  A    between atoms: C_9  and  C_10 
REMARK    5  A    between atoms: C_13  and  O_14 
REMARK    6  A    between atoms: C_17  and  C_23 
ROOT
HETATM    1  C   UNL     1       6.671  27.706  54.817  1.00  0.00     0.132 A 
HETATM    2  N   UNL     1       7.706  28.099  55.484  1.00  0.00    -0.229 NA
HETATM    3  C   UNL     1       7.518  29.005  56.551  1.00  0.00     0.108 A 
HETATM    4  C   UNL     1       8.616  29.425  57.324  1.00  0.00     0.098 A 
HETATM    5  C   UNL     1       8.429  30.345  58.368  1.00  0.00     0.051 A 
HETATM    6  C   UNL     1       7.154  30.850  58.675  1.00  0.00    -0.019 A 
HETATM    7  C   UNL     1       6.062  30.414  57.920  1.00  0.00     0.032 A 
HETATM    8  C   UNL     1       6.252  29.502  56.876  1.00  0.00     0.064 A 
HETATM    9  C   UNL     1       5.103  29.024  56.087  1.00  0.00     0.259 A 
HETATM   10  O   UNL     1       3.957  29.388  56.319  1.00  0.00    -0.267 OA
HETATM   11  N   UNL     1       5.400  28.142  55.084  1.00  0.00    -0.309 N 
HETATM   12  H   UNL     1       4.617  27.759  54.570  1.00  0.00     0.170 HD
ENDROOT
BRANCH   1  13
HETATM   13  C   UNL     1       6.807  26.752  53.645  1.00  0.00     0.254 C 
BRANCH  13  14
HETATM   14  O   UNL     1       6.029  25.593  53.944  1.00  0.00    -0.344 OA
BRANCH  14  15
HETATM   15  C   UNL     1       6.758  24.443  54.084  1.00  0.00     0.071 A 
HETATM   16  C   UNL     1       7.164  23.837  52.895  1.00  0.00     0.037 A 
HETATM   17  C   UNL     1       7.929  22.674  52.930  1.00  0.00     0.005 A 
HETATM   18  C   UNL     1       8.308  22.131  54.158  1.00  0.00     0.037 A 
HETATM   19  C   UNL     1       7.933  22.750  55.354  1.00  0.00     0.070 A 
HETATM   20  C   UNL     1       7.152  23.909  55.315  1.00  0.00     0.073 A 
BRANCH  19  21
HETATM   21  O   UNL     1       8.392  22.128  56.483  1.00  0.00    -0.356 OA
HETATM   22  C   UNL     1       8.199  20.721  56.569  1.00  0.00     0.210 C 
ENDBRANCH  19  21
ENDBRANCH  14  15
ENDBRANCH  13  14
ENDBRANCH   1  13
BRANCH   4  23
HETATM   23  O   UNL     1       9.838  28.903  56.971  1.00  0.00    -0.354 OA
HETATM   24  C   UNL     1      10.967  29.758  57.081  1.00  0.00     0.210 C 
ENDBRANCH   4  23
BRANCH   6  25
HETATM   25  C   UNL     1       6.989  31.812  59.753  1.00  0.00     0.010 A 
HETATM   26  C   UNL     1       7.896  32.257  60.747  1.00  0.00     0.152 A 
HETATM   27  N   UNL     1       7.358  33.155  61.576  1.00  0.00    -0.187 NA
HETATM   28  N   UNL     1       6.106  33.296  61.116  1.00  0.00    -0.289 N 
HETATM   29  H   UNL     1       5.488  33.944  61.595  1.00  0.00     0.188 HD
HETATM   30  C   UNL     1       5.834  32.514  60.031  1.00  0.00     0.123 A 
ENDBRANCH   6  25
TORSDOF 6
ENDMDL
MODEL 9
REMARK VINA RESULT:      -8.5      4.553     10.529
REMARK  6 active torsions:
REMARK  status: ('A' for Active; 'I' for Inactive)
REMARK    1  A    between atoms: O_2  and  C_3 
REMARK    2  A    between atoms: C_7  and  O_8 
REMARK    3  A    between atoms: O_8  and  C_9 
REMARK    4  A    between atoms: C_9  and  C_10 
REMARK    5  A    between atoms: C_13  and  O_14 
REMARK    6  A    between atoms: C_17  and  C_23 
ROOT
HETATM    1  C   UNL     1       7.846  30.785  59.102  1.00  0.00     0.132 A 
HETATM    2  N   UNL     1       6.888  31.616  59.355  1.00  0.00    -0.229 NA
HETATM    3  C   UNL     1       6.743  32.099  60.674  1.00  0.00     0.108 A 
HETATM    4  C   UNL     1       5.736  33.035  60.977  1.00  0.00     0.098 A 
HETATM    5  C   UNL     1       5.578  33.493  62.295  1.00  0.00     0.051 A 
HETATM    6  C   UNL     1       6.423  33.049  63.327  1.00  0.00    -0.019 A 
HETATM    7  C   UNL     1       7.435  32.137  63.019  1.00  0.00     0.032 A 
HETATM    8  C   UNL     1       7.586  31.677  61.706  1.00  0.00     0.064 A 
HETATM    9  C   UNL     1       8.662  30.728  61.369  1.00  0.00     0.259 A 
HETATM   10  O   UNL     1       9.460  30.325  62.206  1.00  0.00    -0.267 OA
HETATM   11  N   UNL     1       8.715  30.334  60.060  1.00  0.00    -0.309 N 
HETATM   12  H   UNL     1       9.483  29.729  59.799  1.00  0.00     0.170 HD
ENDROOT
BRANCH   1  13
HETATM   13  C   UNL     1       8.042  30.211  57.712  1.00  0.00     0.254 C 
BRANCH  13  14
HETATM   14  O   UNL     1       6.790  29.670  57.292  1.00  0.00    -0.344 OA
BRANCH  14  15
HETATM   15  C   UNL     1       6.752  28.302  57.250  1.00  0.00     0.071 A 
HETATM   16  C   UNL     1       5.522  27.743  56.904  1.00  0.00     0.037 A 
HETATM   17  C   UNL     1       5.384  26.360  56.813  1.00  0.00     0.005 A 
HETATM   18  C   UNL     1       6.486  25.539  57.046  1.00  0.00     0.037 A 
HETATM   19  C   UNL     1       7.731  26.091  57.361  1.00  0.00     0.070 A 
HETATM   20  C   UNL     1       7.861  27.479  57.466  1.00  0.00     0.073 A 
BRANCH  19  21
HETATM   21  O   UNL     1       8.731  25.174  57.538  1.00  0.00    -0.356 OA
HETATM   22  C   UNL     1       8.543  23.892  56.952  1.00  0.00     0.210 C 
ENDBRANCH  19  21
ENDBRANCH  14  15
ENDBRANCH  13  14
ENDBRANCH   1  13
BRANCH   4  23
HETATM   23  O   UNL     1       4.939  33.426  59.928  1.00  0.00    -0.354 OA
HETATM   24  C   UNL     1       4.240  34.655  60.066  1.00  0.00     0.210 C 
ENDBRANCH   4  23
BRANCH   6  25
HETATM   25  C   UNL     1       6.229  33.530  64.687  1.00  0.00     0.010 A 
HETATM   26  C   UNL     1       5.046  33.817  65.410  1.00  0.00     0.152 A 
HETATM   27  N   UNL     1       5.287  34.254  66.649  1.00  0.00    -0.187 NA
HETATM   28  N   UNL     1       6.626  34.246  66.729  1.00  0.00    -0.289 N 
HETATM   29  H   UNL     1       7.058  34.543  67.599  1.00  0.00     0.188 HD
HETATM   30  C   UNL     1       7.236  33.824  65.583  1.00  0.00     0.123 A 
ENDBRANCH   6  25
TORSDOF 6
ENDMDL
MODEL 10
REMARK VINA RESULT:      -8.4      3.500      5.546
REMARK  6 active torsions:
REMARK  status: ('A' for Active; 'I' for Inactive)
REMARK    1  A    between atoms: O_2  and  C_3 
REMARK    2  A    between atoms: C_7  and  O_8 
REMARK    3  A    between atoms: O_8  and  C_9 
REMARK    4  A    between atoms: C_9  and  C_10 
REMARK    5  A    between atoms: C_13  and  O_14 
REMARK    6  A    between atoms: C_17  and  C_23 
ROOT
HETATM    1  C   UNL     1       7.370  30.311  58.487  1.00  0.00     0.132 A 
HETATM    2  N   UNL     1       6.429  30.582  57.643  1.00  0.00    -0.229 NA
HETATM    3  C   UNL     1       6.102  29.618  56.663  1.00  0.00     0.108 A 
HETATM    4  C   UNL     1       5.057  29.862  55.752  1.00  0.00     0.098 A 
HETATM    5  C   UNL     1       4.753  28.912  54.763  1.00  0.00     0.051 A 
HETATM    6  C   UNL     1       5.462  27.702  54.671  1.00  0.00    -0.019 A 
HETATM    7  C   UNL     1       6.485  27.454  55.590  1.00  0.00     0.032 A 
HETATM    8  C   UNL     1       6.790  28.404  56.571  1.00  0.00     0.064 A 
HETATM    9  C   UNL     1       7.855  28.142  57.555  1.00  0.00     0.259 A 
HETATM   10  O   UNL     1       8.492  27.096  57.562  1.00  0.00    -0.267 OA
HETATM   11  N   UNL     1       8.081  29.141  58.463  1.00  0.00    -0.309 N 
HETATM   12  H   UNL     1       8.768  28.953  59.182  1.00  0.00     0.170 HD
ENDROOT
BRANCH   1  13
HETATM   13  C   UNL     1       7.784  31.312  59.549  1.00  0.00     0.254 C 
BRANCH  13  14
HETATM   14  O   UNL     1       6.593  31.903  60.068  1.00  0.00    -0.344 OA
BRANCH  14  15
HETATM   15  C   UNL     1       6.647  32.205  61.402  1.00  0.00     0.071 A 
HETATM   16  C   UNL     1       7.927  32.363  61.934  1.00  0.00     0.037 A 
HETATM   17  C   UNL     1       8.089  32.692  63.277  1.00  0.00     0.005 A 
HETATM   18  C   UNL     1       6.967  32.888  64.082  1.00  0.00     0.037 A 
HETATM   19  C   UNL     1       5.681  32.765  63.550  1.00  0.00     0.070 A 
HETATM   20  C   UNL     1       5.522  32.418  62.204  1.00  0.00     0.073 A 
BRANCH  19  21
HETATM   21  O   UNL     1       4.671  33.008  64.441  1.00  0.00    -0.356 OA
HETATM   22  C   UNL     1       5.006  33.749  65.608  1.00  0.00     0.210 C 
ENDBRANCH  19  21
ENDBRANCH  14  15
ENDBRANCH  13  14
ENDBRANCH   1  13
BRANCH   4  23
HETATM   23  O   UNL     1       4.405  31.064  55.888  1.00  0.00    -0.354 OA
HETATM   24  C   UNL     1       3.072  31.029  56.379  1.00  0.00     0.210 C 
ENDBRANCH   4  23
BRANCH   6  25
HETATM   25  C   UNL     1       5.135  26.742  53.629  1.00  0.00     0.010 A 
HETATM   26  C   UNL     1       5.054  25.328  53.662  1.00  0.00     0.152 A 
HETATM   27  N   UNL     1       4.729  24.799  52.480  1.00  0.00    -0.187 NA
HETATM   28  N   UNL     1       4.595  25.869  51.683  1.00  0.00    -0.289 N 
HETATM   29  H   UNL     1       4.343  25.718  50.711  1.00  0.00     0.188 HD
HETATM   30  C   UNL     1       4.830  27.054  52.320  1.00  0.00     0.123 A 
ENDBRANCH   6  25
TORSDOF 6
ENDMDL
