MODEL 1
REMARK VINA RESULT:      -9.9      0.000      0.000
REMARK  6 active torsions:
REMARK  status: ('A' for Active; 'I' for Inactive)
REMARK    1  A    between atoms: C_2  and  C_3 
REMARK       I    between atoms: C_2  and  N_9 
REMARK    2  A    between atoms: C_3  and  N_4 
REMARK    3  A    between atoms: N_9  and  C_10 
REMARK    4  A    between atoms: C_15  and  C_16 
REMARK    5  A    between atoms: C_18  and  N_19 
REMARK    6  A    between atoms: N_19  and  C_20 
ROOT
HETATM    1  C   UNL     1       4.210  29.678  53.429  1.00  0.00     0.164 A 
HETATM    2  N   UNL     1       4.101  28.386  53.766  1.00  0.00    -0.210 NA
HETATM    3  C   UNL     1       4.319  27.459  52.820  1.00  0.00     0.143 A 
HETATM    4  C   UNL     1       4.625  27.814  51.497  1.00  0.00     0.039 A 
HETATM    5  C   UNL     1       4.865  26.897  50.441  1.00  0.00     0.018 A 
HETATM    6  C   UNL     1       5.164  27.348  49.158  1.00  0.00     0.001 A 
HETATM    7  C   UNL     1       5.233  28.714  48.917  1.00  0.00     0.002 A 
HETATM    8  C   UNL     1       5.009  29.617  49.961  1.00  0.00     0.032 A 
HETATM    9  C   UNL     1       4.709  29.191  51.249  1.00  0.00     0.073 A 
HETATM   10  N   UNL     1       4.521  30.115  52.197  1.00  0.00    -0.228 NA
ENDROOT
BRANCH   1  11
HETATM   11  C   UNL     1       3.994  30.663  54.507  1.00  0.00     0.039 A 
HETATM   12  C   UNL     1       4.892  30.854  55.589  1.00  0.00     0.049 A 
HETATM   13  C   UNL     1       4.563  31.765  56.606  1.00  0.00     0.030 A 
HETATM   14  C   UNL     1       3.376  32.498  56.566  1.00  0.00     0.002 A 
HETATM   15  C   UNL     1       2.492  32.330  55.511  1.00  0.00     0.001 A 
HETATM   16  C   UNL     1       2.799  31.422  54.500  1.00  0.00     0.018 A 
BRANCH  12  17
HETATM   17  N   UNL     1       6.110  30.134  55.617  1.00  0.00    -0.325 N 
HETATM   18  C   UNL     1       6.434  29.025  56.375  1.00  0.00     0.250 C 
HETATM   19  O   UNL     1       5.673  28.381  57.093  1.00  0.00    -0.271 OA
HETATM   20  H   UNL     1       6.858  30.498  55.025  1.00  0.00     0.169 HD
BRANCH  18  21
HETATM   21  C   UNL     1       7.894  28.590  56.198  1.00  0.00     0.375 C 
BRANCH  21  22
HETATM   22  N   UNL     1       8.832  29.648  56.627  1.00  0.00     0.097 N 
HETATM   23  C   UNL     1       8.811  29.848  58.082  1.00  0.00     0.273 C 
HETATM   24  C   UNL     1      10.076  30.654  58.311  1.00  0.00     0.032 C 
HETATM   25  C   UNL     1      11.060  30.109  57.285  1.00  0.00     0.032 C 
HETATM   26  C   UNL     1      10.219  29.284  56.317  1.00  0.00     0.273 C 
ENDBRANCH  21  22
ENDBRANCH  18  21
ENDBRANCH  12  17
ENDBRANCH   1  11
BRANCH   3  27
HETATM   27  N   UNL     1       4.226  26.090  53.186  1.00  0.00    -0.340 N 
HETATM   28  H   UNL     1       3.337  25.927  53.644  1.00  0.00     0.167 HD
BRANCH  27  29
HETATM   29  C   UNL     1       5.270  25.304  53.738  1.00  0.00     0.034 A 
HETATM   30  C   UNL     1       5.638  25.418  55.088  1.00  0.00     0.032 A 
HETATM   31  C   UNL     1       6.682  24.672  55.650  1.00  0.00     0.034 A 
HETATM   32  C   UNL     1       7.368  23.811  54.795  1.00  0.00     0.062 A 
HETATM   33  N   UNL     1       8.412  22.952  55.013  1.00  0.00    -0.278 N 
HETATM   34  C   UNL     1       7.065  23.689  53.445  1.00  0.00     0.013 A 
HETATM   35  H   UNL     1       8.893  22.775  55.888  1.00  0.00     0.189 HD
HETATM   36  N   UNL     1       8.812  22.284  53.916  1.00  0.00    -0.186 NA
HETATM   37  C   UNL     1       7.991  22.736  52.964  1.00  0.00     0.152 A 
HETATM   38  C   UNL     1       6.015  24.454  52.900  1.00  0.00     0.044 A 
ENDBRANCH  27  29
ENDBRANCH   3  27
TORSDOF 6
ENDMDL
MODEL 2
REMARK VINA RESULT:      -9.8      2.133      7.110
REMARK  6 active torsions:
REMARK  status: ('A' for Active; 'I' for Inactive)
REMARK    1  A    between atoms: C_2  and  C_3 
REMARK       I    between atoms: C_2  and  N_9 
REMARK    2  A    between atoms: C_3  and  N_4 
REMARK    3  A    between atoms: N_9  and  C_10 
REMARK    4  A    between atoms: C_15  and  C_16 
REMARK    5  A    between atoms: C_18  and  N_19 
REMARK    6  A    between atoms: N_19  and  C_20 
ROOT
HETATM    1  C   UNL     1       5.376  28.058  54.426  1.00  0.00     0.164 A 
HETATM    2  N   UNL     1       6.243  28.154  55.442  1.00  0.00    -0.210 NA
HETATM    3  C   UNL     1       7.065  27.119  55.680  1.00  0.00     0.143 A 
HETATM    4  C   UNL     1       7.013  25.945  54.913  1.00  0.00     0.039 A 
HETATM    5  C   UNL     1       7.843  24.809  55.102  1.00  0.00     0.018 A 
HETATM    6  C   UNL     1       7.716  23.690  54.285  1.00  0.00     0.001 A 
HETATM    7  C   UNL     1       6.768  23.692  53.270  1.00  0.00     0.002 A 
HETATM    8  C   UNL     1       5.960  24.816  53.076  1.00  0.00     0.032 A 
HETATM    9  C   UNL     1       6.067  25.946  53.878  1.00  0.00     0.073 A 
HETATM   10  N   UNL     1       5.268  26.987  53.622  1.00  0.00    -0.228 NA
ENDROOT
BRANCH   1  11
HETATM   11  C   UNL     1       4.514  29.230  54.179  1.00  0.00     0.039 A 
HETATM   12  C   UNL     1       4.117  29.656  52.885  1.00  0.00     0.049 A 
HETATM   13  C   UNL     1       3.355  30.828  52.748  1.00  0.00     0.030 A 
HETATM   14  C   UNL     1       2.967  31.575  53.861  1.00  0.00     0.002 A 
HETATM   15  C   UNL     1       3.338  31.167  55.133  1.00  0.00     0.001 A 
HETATM   16  C   UNL     1       4.104  30.013  55.286  1.00  0.00     0.018 A 
BRANCH  12  17
HETATM   17  N   UNL     1       4.484  28.885  51.757  1.00  0.00    -0.325 N 
HETATM   18  C   UNL     1       5.325  29.232  50.717  1.00  0.00     0.250 C 
HETATM   19  O   UNL     1       6.011  30.248  50.637  1.00  0.00    -0.271 OA
HETATM   20  H   UNL     1       4.047  27.965  51.683  1.00  0.00     0.169 HD
BRANCH  18  21
HETATM   21  C   UNL     1       5.394  28.158  49.624  1.00  0.00     0.375 C 
BRANCH  21  22
HETATM   22  N   UNL     1       4.080  27.518  49.408  1.00  0.00     0.097 N 
HETATM   23  C   UNL     1       3.241  28.279  48.474  1.00  0.00     0.273 C 
HETATM   24  C   UNL     1       2.164  27.272  48.120  1.00  0.00     0.032 C 
HETATM   25  C   UNL     1       2.889  25.933  48.112  1.00  0.00     0.032 C 
HETATM   26  C   UNL     1       4.230  26.197  48.788  1.00  0.00     0.273 C 
ENDBRANCH  21  22
ENDBRANCH  18  21
ENDBRANCH  12  17
ENDBRANCH   1  11
BRANCH   3  27
HETATM   27  N   UNL     1       7.999  27.234  56.743  1.00  0.00    -0.340 N 
HETATM   28  H   UNL     1       7.703  26.644  57.513  1.00  0.00     0.167 HD
BRANCH  27  29
HETATM   29  C   UNL     1       8.612  28.433  57.187  1.00  0.00     0.034 A 
HETATM   30  C   UNL     1       9.912  28.783  56.789  1.00  0.00     0.032 A 
HETATM   31  C   UNL     1      10.547  29.949  57.234  1.00  0.00     0.034 A 
HETATM   32  C   UNL     1       9.834  30.754  58.121  1.00  0.00     0.062 A 
HETATM   33  N   UNL     1      10.148  31.939  58.731  1.00  0.00    -0.278 N 
HETATM   34  C   UNL     1       8.559  30.433  58.571  1.00  0.00     0.013 A 
HETATM   35  H   UNL     1      11.003  32.475  58.634  1.00  0.00     0.189 HD
HETATM   36  N   UNL     1       9.184  32.412  59.541  1.00  0.00    -0.186 NA
HETATM   37  C   UNL     1       8.220  31.493  59.442  1.00  0.00     0.152 A 
HETATM   38  C   UNL     1       7.942  29.252  58.115  1.00  0.00     0.044 A 
ENDBRANCH  27  29
ENDBRANCH   3  27
TORSDOF 6
ENDMDL
MODEL 3
REMARK VINA RESULT:      -9.7      1.996      5.189
REMARK  6 active torsions:
REMARK  status: ('A' for Active; 'I' for Inactive)
REMARK    1  A    between atoms: C_2  and  C_3 
REMARK       I    between atoms: C_2  and  N_9 
REMARK    2  A    between atoms: C_3  and  N_4 
REMARK    3  A    between atoms: N_9  and  C_10 
REMARK    4  A    between atoms: C_15  and  C_16 
REMARK    5  A    between atoms: C_18  and  N_19 
REMARK    6  A    between atoms: N_19  and  C_20 
ROOT
HETATM    1  C   UNL     1       6.040  27.171  53.250  1.00  0.00     0.164 A 
HETATM    2  N   UNL     1       5.889  26.008  53.897  1.00  0.00    -0.210 NA
HETATM    3  C   UNL     1       6.517  25.846  55.072  1.00  0.00     0.143 A 
HETATM    4  C   UNL     1       7.340  26.846  55.613  1.00  0.00     0.039 A 
HETATM    5  C   UNL     1       8.038  26.751  56.845  1.00  0.00     0.018 A 
HETATM    6  C   UNL     1       8.831  27.802  57.298  1.00  0.00     0.001 A 
HETATM    7  C   UNL     1       8.930  28.958  56.534  1.00  0.00     0.002 A 
HETATM    8  C   UNL     1       8.231  29.056  55.327  1.00  0.00     0.032 A 
HETATM    9  C   UNL     1       7.434  28.021  54.854  1.00  0.00     0.073 A 
HETATM   10  N   UNL     1       6.786  28.195  53.697  1.00  0.00    -0.228 NA
ENDROOT
BRANCH   1  11
HETATM   11  C   UNL     1       5.307  27.320  51.977  1.00  0.00     0.039 A 
HETATM   12  C   UNL     1       4.258  28.254  51.778  1.00  0.00     0.049 A 
HETATM   13  C   UNL     1       3.570  28.270  50.554  1.00  0.00     0.030 A 
HETATM   14  C   UNL     1       3.908  27.393  49.521  1.00  0.00     0.002 A 
HETATM   15  C   UNL     1       4.936  26.479  49.696  1.00  0.00     0.001 A 
HETATM   16  C   UNL     1       5.620  26.444  50.910  1.00  0.00     0.018 A 
BRANCH  12  17
HETATM   17  N   UNL     1       3.933  29.164  52.812  1.00  0.00    -0.325 N 
HETATM   18  C   UNL     1       4.097  30.537  52.831  1.00  0.00     0.250 C 
HETATM   19  O   UNL     1       4.456  31.244  51.893  1.00  0.00    -0.271 OA
HETATM   20  H   UNL     1       3.557  28.752  53.668  1.00  0.00     0.169 HD
BRANCH  18  21
HETATM   21  C   UNL     1       3.714  31.163  54.178  1.00  0.00     0.375 C 
BRANCH  21  22
HETATM   22  N   UNL     1       4.721  30.869  55.218  1.00  0.00     0.097 N 
HETATM   23  C   UNL     1       4.898  31.992  56.149  1.00  0.00     0.273 C 
HETATM   24  C   UNL     1       5.642  31.339  57.298  1.00  0.00     0.032 C 
HETATM   25  C   UNL     1       5.068  29.930  57.365  1.00  0.00     0.032 C 
HETATM   26  C   UNL     1       4.299  29.745  56.061  1.00  0.00     0.273 C 
ENDBRANCH  21  22
ENDBRANCH  18  21
ENDBRANCH  12  17
ENDBRANCH   1  11
BRANCH   3  27
HETATM   27  N   UNL     1       6.336  24.621  55.768  1.00  0.00    -0.340 N 
HETATM   28  H   UNL     1       6.188  24.815  56.752  1.00  0.00     0.167 HD
BRANCH  27  29
HETATM   29  C   UNL     1       7.072  23.428  55.557  1.00  0.00     0.034 A 
HETATM   30  C   UNL     1       7.835  22.846  56.582  1.00  0.00     0.032 A 
HETATM   31  C   UNL     1       8.591  21.683  56.391  1.00  0.00     0.034 A 
HETATM   32  C   UNL     1       8.574  21.126  55.113  1.00  0.00     0.062 A 
HETATM   33  N   UNL     1       9.182  20.013  54.596  1.00  0.00    -0.278 N 
HETATM   34  C   UNL     1       7.863  21.683  54.058  1.00  0.00     0.013 A 
HETATM   35  H   UNL     1       9.781  19.355  55.082  1.00  0.00     0.189 HD
HETATM   36  N   UNL     1       8.925  19.803  53.292  1.00  0.00    -0.186 NA
HETATM   37  C   UNL     1       8.124  20.822  52.968  1.00  0.00     0.152 A 
HETATM   38  C   UNL     1       7.115  22.857  54.271  1.00  0.00     0.044 A 
ENDBRANCH  27  29
ENDBRANCH   3  27
TORSDOF 6
ENDMDL
MODEL 4
REMARK VINA RESULT:      -9.6      2.591      6.359
REMARK  6 active torsions:
REMARK  status: ('A' for Active; 'I' for Inactive)
REMARK    1  A    between atoms: C_2  and  C_3 
REMARK       I    between atoms: C_2  and  N_9 
REMARK    2  A    between atoms: C_3  and  N_4 
REMARK    3  A    between atoms: N_9  and  C_10 
REMARK    4  A    between atoms: C_15  and  C_16 
REMARK    5  A    between atoms: C_18  and  N_19 
REMARK    6  A    between atoms: N_19  and  C_20 
ROOT
HETATM    1  C   UNL     1       6.100  26.155  53.356  1.00  0.00     0.164 A 
HETATM    2  N   UNL     1       6.107  26.188  52.017  1.00  0.00    -0.210 NA
HETATM    3  C   UNL     1       5.456  27.187  51.400  1.00  0.00     0.143 A 
HETATM    4  C   UNL     1       4.754  28.166  52.121  1.00  0.00     0.039 A 
HETATM    5  C   UNL     1       4.040  29.248  51.544  1.00  0.00     0.018 A 
HETATM    6  C   UNL     1       3.375  30.171  52.347  1.00  0.00     0.001 A 
HETATM    7  C   UNL     1       3.419  30.029  53.727  1.00  0.00     0.002 A 
HETATM    8  C   UNL     1       4.133  28.969  54.295  1.00  0.00     0.032 A 
HETATM    9  C   UNL     1       4.805  28.036  53.516  1.00  0.00     0.073 A 
HETATM   10  N   UNL     1       5.477  27.058  54.132  1.00  0.00    -0.228 NA
ENDROOT
BRANCH   1  11
HETATM   11  C   UNL     1       6.855  25.059  53.995  1.00  0.00     0.039 A 
HETATM   12  C   UNL     1       7.629  25.219  55.173  1.00  0.00     0.049 A 
HETATM   13  C   UNL     1       8.372  24.133  55.664  1.00  0.00     0.030 A 
HETATM   14  C   UNL     1       8.353  22.893  55.024  1.00  0.00     0.002 A 
HETATM   15  C   UNL     1       7.595  22.717  53.876  1.00  0.00     0.001 A 
HETATM   16  C   UNL     1       6.861  23.788  53.370  1.00  0.00     0.018 A 
BRANCH  12  17
HETATM   17  N   UNL     1       7.627  26.467  55.841  1.00  0.00    -0.325 N 
HETATM   18  C   UNL     1       7.705  26.714  57.199  1.00  0.00     0.250 C 
HETATM   19  O   UNL     1       7.909  25.886  58.083  1.00  0.00    -0.271 OA
HETATM   20  H   UNL     1       7.524  27.291  55.247  1.00  0.00     0.169 HD
BRANCH  18  21
HETATM   21  C   UNL     1       7.573  28.203  57.541  1.00  0.00     0.375 C 
BRANCH  21  22
HETATM   22  N   UNL     1       8.894  28.837  57.728  1.00  0.00     0.097 N 
HETATM   23  C   UNL     1       9.476  29.289  56.458  1.00  0.00     0.273 C 
HETATM   24  C   UNL     1      10.582  30.215  56.926  1.00  0.00     0.032 C 
HETATM   25  C   UNL     1      10.018  30.873  58.179  1.00  0.00     0.032 C 
HETATM   26  C   UNL     1       8.789  30.049  58.547  1.00  0.00     0.273 C 
ENDBRANCH  21  22
ENDBRANCH  18  21
ENDBRANCH  12  17
ENDBRANCH   1  11
BRANCH   3  27
HETATM   27  N   UNL     1       5.486  27.233  49.981  1.00  0.00    -0.340 N 
HETATM   28  H   UNL     1       6.072  28.005  49.685  1.00  0.00     0.167 HD
BRANCH  27  29
HETATM   29  C   UNL     1       4.378  27.033  49.119  1.00  0.00     0.034 A 
HETATM   30  C   UNL     1       3.967  25.745  48.740  1.00  0.00     0.032 A 
HETATM   31  C   UNL     1       2.892  25.524  47.869  1.00  0.00     0.034 A 
HETATM   32  C   UNL     1       2.247  26.653  47.368  1.00  0.00     0.062 A 
HETATM   33  N   UNL     1       1.181  26.792  46.520  1.00  0.00    -0.278 N 
HETATM   34  C   UNL     1       2.637  27.947  47.687  1.00  0.00     0.013 A 
HETATM   35  H   UNL     1       0.637  26.055  46.087  1.00  0.00     0.189 HD
HETATM   36  N   UNL     1       0.848  28.070  46.261  1.00  0.00    -0.186 NA
HETATM   37  C   UNL     1       1.738  28.770  46.971  1.00  0.00     0.152 A 
HETATM   38  C   UNL     1       3.725  28.147  48.559  1.00  0.00     0.044 A 
ENDBRANCH  27  29
ENDBRANCH   3  27
TORSDOF 6
ENDMDL
MODEL 5
REMARK VINA RESULT:      -9.5      2.916      5.978
REMARK  6 active torsions:
REMARK  status: ('A' for Active; 'I' for Inactive)
REMARK    1  A    between atoms: C_2  and  C_3 
REMARK       I    between atoms: C_2  and  N_9 
REMARK    2  A    between atoms: C_3  and  N_4 
REMARK    3  A    between atoms: N_9  and  C_10 
REMARK    4  A    between atoms: C_15  and  C_16 
REMARK    5  A    between atoms: C_18  and  N_19 
REMARK    6  A    between atoms: N_19  and  C_20 
ROOT
HETATM    1  C   UNL     1       4.937  27.365  51.463  1.00  0.00     0.164 A 
HETATM    2  N   UNL     1       6.061  26.692  51.742  1.00  0.00    -0.210 NA
HETATM    3  C   UNL     1       6.477  26.646  53.017  1.00  0.00     0.143 A 
HETATM    4  C   UNL     1       5.783  27.306  54.044  1.00  0.00     0.039 A 
HETATM    5  C   UNL     1       6.159  27.308  55.412  1.00  0.00     0.018 A 
HETATM    6  C   UNL     1       5.402  27.994  56.358  1.00  0.00     0.001 A 
HETATM    7  C   UNL     1       4.262  28.676  55.953  1.00  0.00     0.002 A 
HETATM    8  C   UNL     1       3.885  28.662  54.606  1.00  0.00     0.032 A 
HETATM    9  C   UNL     1       4.624  27.986  53.643  1.00  0.00     0.073 A 
HETATM   10  N   UNL     1       4.193  28.008  52.378  1.00  0.00    -0.228 NA
ENDROOT
BRANCH   1  11
HETATM   11  C   UNL     1       4.497  27.364  50.053  1.00  0.00     0.039 A 
HETATM   12  C   UNL     1       4.106  28.532  49.350  1.00  0.00     0.049 A 
HETATM   13  C   UNL     1       3.631  28.419  48.034  1.00  0.00     0.030 A 
HETATM   14  C   UNL     1       3.551  27.180  47.396  1.00  0.00     0.002 A 
HETATM   15  C   UNL     1       3.938  26.029  48.066  1.00  0.00     0.001 A 
HETATM   16  C   UNL     1       4.400  26.123  49.377  1.00  0.00     0.018 A 
BRANCH  12  17
HETATM   17  N   UNL     1       4.213  29.793  49.984  1.00  0.00    -0.325 N 
HETATM   18  C   UNL     1       5.336  30.583  50.139  1.00  0.00     0.250 C 
HETATM   19  O   UNL     1       6.444  30.385  49.646  1.00  0.00    -0.271 OA
HETATM   20  H   UNL     1       3.358  30.153  50.409  1.00  0.00     0.169 HD
BRANCH  18  21
HETATM   21  C   UNL     1       5.068  31.842  50.973  1.00  0.00     0.375 C 
BRANCH  21  22
HETATM   22  N   UNL     1       3.828  31.713  51.766  1.00  0.00     0.097 N 
HETATM   23  C   UNL     1       4.061  31.942  53.198  1.00  0.00     0.273 C 
HETATM   24  C   UNL     1       2.652  32.143  53.722  1.00  0.00     0.032 C 
HETATM   25  C   UNL     1       1.930  32.865  52.591  1.00  0.00     0.032 C 
HETATM   26  C   UNL     1       2.843  32.729  51.378  1.00  0.00     0.273 C 
ENDBRANCH  21  22
ENDBRANCH  18  21
ENDBRANCH  12  17
ENDBRANCH   1  11
BRANCH   3  27
HETATM   27  N   UNL     1       7.656  25.911  53.313  1.00  0.00    -0.340 N 
HETATM   28  H   UNL     1       8.357  26.108  52.609  1.00  0.00     0.167 HD
BRANCH  27  29
HETATM   29  C   UNL     1       7.706  24.568  53.766  1.00  0.00     0.034 A 
HETATM   30  C   UNL     1       7.578  24.248  55.127  1.00  0.00     0.032 A 
HETATM   31  C   UNL     1       7.651  22.932  55.601  1.00  0.00     0.034 A 
HETATM   32  C   UNL     1       7.881  21.936  54.654  1.00  0.00     0.062 A 
HETATM   33  N   UNL     1       7.999  20.576  54.772  1.00  0.00    -0.278 N 
HETATM   34  C   UNL     1       8.048  22.205  53.302  1.00  0.00     0.013 A 
HETATM   35  H   UNL     1       7.928  20.022  55.618  1.00  0.00     0.189 HD
HETATM   36  N   UNL     1       8.231  19.942  53.608  1.00  0.00    -0.186 NA
HETATM   37  C   UNL     1       8.262  20.936  52.717  1.00  0.00     0.152 A 
HETATM   38  C   UNL     1       7.978  23.537  52.848  1.00  0.00     0.044 A 
ENDBRANCH  27  29
ENDBRANCH   3  27
TORSDOF 6
ENDMDL
MODEL 6
REMARK VINA RESULT:      -9.4      2.435      4.955
REMARK  6 active torsions:
REMARK  status: ('A' for Active; 'I' for Inactive)
REMARK    1  A    between atoms: C_2  and  C_3 
REMARK       I    between atoms: C_2  and  N_9 
REMARK    2  A    between atoms: C_3  and  N_4 
REMARK    3  A    between atoms: N_9  and  C_10 
REMARK    4  A    between atoms: C_15  and  C_16 
REMARK    5  A    between atoms: C_18  and  N_19 
REMARK    6  A    between atoms: N_19  and  C_20 
ROOT
HETATM    1  C   UNL     1       7.677  28.541  56.240  1.00  0.00     0.164 A 
HETATM    2  N   UNL     1       7.665  27.227  56.499  1.00  0.00    -0.210 NA
HETATM    3  C   UNL     1       6.804  26.451  55.822  1.00  0.00     0.143 A 
HETATM    4  C   UNL     1       5.909  26.987  54.883  1.00  0.00     0.039 A 
HETATM    5  C   UNL     1       4.969  26.236  54.130  1.00  0.00     0.018 A 
HETATM    6  C   UNL     1       4.123  26.862  53.219  1.00  0.00     0.001 A 
HETATM    7  C   UNL     1       4.209  28.237  53.044  1.00  0.00     0.002 A 
HETATM    8  C   UNL     1       5.144  28.974  53.776  1.00  0.00     0.032 A 
HETATM    9  C   UNL     1       5.999  28.373  54.691  1.00  0.00     0.073 A 
HETATM   10  N   UNL     1       6.876  29.143  55.344  1.00  0.00    -0.228 NA
ENDROOT
BRANCH   1  11
HETATM   11  C   UNL     1       8.660  29.353  56.982  1.00  0.00     0.039 A 
HETATM   12  C   UNL     1       8.308  30.284  57.993  1.00  0.00     0.049 A 
HETATM   13  C   UNL     1       9.311  31.065  58.592  1.00  0.00     0.030 A 
HETATM   14  C   UNL     1      10.650  30.933  58.222  1.00  0.00     0.002 A 
HETATM   15  C   UNL     1      11.012  30.021  57.243  1.00  0.00     0.001 A 
HETATM   16  C   UNL     1      10.028  29.247  56.631  1.00  0.00     0.018 A 
BRANCH  12  17
HETATM   17  N   UNL     1       6.955  30.400  58.391  1.00  0.00    -0.325 N 
HETATM   18  C   UNL     1       6.041  31.380  58.053  1.00  0.00     0.250 C 
HETATM   19  O   UNL     1       6.207  32.286  57.239  1.00  0.00    -0.271 OA
HETATM   20  H   UNL     1       6.617  29.685  59.036  1.00  0.00     0.169 HD
BRANCH  18  21
HETATM   21  C   UNL     1       4.695  31.211  58.767  1.00  0.00     0.375 C 
BRANCH  21  22
HETATM   22  N   UNL     1       4.346  32.409  59.559  1.00  0.00     0.097 N 
HETATM   23  C   UNL     1       3.105  32.225  60.321  1.00  0.00     0.273 C 
HETATM   24  C   UNL     1       3.166  33.372  61.311  1.00  0.00     0.032 C 
HETATM   25  C   UNL     1       4.648  33.513  61.632  1.00  0.00     0.032 C 
HETATM   26  C   UNL     1       5.371  32.692  60.570  1.00  0.00     0.273 C 
ENDBRANCH  21  22
ENDBRANCH  18  21
ENDBRANCH  12  17
ENDBRANCH   1  11
BRANCH   3  27
HETATM   27  N   UNL     1       6.811  25.055  56.081  1.00  0.00    -0.340 N 
HETATM   28  H   UNL     1       7.033  24.899  57.058  1.00  0.00     0.167 HD
BRANCH  27  29
HETATM   29  C   UNL     1       7.355  24.054  55.236  1.00  0.00     0.034 A 
HETATM   30  C   UNL     1       7.744  24.340  53.918  1.00  0.00     0.032 A 
HETATM   31  C   UNL     1       8.259  23.364  53.056  1.00  0.00     0.034 A 
HETATM   32  C   UNL     1       8.353  22.068  53.561  1.00  0.00     0.062 A 
HETATM   33  N   UNL     1       8.808  20.903  53.002  1.00  0.00    -0.278 N 
HETATM   34  C   UNL     1       7.951  21.728  54.846  1.00  0.00     0.013 A 
HETATM   35  H   UNL     1       9.185  20.772  52.070  1.00  0.00     0.189 HD
HETATM   36  N   UNL     1       8.732  19.836  53.817  1.00  0.00    -0.186 NA
HETATM   37  C   UNL     1       8.208  20.342  54.937  1.00  0.00     0.152 A 
HETATM   38  C   UNL     1       7.429  22.725  55.693  1.00  0.00     0.044 A 
ENDBRANCH  27  29
ENDBRANCH   3  27
TORSDOF 6
ENDMDL
MODEL 7
REMARK VINA RESULT:      -9.4      3.073      6.272
REMARK  6 active torsions:
REMARK  status: ('A' for Active; 'I' for Inactive)
REMARK    1  A    between atoms: C_2  and  C_3 
REMARK       I    between atoms: C_2  and  N_9 
REMARK    2  A    between atoms: C_3  and  N_4 
REMARK    3  A    between atoms: N_9  and  C_10 
REMARK    4  A    between atoms: C_15  and  C_16 
REMARK    5  A    between atoms: C_18  and  N_19 
REMARK    6  A    between atoms: N_19  and  C_20 
ROOT
HETATM    1  C   UNL     1       5.191  27.321  51.492  1.00  0.00     0.164 A 
HETATM    2  N   UNL     1       6.282  26.642  51.869  1.00  0.00    -0.210 NA
HETATM    3  C   UNL     1       6.594  26.608  53.174  1.00  0.00     0.143 A 
HETATM    4  C   UNL     1       5.826  27.286  54.134  1.00  0.00     0.039 A 
HETATM    5  C   UNL     1       6.090  27.303  55.528  1.00  0.00     0.018 A 
HETATM    6  C   UNL     1       5.266  28.006  56.401  1.00  0.00     0.001 A 
HETATM    7  C   UNL     1       4.169  28.693  55.898  1.00  0.00     0.002 A 
HETATM    8  C   UNL     1       3.902  28.666  54.526  1.00  0.00     0.032 A 
HETATM    9  C   UNL     1       4.709  27.972  53.633  1.00  0.00     0.073 A 
HETATM   10  N   UNL     1       4.381  27.982  52.337  1.00  0.00    -0.228 NA
ENDROOT
BRANCH   1  11
HETATM   11  C   UNL     1       4.866  27.306  50.052  1.00  0.00     0.039 A 
HETATM   12  C   UNL     1       4.968  28.444  49.211  1.00  0.00     0.049 A 
HETATM   13  C   UNL     1       4.564  28.348  47.869  1.00  0.00     0.030 A 
HETATM   14  C   UNL     1       4.079  27.150  47.341  1.00  0.00     0.002 A 
HETATM   15  C   UNL     1       3.982  26.027  48.148  1.00  0.00     0.001 A 
HETATM   16  C   UNL     1       4.367  26.109  49.485  1.00  0.00     0.018 A 
BRANCH  12  17
HETATM   17  N   UNL     1       5.487  29.651  49.735  1.00  0.00    -0.325 N 
HETATM   18  C   UNL     1       4.811  30.820  50.032  1.00  0.00     0.250 C 
HETATM   19  O   UNL     1       3.594  30.989  50.002  1.00  0.00    -0.271 OA
HETATM   20  H   UNL     1       6.497  29.676  49.884  1.00  0.00     0.169 HD
BRANCH  18  21
HETATM   21  C   UNL     1       5.744  31.947  50.492  1.00  0.00     0.375 C 
BRANCH  21  22
HETATM   22  N   UNL     1       5.643  33.128  49.610  1.00  0.00     0.097 N 
HETATM   23  C   UNL     1       6.052  34.363  50.292  1.00  0.00     0.273 C 
HETATM   24  C   UNL     1       6.238  35.321  49.131  1.00  0.00     0.032 C 
HETATM   25  C   UNL     1       6.780  34.449  48.006  1.00  0.00     0.032 C 
HETATM   26  C   UNL     1       6.551  33.012  48.464  1.00  0.00     0.273 C 
ENDBRANCH  21  22
ENDBRANCH  18  21
ENDBRANCH  12  17
ENDBRANCH   1  11
BRANCH   3  27
HETATM   27  N   UNL     1       7.737  25.867  53.573  1.00  0.00    -0.340 N 
HETATM   28  H   UNL     1       8.520  26.115  52.978  1.00  0.00     0.167 HD
BRANCH  27  29
HETATM   29  C   UNL     1       7.753  24.498  53.944  1.00  0.00     0.034 A 
HETATM   30  C   UNL     1       7.519  24.095  55.268  1.00  0.00     0.032 A 
HETATM   31  C   UNL     1       7.555  22.752  55.665  1.00  0.00     0.034 A 
HETATM   32  C   UNL     1       7.859  21.815  54.678  1.00  0.00     0.062 A 
HETATM   33  N   UNL     1       7.968  20.450  54.721  1.00  0.00    -0.278 N 
HETATM   34  C   UNL     1       8.132  22.167  53.363  1.00  0.00     0.013 A 
HETATM   35  H   UNL     1       7.832  19.845  55.523  1.00  0.00     0.189 HD
HETATM   36  N   UNL     1       8.291  19.888  53.542  1.00  0.00    -0.186 NA
HETATM   37  C   UNL     1       8.392  20.935  52.719  1.00  0.00     0.152 A 
HETATM   38  C   UNL     1       8.097  23.524  52.988  1.00  0.00     0.044 A 
ENDBRANCH  27  29
ENDBRANCH   3  27
TORSDOF 6
ENDMDL
MODEL 8
REMARK VINA RESULT:      -9.0      2.486      5.831
REMARK  6 active torsions:
REMARK  status: ('A' for Active; 'I' for Inactive)
REMARK    1  A    between atoms: C_2  and  C_3 
REMARK       I    between atoms: C_2  and  N_9 
REMARK    2  A    between atoms: C_3  and  N_4 
REMARK    3  A    between atoms: N_9  and  C_10 
REMARK    4  A    between atoms: C_15  and  C_16 
REMARK    5  A    between atoms: C_18  and  N_19 
REMARK    6  A    between atoms: N_19  and  C_20 
ROOT
HETATM    1  C   UNL     1       5.371  28.006  55.105  1.00  0.00     0.164 A 
HETATM    2  N   UNL     1       5.540  28.020  53.777  1.00  0.00    -0.210 NA
HETATM    3  C   UNL     1       4.959  29.002  53.070  1.00  0.00     0.143 A 
HETATM    4  C   UNL     1       4.165  29.983  53.685  1.00  0.00     0.039 A 
HETATM    5  C   UNL     1       3.516  31.049  53.009  1.00  0.00     0.018 A 
HETATM    6  C   UNL     1       2.749  31.975  53.710  1.00  0.00     0.001 A 
HETATM    7  C   UNL     1       2.628  31.854  55.088  1.00  0.00     0.002 A 
HETATM    8  C   UNL     1       3.278  30.811  55.755  1.00  0.00     0.032 A 
HETATM    9  C   UNL     1       4.048  29.874  55.078  1.00  0.00     0.073 A 
HETATM   10  N   UNL     1       4.650  28.913  55.786  1.00  0.00    -0.228 NA
ENDROOT
BRANCH   1  11
HETATM   11  C   UNL     1       6.054  26.928  55.848  1.00  0.00     0.039 A 
HETATM   12  C   UNL     1       6.810  27.144  57.029  1.00  0.00     0.049 A 
HETATM   13  C   UNL     1       7.485  26.065  57.623  1.00  0.00     0.030 A 
HETATM   14  C   UNL     1       7.414  24.780  57.083  1.00  0.00     0.002 A 
HETATM   15  C   UNL     1       6.672  24.550  55.935  1.00  0.00     0.001 A 
HETATM   16  C   UNL     1       6.006  25.613  55.326  1.00  0.00     0.018 A 
BRANCH  12  17
HETATM   17  N   UNL     1       6.860  28.440  57.596  1.00  0.00    -0.325 N 
HETATM   18  C   UNL     1       7.971  29.213  57.875  1.00  0.00     0.250 C 
HETATM   19  O   UNL     1       9.134  28.959  57.572  1.00  0.00    -0.271 OA
HETATM   20  H   UNL     1       5.961  28.845  57.863  1.00  0.00     0.169 HD
BRANCH  18  21
HETATM   21  C   UNL     1       7.619  30.527  58.582  1.00  0.00     0.375 C 
BRANCH  21  22
HETATM   22  N   UNL     1       8.405  30.704  59.821  1.00  0.00     0.097 N 
HETATM   23  C   UNL     1       9.490  31.679  59.653  1.00  0.00     0.273 C 
HETATM   24  C   UNL     1       9.879  31.973  61.089  1.00  0.00     0.032 C 
HETATM   25  C   UNL     1       8.565  31.905  61.856  1.00  0.00     0.032 C 
HETATM   26  C   UNL     1       7.574  31.248  60.902  1.00  0.00     0.273 C 
ENDBRANCH  21  22
ENDBRANCH  18  21
ENDBRANCH  12  17
ENDBRANCH   1  11
BRANCH   3  27
HETATM   27  N   UNL     1       5.160  29.027  51.664  1.00  0.00    -0.340 N 
HETATM   28  H   UNL     1       5.272  29.988  51.361  1.00  0.00     0.167 HD
BRANCH  27  29
HETATM   29  C   UNL     1       4.469  28.237  50.711  1.00  0.00     0.034 A 
HETATM   30  C   UNL     1       5.014  27.039  50.219  1.00  0.00     0.032 A 
HETATM   31  C   UNL     1       4.363  26.255  49.259  1.00  0.00     0.034 A 
HETATM   32  C   UNL     1       3.141  26.728  48.785  1.00  0.00     0.062 A 
HETATM   33  N   UNL     1       2.258  26.217  47.870  1.00  0.00    -0.278 N 
HETATM   34  C   UNL     1       2.577  27.922  49.215  1.00  0.00     0.013 A 
HETATM   35  H   UNL     1       2.341  25.350  47.352  1.00  0.00     0.189 HD
HETATM   36  N   UNL     1       1.170  26.983  47.670  1.00  0.00    -0.186 NA
HETATM   37  C   UNL     1       1.369  28.020  48.489  1.00  0.00     0.152 A 
HETATM   38  C   UNL     1       3.252  28.699  50.177  1.00  0.00     0.044 A 
ENDBRANCH  27  29
ENDBRANCH   3  27
TORSDOF 6
ENDMDL
MODEL 9
REMARK VINA RESULT:      -9.0      1.892      6.096
REMARK  6 active torsions:
REMARK  status: ('A' for Active; 'I' for Inactive)
REMARK    1  A    between atoms: C_2  and  C_3 
REMARK       I    between atoms: C_2  and  N_9 
REMARK    2  A    between atoms: C_3  and  N_4 
REMARK    3  A    between atoms: N_9  and  C_10 
REMARK    4  A    between atoms: C_15  and  C_16 
REMARK    5  A    between atoms: C_18  and  N_19 
REMARK    6  A    between atoms: N_19  and  C_20 
ROOT
HETATM    1  C   UNL     1       5.801  26.428  52.726  1.00  0.00     0.164 A 
HETATM    2  N   UNL     1       5.899  26.890  53.980  1.00  0.00    -0.210 NA
HETATM    3  C   UNL     1       6.641  26.198  54.859  1.00  0.00     0.143 A 
HETATM    4  C   UNL     1       7.282  25.001  54.502  1.00  0.00     0.039 A 
HETATM    5  C   UNL     1       8.078  24.211  55.372  1.00  0.00     0.018 A 
HETATM    6  C   UNL     1       8.675  23.037  54.922  1.00  0.00     0.001 A 
HETATM    7  C   UNL     1       8.491  22.642  53.603  1.00  0.00     0.002 A 
HETATM    8  C   UNL     1       7.717  23.427  52.743  1.00  0.00     0.032 A 
HETATM    9  C   UNL     1       7.110  24.603  53.169  1.00  0.00     0.073 A 
HETATM   10  N   UNL     1       6.396  25.307  52.284  1.00  0.00    -0.228 NA
ENDROOT
BRANCH   1  11
HETATM   11  C   UNL     1       5.003  27.236  51.784  1.00  0.00     0.039 A 
HETATM   12  C   UNL     1       4.042  28.197  52.190  1.00  0.00     0.049 A 
HETATM   13  C   UNL     1       3.279  28.864  51.218  1.00  0.00     0.030 A 
HETATM   14  C   UNL     1       3.457  28.611  49.856  1.00  0.00     0.002 A 
HETATM   15  C   UNL     1       4.399  27.681  49.442  1.00  0.00     0.001 A 
HETATM   16  C   UNL     1       5.156  27.002  50.395  1.00  0.00     0.018 A 
BRANCH  12  17
HETATM   17  N   UNL     1       3.879  28.478  53.567  1.00  0.00    -0.325 N 
HETATM   18  C   UNL     1       3.999  29.692  54.217  1.00  0.00     0.250 C 
HETATM   19  O   UNL     1       4.160  30.791  53.690  1.00  0.00    -0.271 OA
HETATM   20  H   UNL     1       3.677  27.675  54.166  1.00  0.00     0.169 HD
BRANCH  18  21
HETATM   21  C   UNL     1       3.845  29.571  55.738  1.00  0.00     0.375 C 
BRANCH  21  22
HETATM   22  N   UNL     1       4.101  30.861  56.413  1.00  0.00     0.097 N 
HETATM   23  C   UNL     1       3.531  30.898  57.766  1.00  0.00     0.273 C 
HETATM   24  C   UNL     1       4.231  32.099  58.373  1.00  0.00     0.032 C 
HETATM   25  C   UNL     1       5.626  32.068  57.763  1.00  0.00     0.032 C 
HETATM   26  C   UNL     1       5.538  31.082  56.604  1.00  0.00     0.273 C 
ENDBRANCH  21  22
ENDBRANCH  18  21
ENDBRANCH  12  17
ENDBRANCH   1  11
BRANCH   3  27
HETATM   27  N   UNL     1       6.762  26.703  56.181  1.00  0.00    -0.340 N 
HETATM   28  H   UNL     1       5.849  26.709  56.620  1.00  0.00     0.167 HD
BRANCH  27  29
HETATM   29  C   UNL     1       7.561  27.805  56.579  1.00  0.00     0.034 A 
HETATM   30  C   UNL     1       8.524  28.361  55.722  1.00  0.00     0.032 A 
HETATM   31  C   UNL     1       9.343  29.432  56.103  1.00  0.00     0.034 A 
HETATM   32  C   UNL     1       9.175  29.921  57.397  1.00  0.00     0.062 A 
HETATM   33  N   UNL     1       9.792  30.940  58.073  1.00  0.00    -0.278 N 
HETATM   34  C   UNL     1       8.260  29.384  58.293  1.00  0.00     0.013 A 
HETATM   35  H   UNL     1      10.516  31.559  57.728  1.00  0.00     0.189 HD
HETATM   36  N   UNL     1       9.354  31.107  59.334  1.00  0.00    -0.186 NA
HETATM   37  C   UNL     1       8.423  30.157  59.465  1.00  0.00     0.152 A 
HETATM   38  C   UNL     1       7.452  28.302  57.891  1.00  0.00     0.044 A 
ENDBRANCH  27  29
ENDBRANCH   3  27
TORSDOF 6
ENDMDL
MODEL 10
REMARK VINA RESULT:      -8.9      3.079      8.407
REMARK  6 active torsions:
REMARK  status: ('A' for Active; 'I' for Inactive)
REMARK    1  A    between atoms: C_2  and  C_3 
REMARK       I    between atoms: C_2  and  N_9 
REMARK    2  A    between atoms: C_3  and  N_4 
REMARK    3  A    between atoms: N_9  and  C_10 
REMARK    4  A    between atoms: C_15  and  C_16 
REMARK    5  A    between atoms: C_18  and  N_19 
REMARK    6  A    between atoms: N_19  and  C_20 
ROOT
HETATM    1  C   UNL     1       6.936  27.673  56.786  1.00  0.00     0.164 A 
HETATM    2  N   UNL     1       7.740  28.616  57.294  1.00  0.00    -0.210 NA
HETATM    3  C   UNL     1       7.219  29.825  57.558  1.00  0.00     0.143 A 
HETATM    4  C   UNL     1       5.874  30.123  57.289  1.00  0.00     0.039 A 
HETATM    5  C   UNL     1       5.249  31.373  57.536  1.00  0.00     0.018 A 
HETATM    6  C   UNL     1       3.905  31.570  57.235  1.00  0.00     0.001 A 
HETATM    7  C   UNL     1       3.169  30.525  56.692  1.00  0.00     0.002 A 
HETATM    8  C   UNL     1       3.781  29.289  56.461  1.00  0.00     0.032 A 
HETATM    9  C   UNL     1       5.121  29.068  56.753  1.00  0.00     0.073 A 
HETATM   10  N   UNL     1       5.633  27.855  56.516  1.00  0.00    -0.228 NA
ENDROOT
BRANCH   1  11
HETATM   11  C   UNL     1       7.542  26.350  56.540  1.00  0.00     0.039 A 
HETATM   12  C   UNL     1       7.344  25.603  55.350  1.00  0.00     0.049 A 
HETATM   13  C   UNL     1       7.902  24.319  55.239  1.00  0.00     0.030 A 
HETATM   14  C   UNL     1       8.662  23.768  56.272  1.00  0.00     0.002 A 
HETATM   15  C   UNL     1       8.873  24.488  57.438  1.00  0.00     0.001 A 
HETATM   16  C   UNL     1       8.316  25.759  57.568  1.00  0.00     0.018 A 
BRANCH  12  17
HETATM   17  N   UNL     1       6.599  26.171  54.289  1.00  0.00    -0.325 N 
HETATM   18  C   UNL     1       5.907  25.524  53.283  1.00  0.00     0.250 C 
HETATM   19  O   UNL     1       5.713  24.314  53.189  1.00  0.00    -0.271 OA
HETATM   20  H   UNL     1       6.597  27.191  54.241  1.00  0.00     0.169 HD
BRANCH  18  21
HETATM   21  C   UNL     1       5.304  26.491  52.257  1.00  0.00     0.375 C 
BRANCH  21  22
HETATM   22  N   UNL     1       5.000  27.804  52.863  1.00  0.00     0.097 N 
HETATM   23  C   UNL     1       5.514  28.918  52.056  1.00  0.00     0.273 C 
HETATM   24  C   UNL     1       4.770  30.104  52.639  1.00  0.00     0.032 C 
HETATM   25  C   UNL     1       3.401  29.546  53.006  1.00  0.00     0.032 C 
HETATM   26  C   UNL     1       3.553  28.030  52.938  1.00  0.00     0.273 C 
ENDBRANCH  21  22
ENDBRANCH  18  21
ENDBRANCH  12  17
ENDBRANCH   1  11
BRANCH   3  27
HETATM   27  N   UNL     1       8.068  30.815  58.119  1.00  0.00    -0.340 N 
HETATM   28  H   UNL     1       8.981  30.757  57.683  1.00  0.00     0.167 HD
BRANCH  27  29
HETATM   29  C   UNL     1       8.145  31.164  59.491  1.00  0.00     0.034 A 
HETATM   30  C   UNL     1       8.962  30.452  60.384  1.00  0.00     0.032 A 
HETATM   31  C   UNL     1       9.036  30.761  61.748  1.00  0.00     0.034 A 
HETATM   32  C   UNL     1       8.235  31.810  62.198  1.00  0.00     0.062 A 
HETATM   33  N   UNL     1       8.073  32.364  63.440  1.00  0.00    -0.278 N 
HETATM   34  C   UNL     1       7.386  32.522  61.361  1.00  0.00     0.013 A 
HETATM   35  H   UNL     1       8.540  32.099  64.299  1.00  0.00     0.189 HD
HETATM   36  N   UNL     1       7.187  33.376  63.478  1.00  0.00    -0.186 NA
HETATM   37  C   UNL     1       6.770  33.468  62.212  1.00  0.00     0.152 A 
HETATM   38  C   UNL     1       7.323  32.189  59.994  1.00  0.00     0.044 A 
ENDBRANCH  27  29
ENDBRANCH   3  27
TORSDOF 6
ENDMDL
