MODEL 1
REMARK VINA RESULT:      -7.2      0.000      0.000
REMARK  2 active torsions:
REMARK  status: ('A' for Active; 'I' for Inactive)
REMARK    1  A    between atoms: N_6  and  C_7 
REMARK    2  A    between atoms: C_12  and  N_13 
ROOT
HETATM    1  C   UNL     1       7.573  24.544  53.904  1.00  0.00     0.070 A 
HETATM    2  C   UNL     1       7.852  23.324  53.241  1.00  0.00     0.162 A 
HETATM    3  F   UNL     1       7.889  23.307  51.896  1.00  0.00    -0.202 F 
HETATM    4  C   UNL     1       8.049  22.115  53.923  1.00  0.00     0.084 A 
HETATM    5 BR   UNL     1       8.444  20.560  52.909  1.00  0.00    -0.045 Br
HETATM    6  C   UNL     1       7.965  22.123  55.309  1.00  0.00     0.123 A 
HETATM    7  C   UNL     1       7.708  23.301  56.015  1.00  0.00     0.040 A 
HETATM    8  C   UNL     1       7.520  24.495  55.311  1.00  0.00     0.035 A 
ENDROOT
BRANCH   1   9
HETATM    9  N   UNL     1       7.407  25.774  53.256  1.00  0.00    -0.375 N 
HETATM   10  C   UNL     1       7.566  27.014  54.045  1.00  0.00     0.150 C 
HETATM   11  C   UNL     1       6.192  27.563  54.494  1.00  0.00     0.254 C 
HETATM   12  N   UNL     1       5.264  27.743  53.293  1.00  0.00    -0.072 N 
HETATM   13  C   UNL     1       3.935  28.312  53.691  1.00  0.00     0.269 C 
HETATM   14  H   UNL     1       5.711  28.418  52.659  1.00  0.00     0.279 HD
HETATM   15  C   UNL     1       5.114  26.431  52.514  1.00  0.00     0.254 C 
HETATM   16  C   UNL     1       6.502  25.903  52.094  1.00  0.00     0.150 C 
ENDBRANCH   1   9
BRANCH   6  17
HETATM   17  N   UNL     1       8.131  20.909  56.074  1.00  0.00    -0.114 N 
HETATM   18  O   UNL     1       9.282  20.628  56.431  1.00  0.00    -0.532 OA
HETATM   19  O   UNL     1       7.116  20.227  56.261  1.00  0.00    -0.532 OA
ENDBRANCH   6  17
TORSDOF 2
ENDMDL
MODEL 2
REMARK VINA RESULT:      -6.8      3.106      3.928
REMARK  2 active torsions:
REMARK  status: ('A' for Active; 'I' for Inactive)
REMARK    1  A    between atoms: N_6  and  C_7 
REMARK    2  A    between atoms: C_12  and  N_13 
ROOT
HETATM    1  C   UNL     1       7.608  26.417  55.983  1.00  0.00     0.070 A 
HETATM    2  C   UNL     1       7.392  25.663  54.804  1.00  0.00     0.162 A 
HETATM    3  F   UNL     1       6.779  26.249  53.759  1.00  0.00    -0.202 F 
HETATM    4  C   UNL     1       7.750  24.313  54.687  1.00  0.00     0.084 A 
HETATM    5 BR   UNL     1       7.429  23.431  53.037  1.00  0.00    -0.045 Br
HETATM    6  C   UNL     1       8.341  23.694  55.782  1.00  0.00     0.123 A 
HETATM    7  C   UNL     1       8.591  24.394  56.964  1.00  0.00     0.040 A 
HETATM    8  C   UNL     1       8.229  25.742  57.053  1.00  0.00     0.035 A 
ENDROOT
BRANCH   1   9
HETATM    9  N   UNL     1       7.295  27.775  56.120  1.00  0.00    -0.375 N 
HETATM   10  C   UNL     1       8.067  28.759  55.332  1.00  0.00     0.150 C 
HETATM   11  C   UNL     1       9.196  29.385  56.183  1.00  0.00     0.254 C 
HETATM   12  N   UNL     1       8.633  29.975  57.476  1.00  0.00    -0.072 N 
HETATM   13  C   UNL     1       9.698  30.625  58.307  1.00  0.00     0.269 C 
HETATM   14  H   UNL     1       7.959  30.705  57.211  1.00  0.00     0.279 HD
HETATM   15  C   UNL     1       7.856  28.918  58.269  1.00  0.00     0.254 C 
HETATM   16  C   UNL     1       6.748  28.303  57.387  1.00  0.00     0.150 C 
ENDBRANCH   1   9
BRANCH   6  17
HETATM   17  N   UNL     1       8.710  22.299  55.741  1.00  0.00    -0.114 N 
HETATM   18  O   UNL     1       8.006  21.517  56.392  1.00  0.00    -0.532 OA
HETATM   19  O   UNL     1       9.729  22.011  55.102  1.00  0.00    -0.532 OA
ENDBRANCH   6  17
TORSDOF 2
ENDMDL
MODEL 3
REMARK VINA RESULT:      -6.8      2.207      2.719
REMARK  2 active torsions:
REMARK  status: ('A' for Active; 'I' for Inactive)
REMARK    1  A    between atoms: N_6  and  C_7 
REMARK    2  A    between atoms: C_12  and  N_13 
ROOT
HETATM    1  C   UNL     1       7.194  24.207  54.734  1.00  0.00     0.070 A 
HETATM    2  C   UNL     1       7.546  23.220  55.686  1.00  0.00     0.162 A 
HETATM    3  F   UNL     1       7.505  23.531  56.993  1.00  0.00    -0.202 F 
HETATM    4  C   UNL     1       7.980  21.936  55.325  1.00  0.00     0.084 A 
HETATM    5 BR   UNL     1       8.392  20.700  56.706  1.00  0.00    -0.045 Br
HETATM    6  C   UNL     1       8.067  21.629  53.973  1.00  0.00     0.123 A 
HETATM    7  C   UNL     1       7.718  22.560  52.992  1.00  0.00     0.040 A 
HETATM    8  C   UNL     1       7.283  23.832  53.379  1.00  0.00     0.035 A 
ENDROOT
BRANCH   1   9
HETATM    9  N   UNL     1       6.724  25.485  55.060  1.00  0.00    -0.375 N 
HETATM   10  C   UNL     1       5.291  25.784  54.849  1.00  0.00     0.150 C 
HETATM   11  C   UNL     1       5.073  26.525  53.510  1.00  0.00     0.254 C 
HETATM   12  N   UNL     1       5.954  27.773  53.434  1.00  0.00    -0.072 N 
HETATM   13  C   UNL     1       5.736  28.537  52.162  1.00  0.00     0.269 C 
HETATM   14  H   UNL     1       5.682  28.387  54.213  1.00  0.00     0.279 HD
HETATM   15  C   UNL     1       7.430  27.416  53.641  1.00  0.00     0.254 C 
HETATM   16  C   UNL     1       7.611  26.664  54.977  1.00  0.00     0.150 C 
ENDBRANCH   1   9
BRANCH   6  17
HETATM   17  N   UNL     1       8.533  20.335  53.530  1.00  0.00    -0.114 N 
HETATM   18  O   UNL     1       9.111  19.634  54.370  1.00  0.00    -0.532 OA
HETATM   19  O   UNL     1       8.361  20.060  52.337  1.00  0.00    -0.532 OA
ENDBRANCH   6  17
TORSDOF 2
ENDMDL
MODEL 4
REMARK VINA RESULT:      -6.8      1.332      1.664
REMARK  2 active torsions:
REMARK  status: ('A' for Active; 'I' for Inactive)
REMARK    1  A    between atoms: N_6  and  C_7 
REMARK    2  A    between atoms: C_12  and  N_13 
ROOT
HETATM    1  C   UNL     1       7.784  24.888  55.211  1.00  0.00     0.070 A 
HETATM    2  C   UNL     1       7.846  23.891  54.207  1.00  0.00     0.162 A 
HETATM    3  F   UNL     1       7.647  24.245  52.924  1.00  0.00    -0.202 F 
HETATM    4  C   UNL     1       8.062  22.535  54.493  1.00  0.00     0.084 A 
HETATM    5 BR   UNL     1       8.150  21.309  53.046  1.00  0.00    -0.045 Br
HETATM    6  C   UNL     1       8.220  22.163  55.822  1.00  0.00     0.123 A 
HETATM    7  C   UNL     1       8.184  23.107  56.851  1.00  0.00     0.040 A 
HETATM    8  C   UNL     1       7.972  24.453  56.538  1.00  0.00     0.035 A 
ENDROOT
BRANCH   1   9
HETATM    9  N   UNL     1       7.606  26.253  54.957  1.00  0.00    -0.375 N 
HETATM   10  C   UNL     1       7.723  27.202  56.085  1.00  0.00     0.150 C 
HETATM   11  C   UNL     1       6.329  27.572  56.641  1.00  0.00     0.254 C 
HETATM   12  N   UNL     1       5.423  28.091  55.525  1.00  0.00    -0.072 N 
HETATM   13  C   UNL     1       4.074  28.497  56.041  1.00  0.00     0.269 C 
HETATM   14  H   UNL     1       5.869  28.931  55.134  1.00  0.00     0.279 HD
HETATM   15  C   UNL     1       5.316  27.072  54.386  1.00  0.00     0.254 C 
HETATM   16  C   UNL     1       6.723  26.712  53.864  1.00  0.00     0.150 C 
ENDBRANCH   1   9
BRANCH   6  17
HETATM   17  N   UNL     1       8.419  20.780  56.190  1.00  0.00    -0.114 N 
HETATM   18  O   UNL     1       7.404  20.120  56.445  1.00  0.00    -0.532 OA
HETATM   19  O   UNL     1       9.589  20.389  56.272  1.00  0.00    -0.532 OA
ENDBRANCH   6  17
TORSDOF 2
ENDMDL
MODEL 5
REMARK VINA RESULT:      -6.8      2.450      3.039
REMARK  2 active torsions:
REMARK  status: ('A' for Active; 'I' for Inactive)
REMARK    1  A    between atoms: N_6  and  C_7 
REMARK    2  A    between atoms: C_12  and  N_13 
ROOT
HETATM    1  C   UNL     1       7.305  25.773  53.856  1.00  0.00     0.070 A 
HETATM    2  C   UNL     1       7.593  25.007  55.012  1.00  0.00     0.162 A 
HETATM    3  F   UNL     1       7.548  25.603  56.217  1.00  0.00    -0.202 F 
HETATM    4  C   UNL     1       7.969  23.657  54.956  1.00  0.00     0.084 A 
HETATM    5 BR   UNL     1       8.298  22.742  56.586  1.00  0.00    -0.045 Br
HETATM    6  C   UNL     1       8.062  23.054  53.708  1.00  0.00     0.123 A 
HETATM    7  C   UNL     1       7.774  23.758  52.537  1.00  0.00     0.040 A 
HETATM    8  C   UNL     1       7.397  25.102  52.621  1.00  0.00     0.035 A 
ENDROOT
BRANCH   1   9
HETATM    9  N   UNL     1       6.893  27.111  53.879  1.00  0.00    -0.375 N 
HETATM   10  C   UNL     1       7.916  28.161  54.079  1.00  0.00     0.150 C 
HETATM   11  C   UNL     1       7.965  28.609  55.558  1.00  0.00     0.254 C 
HETATM   12  N   UNL     1       6.579  29.036  56.039  1.00  0.00    -0.072 N 
HETATM   13  C   UNL     1       6.600  29.514  57.460  1.00  0.00     0.269 C 
HETATM   14  H   UNL     1       6.281  29.827  55.452  1.00  0.00     0.279 HD
HETATM   15  C   UNL     1       5.555  27.915  55.829  1.00  0.00     0.254 C 
HETATM   16  C   UNL     1       5.541  27.481  54.348  1.00  0.00     0.150 C 
ENDBRANCH   1   9
BRANCH   6  17
HETATM   17  N   UNL     1       8.470  21.675  53.575  1.00  0.00    -0.114 N 
HETATM   18  O   UNL     1       9.686  21.448  53.605  1.00  0.00    -0.532 OA
HETATM   19  O   UNL     1       7.572  20.844  53.389  1.00  0.00    -0.532 OA
ENDBRANCH   6  17
TORSDOF 2
ENDMDL
MODEL 6
REMARK VINA RESULT:      -6.6      6.306      7.728
REMARK  2 active torsions:
REMARK  status: ('A' for Active; 'I' for Inactive)
REMARK    1  A    between atoms: N_6  and  C_7 
REMARK    2  A    between atoms: C_12  and  N_13 
ROOT
HETATM    1  C   UNL     1       6.974  28.586  56.821  1.00  0.00     0.070 A 
HETATM    2  C   UNL     1       6.434  29.691  57.523  1.00  0.00     0.162 A 
HETATM    3  F   UNL     1       5.112  29.926  57.451  1.00  0.00    -0.202 F 
HETATM    4  C   UNL     1       7.225  30.584  58.261  1.00  0.00     0.084 A 
HETATM    5 BR   UNL     1       6.367  32.006  59.178  1.00  0.00    -0.045 Br
HETATM    6  C   UNL     1       8.597  30.368  58.297  1.00  0.00     0.123 A 
HETATM    7  C   UNL     1       9.181  29.286  57.635  1.00  0.00     0.040 A 
HETATM    8  C   UNL     1       8.368  28.407  56.910  1.00  0.00     0.035 A 
ENDROOT
BRANCH   1   9
HETATM    9  N   UNL     1       6.209  27.656  56.106  1.00  0.00    -0.375 N 
HETATM   10  C   UNL     1       5.390  26.685  56.863  1.00  0.00     0.150 C 
HETATM   11  C   UNL     1       6.121  25.328  56.989  1.00  0.00     0.254 C 
HETATM   12  N   UNL     1       6.532  24.807  55.613  1.00  0.00    -0.072 N 
HETATM   13  C   UNL     1       7.209  23.471  55.698  1.00  0.00     0.269 C 
HETATM   14  H   UNL     1       5.672  24.682  55.063  1.00  0.00     0.279 HD
HETATM   15  C   UNL     1       7.392  25.836  54.870  1.00  0.00     0.254 C 
HETATM   16  C   UNL     1       6.642  27.182  54.775  1.00  0.00     0.150 C 
ENDBRANCH   1   9
BRANCH   6  17
HETATM   17  N   UNL     1       9.475  31.264  59.013  1.00  0.00    -0.114 N 
HETATM   18  O   UNL     1      10.087  32.102  58.340  1.00  0.00    -0.532 OA
HETATM   19  O   UNL     1       9.579  31.084  60.232  1.00  0.00    -0.532 OA
ENDBRANCH   6  17
TORSDOF 2
ENDMDL
MODEL 7
REMARK VINA RESULT:      -6.4      5.768      7.181
REMARK  2 active torsions:
REMARK  status: ('A' for Active; 'I' for Inactive)
REMARK    1  A    between atoms: N_6  and  C_7 
REMARK    2  A    between atoms: C_12  and  N_13 
ROOT
HETATM    1  C   UNL     1       6.810  29.014  56.598  1.00  0.00     0.070 A 
HETATM    2  C   UNL     1       8.221  29.039  56.479  1.00  0.00     0.162 A 
HETATM    3  F   UNL     1       8.808  28.290  55.528  1.00  0.00    -0.202 F 
HETATM    4  C   UNL     1       9.044  29.779  57.339  1.00  0.00     0.084 A 
HETATM    5 BR   UNL     1      10.920  29.745  57.047  1.00  0.00    -0.045 Br
HETATM    6  C   UNL     1       8.441  30.516  58.351  1.00  0.00     0.123 A 
HETATM    7  C   UNL     1       7.053  30.539  58.505  1.00  0.00     0.040 A 
HETATM    8  C   UNL     1       6.254  29.796  57.629  1.00  0.00     0.035 A 
ENDROOT
BRANCH   1   9
HETATM    9  N   UNL     1       5.958  28.315  55.735  1.00  0.00    -0.375 N 
HETATM   10  C   UNL     1       5.781  26.861  55.942  1.00  0.00     0.150 C 
HETATM   11  C   UNL     1       6.690  26.053  54.989  1.00  0.00     0.254 C 
HETATM   12  N   UNL     1       6.461  26.474  53.537  1.00  0.00    -0.072 N 
HETATM   13  C   UNL     1       7.301  25.679  52.583  1.00  0.00     0.269 C 
HETATM   14  H   UNL     1       5.476  26.281  53.315  1.00  0.00     0.279 HD
HETATM   15  C   UNL     1       6.671  27.982  53.364  1.00  0.00     0.254 C 
HETATM   16  C   UNL     1       5.761  28.759  54.339  1.00  0.00     0.150 C 
ENDBRANCH   1   9
BRANCH   6  17
HETATM   17  N   UNL     1       9.230  31.279  59.290  1.00  0.00    -0.114 N 
HETATM   18  O   UNL     1       9.457  30.751  60.385  1.00  0.00    -0.532 OA
HETATM   19  O   UNL     1       9.566  32.416  58.939  1.00  0.00    -0.532 OA
ENDBRANCH   6  17
TORSDOF 2
ENDMDL
MODEL 8
REMARK VINA RESULT:      -6.3      4.428      5.213
REMARK  2 active torsions:
REMARK  status: ('A' for Active; 'I' for Inactive)
REMARK    1  A    between atoms: N_6  and  C_7 
REMARK    2  A    between atoms: C_12  and  N_13 
ROOT
HETATM    1  C   UNL     1       5.661  27.179  54.634  1.00  0.00     0.070 A 
HETATM    2  C   UNL     1       6.363  26.269  55.463  1.00  0.00     0.162 A 
HETATM    3  F   UNL     1       6.056  24.961  55.401  1.00  0.00    -0.202 F 
HETATM    4  C   UNL     1       7.340  26.676  56.383  1.00  0.00     0.084 A 
HETATM    5 BR   UNL     1       8.223  25.347  57.410  1.00  0.00    -0.045 Br
HETATM    6  C   UNL     1       7.624  28.033  56.480  1.00  0.00     0.123 A 
HETATM    7  C   UNL     1       6.973  28.971  55.677  1.00  0.00     0.040 A 
HETATM    8  C   UNL     1       6.006  28.538  54.763  1.00  0.00     0.035 A 
ENDROOT
BRANCH   1   9
HETATM    9  N   UNL     1       4.707  26.802  53.681  1.00  0.00    -0.375 N 
HETATM   10  C   UNL     1       5.033  25.697  52.755  1.00  0.00     0.150 C 
HETATM   11  C   UNL     1       5.532  26.244  51.397  1.00  0.00     0.254 C 
HETATM   12  N   UNL     1       4.522  27.229  50.808  1.00  0.00    -0.072 N 
HETATM   13  C   UNL     1       4.958  27.747  49.471  1.00  0.00     0.269 C 
HETATM   14  H   UNL     1       3.641  26.716  50.668  1.00  0.00     0.279 HD
HETATM   15  C   UNL     1       4.226  28.365  51.793  1.00  0.00     0.254 C 
HETATM   16  C   UNL     1       3.746  27.786  53.141  1.00  0.00     0.150 C 
ENDBRANCH   1   9
BRANCH   6  17
HETATM   17  N   UNL     1       8.599  28.524  57.426  1.00  0.00    -0.114 N 
HETATM   18  O   UNL     1       8.182  28.816  58.554  1.00  0.00    -0.532 OA
HETATM   19  O   UNL     1       9.756  28.662  57.012  1.00  0.00    -0.532 OA
ENDBRANCH   6  17
TORSDOF 2
ENDMDL
MODEL 9
REMARK VINA RESULT:      -6.2     11.754     13.144
REMARK  2 active torsions:
REMARK  status: ('A' for Active; 'I' for Inactive)
REMARK    1  A    between atoms: N_6  and  C_7 
REMARK    2  A    between atoms: C_12  and  N_13 
ROOT
HETATM    1  C   UNL     1       5.953  33.951  62.600  1.00  0.00     0.070 A 
HETATM    2  C   UNL     1       6.140  33.300  61.356  1.00  0.00     0.162 A 
HETATM    3  F   UNL     1       5.246  33.505  60.372  1.00  0.00    -0.202 F 
HETATM    4  C   UNL     1       7.197  32.411  61.115  1.00  0.00     0.084 A 
HETATM    5 BR   UNL     1       7.345  31.630  59.391  1.00  0.00    -0.045 Br
HETATM    6  C   UNL     1       8.094  32.163  62.146  1.00  0.00     0.123 A 
HETATM    7  C   UNL     1       7.966  32.790  63.388  1.00  0.00     0.040 A 
HETATM    8  C   UNL     1       6.905  33.677  63.601  1.00  0.00     0.035 A 
ENDROOT
BRANCH   1   9
HETATM    9  N   UNL     1       4.931  34.871  62.862  1.00  0.00    -0.375 N 
HETATM   10  C   UNL     1       5.270  36.115  63.586  1.00  0.00     0.150 C 
HETATM   11  C   UNL     1       4.940  35.986  65.091  1.00  0.00     0.254 C 
HETATM   12  N   UNL     1       3.484  35.565  65.291  1.00  0.00    -0.072 N 
HETATM   13  C   UNL     1       3.121  35.469  66.742  1.00  0.00     0.269 C 
HETATM   14  H   UNL     1       2.894  36.297  64.873  1.00  0.00     0.279 HD
HETATM   15  C   UNL     1       3.181  34.264  64.538  1.00  0.00     0.254 C 
HETATM   16  C   UNL     1       3.534  34.422  63.044  1.00  0.00     0.150 C 
ENDBRANCH   1   9
BRANCH   6  17
HETATM   17  N   UNL     1       9.190  31.237  61.975  1.00  0.00    -0.114 N 
HETATM   18  O   UNL     1       9.009  30.080  62.374  1.00  0.00    -0.532 OA
HETATM   19  O   UNL     1      10.234  31.693  61.494  1.00  0.00    -0.532 OA
ENDBRANCH   6  17
TORSDOF 2
ENDMDL
MODEL 10
REMARK VINA RESULT:      -6.1     10.640     12.051
REMARK  2 active torsions:
REMARK  status: ('A' for Active; 'I' for Inactive)
REMARK    1  A    between atoms: N_6  and  C_7 
REMARK    2  A    between atoms: C_12  and  N_13 
ROOT
HETATM    1  C   UNL     1       6.988  32.252  62.320  1.00  0.00     0.070 A 
HETATM    2  C   UNL     1       6.455  32.047  61.024  1.00  0.00     0.162 A 
HETATM    3  F   UNL     1       5.121  32.082  60.855  1.00  0.00    -0.202 F 
HETATM    4  C   UNL     1       7.256  31.765  59.908  1.00  0.00     0.084 A 
HETATM    5 BR   UNL     1       6.412  31.542  58.223  1.00  0.00    -0.045 Br
HETATM    6  C   UNL     1       8.631  31.684  60.091  1.00  0.00     0.123 A 
HETATM    7  C   UNL     1       9.211  31.892  61.345  1.00  0.00     0.040 A 
HETATM    8  C   UNL     1       8.389  32.177  62.441  1.00  0.00     0.035 A 
ENDROOT
BRANCH   1   9
HETATM    9  N   UNL     1       6.220  32.571  63.447  1.00  0.00    -0.375 N 
HETATM   10  C   UNL     1       4.778  32.841  63.264  1.00  0.00     0.150 C 
HETATM   11  C   UNL     1       4.506  34.361  63.194  1.00  0.00     0.254 C 
HETATM   12  N   UNL     1       5.090  35.072  64.415  1.00  0.00    -0.072 N 
HETATM   13  C   UNL     1       4.808  36.544  64.396  1.00  0.00     0.269 C 
HETATM   14  H   UNL     1       4.628  34.680  65.246  1.00  0.00     0.279 HD
HETATM   15  C   UNL     1       6.588  34.778  64.557  1.00  0.00     0.254 C 
HETATM   16  C   UNL     1       6.826  33.254  64.609  1.00  0.00     0.150 C 
ENDBRANCH   1   9
BRANCH   6  17
HETATM   17  N   UNL     1       9.513  31.369  58.992  1.00  0.00    -0.114 N 
HETATM   18  O   UNL     1       9.590  30.179  58.662  1.00  0.00    -0.532 OA
HETATM   19  O   UNL     1      10.156  32.308  58.508  1.00  0.00    -0.532 OA
ENDBRANCH   6  17
TORSDOF 2
ENDMDL
