MODEL 1
REMARK VINA RESULT:     -10.0      0.000      0.000
REMARK  6 active torsions:
REMARK  status: ('A' for Active; 'I' for Inactive)
REMARK    1  A    between atoms: C_6  and  C_7 
REMARK    2  A    between atoms: C_7  and  N_8 
REMARK       I    between atoms: N_8  and  C_9 
REMARK       I    between atoms: C_9  and  N_10 
REMARK    3  A    between atoms: N_10  and  C_11 
REMARK    4  A    between atoms: C_11  and  C_12 
REMARK       I    between atoms: C_12  and  N_13 
REMARK    5  A    between atoms: N_13  and  N_14 
REMARK       I    between atoms: N_14  and  C_15 
REMARK    6  A    between atoms: C_15  and  C_16 
ROOT
HETATM    1  C   UNL     1       6.660  25.201  53.569  1.00  0.00     0.117 C 
HETATM    2  C   UNL     1       7.993  25.066  52.814  1.00  0.00     0.041 C 
HETATM    3  C   UNL     1       8.093  23.578  52.518  1.00  0.00     0.003 C 
HETATM    4  C   UNL     1       7.547  22.902  53.766  1.00  0.00     0.003 C 
HETATM    5  C   UNL     1       6.669  23.941  54.467  1.00  0.00     0.041 C 
ENDROOT
BRANCH   1   6
HETATM    6  N   UNL     1       6.595  26.389  54.436  1.00  0.00    -0.325 N 
HETATM    7  C   UNL     1       7.110  26.407  55.702  1.00  0.00     0.317 C 
HETATM    8  N   UNL     1       6.925  27.623  56.298  1.00  0.00    -0.339 N 
HETATM    9  O   UNL     1       7.682  25.457  56.219  1.00  0.00    -0.247 OA
HETATM   10  H   UNL     1       6.042  28.058  56.073  1.00  0.00     0.164 HD
HETATM   11  H   UNL     1       6.671  27.280  53.963  1.00  0.00     0.165 HD
BRANCH   8  12
HETATM   12  C   UNL     1       7.408  27.817  57.648  1.00  0.00     0.162 C 
BRANCH  12  13
HETATM   13  C   UNL     1       8.449  28.905  57.751  1.00  0.00    -0.039 A 
HETATM   14  C   UNL     1       8.404  29.885  58.754  1.00  0.00     0.027 A 
HETATM   15  C   UNL     1       9.373  30.888  58.803  1.00  0.00     0.011 A 
HETATM   16  C   UNL     1      10.383  30.947  57.846  1.00  0.00     0.019 A 
HETATM   17 BR   UNL     1       9.316  32.179  60.184  1.00  0.00    -0.051 Br
HETATM   18  C   UNL     1      10.421  29.997  56.827  1.00  0.00     0.002 A 
HETATM   19  C   UNL     1       9.460  28.985  56.779  1.00  0.00     0.009 A 
ENDBRANCH  12  13
ENDBRANCH   8  12
ENDBRANCH   1   6
BRANCH   1  20
HETATM   20  C   UNL     1       5.427  25.185  52.609  1.00  0.00     0.264 C 
HETATM   21  N   UNL     1       5.659  25.699  51.347  1.00  0.00    -0.265 N 
HETATM   22  H   UNL     1       6.478  26.293  51.162  1.00  0.00     0.190 HD
HETATM   23  O   UNL     1       4.310  24.790  52.948  1.00  0.00    -0.269 OA
BRANCH  21  24
HETATM   24  N   UNL     1       4.567  25.843  50.483  1.00  0.00    -0.262 N 
HETATM   25  C   UNL     1       4.527  26.910  49.610  1.00  0.00     0.286 C 
HETATM   26  O   UNL     1       5.410  27.764  49.571  1.00  0.00    -0.264 OA
HETATM   27  H   UNL     1       3.845  25.131  50.537  1.00  0.00     0.190 HD
BRANCH  25  28
HETATM   28  C   UNL     1       3.371  26.958  48.739  1.00  0.00     0.102 A 
HETATM   29  N   UNL     1       2.194  27.547  49.154  1.00  0.00    -0.361 N 
HETATM   30  H   UNL     1       2.070  27.967  50.067  1.00  0.00     0.165 HD
HETATM   31  C   UNL     1       1.252  27.477  48.164  1.00  0.00     0.088 A 
HETATM   32  C   UNL     1       1.820  26.835  47.088  1.00  0.00     0.019 A 
HETATM   33  C   UNL     1       3.151  26.507  47.448  1.00  0.00     0.036 A 
ENDBRANCH  25  28
ENDBRANCH  21  24
ENDBRANCH   1  20
TORSDOF 6
ENDMDL
MODEL 2
REMARK VINA RESULT:      -9.7      5.017     10.042
REMARK  6 active torsions:
REMARK  status: ('A' for Active; 'I' for Inactive)
REMARK    1  A    between atoms: C_6  and  C_7 
REMARK    2  A    between atoms: C_7  and  N_8 
REMARK       I    between atoms: N_8  and  C_9 
REMARK       I    between atoms: C_9  and  N_10 
REMARK    3  A    between atoms: N_10  and  C_11 
REMARK    4  A    between atoms: C_11  and  C_12 
REMARK       I    between atoms: C_12  and  N_13 
REMARK    5  A    between atoms: N_13  and  N_14 
REMARK       I    between atoms: N_14  and  C_15 
REMARK    6  A    between atoms: C_15  and  C_16 
ROOT
HETATM    1  C   UNL     1       4.011  30.420  56.595  1.00  0.00     0.117 C 
HETATM    2  C   UNL     1       5.099  30.945  55.644  1.00  0.00     0.041 C 
HETATM    3  C   UNL     1       4.671  32.375  55.356  1.00  0.00     0.003 C 
HETATM    4  C   UNL     1       3.156  32.306  55.244  1.00  0.00     0.003 C 
HETATM    5  C   UNL     1       2.728  31.041  55.992  1.00  0.00     0.041 C 
ENDROOT
BRANCH   1   6
HETATM    6  N   UNL     1       3.872  28.955  56.576  1.00  0.00    -0.325 N 
HETATM    7  C   UNL     1       4.919  28.112  56.824  1.00  0.00     0.317 C 
HETATM    8  N   UNL     1       4.533  26.803  56.749  1.00  0.00    -0.339 N 
HETATM    9  O   UNL     1       6.049  28.490  57.100  1.00  0.00    -0.247 OA
HETATM   10  H   UNL     1       3.857  26.618  56.023  1.00  0.00     0.164 HD
HETATM   11  H   UNL     1       2.986  28.596  56.905  1.00  0.00     0.165 HD
BRANCH   8  12
HETATM   12  C   UNL     1       5.521  25.771  56.982  1.00  0.00     0.162 C 
BRANCH  12  13
HETATM   13  C   UNL     1       5.962  25.081  55.715  1.00  0.00    -0.039 A 
HETATM   14  C   UNL     1       7.004  24.141  55.704  1.00  0.00     0.027 A 
HETATM   15  C   UNL     1       7.398  23.539  54.508  1.00  0.00     0.011 A 
HETATM   16  C   UNL     1       6.781  23.879  53.306  1.00  0.00     0.019 A 
HETATM   17 BR   UNL     1       8.779  22.249  54.519  1.00  0.00    -0.051 Br
HETATM   18  C   UNL     1       5.766  24.834  53.300  1.00  0.00     0.002 A 
HETATM   19  C   UNL     1       5.361  25.431  54.495  1.00  0.00     0.009 A 
ENDBRANCH  12  13
ENDBRANCH   8  12
ENDBRANCH   1   6
BRANCH   1  20
HETATM   20  C   UNL     1       4.219  30.907  58.065  1.00  0.00     0.264 C 
HETATM   21  N   UNL     1       5.529  31.171  58.416  1.00  0.00    -0.265 N 
HETATM   22  H   UNL     1       6.309  30.805  57.854  1.00  0.00     0.190 HD
HETATM   23  O   UNL     1       3.300  31.011  58.881  1.00  0.00    -0.269 OA
BRANCH  21  24
HETATM   24  N   UNL     1       5.805  31.478  59.754  1.00  0.00    -0.262 N 
HETATM   25  C   UNL     1       7.017  32.046  60.086  1.00  0.00     0.286 C 
HETATM   26  O   UNL     1       7.888  32.279  59.249  1.00  0.00    -0.264 OA
HETATM   27  H   UNL     1       5.076  31.270  60.430  1.00  0.00     0.190 HD
BRANCH  25  28
HETATM   28  C   UNL     1       7.199  32.350  61.490  1.00  0.00     0.102 A 
HETATM   29  N   UNL     1       6.175  32.895  62.237  1.00  0.00    -0.361 N 
HETATM   30  H   UNL     1       5.261  33.111  61.858  1.00  0.00     0.165 HD
HETATM   31  C   UNL     1       6.579  33.088  63.529  1.00  0.00     0.088 A 
HETATM   32  C   UNL     1       7.884  32.663  63.630  1.00  0.00     0.019 A 
HETATM   33  C   UNL     1       8.275  32.200  62.349  1.00  0.00     0.036 A 
ENDBRANCH  25  28
ENDBRANCH  21  24
ENDBRANCH   1  20
TORSDOF 6
ENDMDL
MODEL 3
REMARK VINA RESULT:      -9.5      4.505      9.386
REMARK  6 active torsions:
REMARK  status: ('A' for Active; 'I' for Inactive)
REMARK    1  A    between atoms: C_6  and  C_7 
REMARK    2  A    between atoms: C_7  and  N_8 
REMARK       I    between atoms: N_8  and  C_9 
REMARK       I    between atoms: C_9  and  N_10 
REMARK    3  A    between atoms: N_10  and  C_11 
REMARK    4  A    between atoms: C_11  and  C_12 
REMARK       I    between atoms: C_12  and  N_13 
REMARK    5  A    between atoms: N_13  and  N_14 
REMARK       I    between atoms: N_14  and  C_15 
REMARK    6  A    between atoms: C_15  and  C_16 
ROOT
HETATM    1  C   UNL     1       4.675  29.131  55.458  1.00  0.00     0.117 C 
HETATM    2  C   UNL     1       4.663  30.008  54.195  1.00  0.00     0.041 C 
HETATM    3  C   UNL     1       4.184  31.360  54.697  1.00  0.00     0.003 C 
HETATM    4  C   UNL     1       3.116  31.030  55.728  1.00  0.00     0.003 C 
HETATM    5  C   UNL     1       3.392  29.597  56.188  1.00  0.00     0.041 C 
ENDROOT
BRANCH   1   6
HETATM    6  N   UNL     1       4.552  27.692  55.175  1.00  0.00    -0.325 N 
HETATM    7  C   UNL     1       5.279  27.068  54.201  1.00  0.00     0.317 C 
HETATM    8  N   UNL     1       4.986  25.734  54.137  1.00  0.00    -0.339 N 
HETATM    9  O   UNL     1       6.102  27.634  53.495  1.00  0.00    -0.247 OA
HETATM   10  H   UNL     1       4.011  25.523  54.296  1.00  0.00     0.164 HD
HETATM   11  H   UNL     1       4.373  27.102  55.977  1.00  0.00     0.165 HD
BRANCH   8  12
HETATM   12  C   UNL     1       5.665  24.918  53.154  1.00  0.00     0.162 C 
BRANCH  12  13
HETATM   13  C   UNL     1       6.760  24.067  53.749  1.00  0.00    -0.039 A 
HETATM   14  C   UNL     1       7.124  22.829  53.198  1.00  0.00     0.027 A 
HETATM   15  C   UNL     1       8.129  22.062  53.790  1.00  0.00     0.011 A 
HETATM   16  C   UNL     1       8.767  22.500  54.948  1.00  0.00     0.019 A 
HETATM   17 BR   UNL     1       8.630  20.414  53.012  1.00  0.00    -0.051 Br
HETATM   18  C   UNL     1       8.393  23.714  55.522  1.00  0.00     0.002 A 
HETATM   19  C   UNL     1       7.396  24.490  54.928  1.00  0.00     0.009 A 
ENDBRANCH  12  13
ENDBRANCH   8  12
ENDBRANCH   1   6
BRANCH   1  20
HETATM   20  C   UNL     1       5.935  29.383  56.347  1.00  0.00     0.264 C 
HETATM   21  N   UNL     1       5.697  29.410  57.708  1.00  0.00    -0.265 N 
HETATM   22  H   UNL     1       4.745  29.538  58.075  1.00  0.00     0.190 HD
HETATM   23  O   UNL     1       7.059  29.592  55.885  1.00  0.00    -0.269 OA
BRANCH  21  24
HETATM   24  N   UNL     1       6.753  29.767  58.555  1.00  0.00    -0.262 N 
HETATM   25  C   UNL     1       6.814  31.049  59.063  1.00  0.00     0.286 C 
HETATM   26  O   UNL     1       5.980  31.909  58.783  1.00  0.00    -0.264 OA
HETATM   27  H   UNL     1       7.434  29.045  58.766  1.00  0.00     0.190 HD
BRANCH  25  28
HETATM   28  C   UNL     1       7.927  31.316  59.948  1.00  0.00     0.102 A 
HETATM   29  N   UNL     1       8.248  30.444  60.969  1.00  0.00    -0.361 N 
HETATM   30  H   UNL     1       7.736  29.590  61.156  1.00  0.00     0.165 HD
HETATM   31  C   UNL     1       9.333  30.903  61.664  1.00  0.00     0.088 A 
HETATM   32  C   UNL     1       9.729  32.089  61.090  1.00  0.00     0.019 A 
HETATM   33  C   UNL     1       8.846  32.351  60.013  1.00  0.00     0.036 A 
ENDBRANCH  25  28
ENDBRANCH  21  24
ENDBRANCH   1  20
TORSDOF 6
ENDMDL
MODEL 4
REMARK VINA RESULT:      -9.4      4.404      6.422
REMARK  6 active torsions:
REMARK  status: ('A' for Active; 'I' for Inactive)
REMARK    1  A    between atoms: C_6  and  C_7 
REMARK    2  A    between atoms: C_7  and  N_8 
REMARK       I    between atoms: N_8  and  C_9 
REMARK       I    between atoms: C_9  and  N_10 
REMARK    3  A    between atoms: N_10  and  C_11 
REMARK    4  A    between atoms: C_11  and  C_12 
REMARK       I    between atoms: C_12  and  N_13 
REMARK    5  A    between atoms: N_13  and  N_14 
REMARK       I    between atoms: N_14  and  C_15 
REMARK    6  A    between atoms: C_15  and  C_16 
ROOT
HETATM    1  C   UNL     1       6.668  27.980  56.901  1.00  0.00     0.117 C 
HETATM    2  C   UNL     1       5.200  28.384  57.118  1.00  0.00     0.041 C 
HETATM    3  C   UNL     1       4.589  28.288  55.729  1.00  0.00     0.003 C 
HETATM    4  C   UNL     1       5.671  28.810  54.797  1.00  0.00     0.003 C 
HETATM    5  C   UNL     1       6.994  28.660  55.550  1.00  0.00     0.041 C 
ENDROOT
BRANCH   1   6
HETATM    6  N   UNL     1       7.582  28.514  57.924  1.00  0.00    -0.325 N 
HETATM    7  C   UNL     1       7.687  29.851  58.191  1.00  0.00     0.317 C 
HETATM    8  N   UNL     1       8.599  30.091  59.181  1.00  0.00    -0.339 N 
HETATM    9  O   UNL     1       7.028  30.714  57.628  1.00  0.00    -0.247 OA
HETATM   10  H   UNL     1       9.407  29.486  59.146  1.00  0.00     0.164 HD
HETATM   11  H   UNL     1       7.711  27.934  58.742  1.00  0.00     0.165 HD
BRANCH   8  12
HETATM   12  C   UNL     1       8.840  31.458  59.590  1.00  0.00     0.162 C 
BRANCH  12  13
HETATM   13  C   UNL     1       8.106  31.832  60.854  1.00  0.00    -0.039 A 
HETATM   14  C   UNL     1       6.733  32.123  60.859  1.00  0.00     0.027 A 
HETATM   15  C   UNL     1       6.094  32.486  62.046  1.00  0.00     0.011 A 
HETATM   16  C   UNL     1       6.811  32.590  63.235  1.00  0.00     0.019 A 
HETATM   17 BR   UNL     1       4.236  32.838  62.039  1.00  0.00    -0.051 Br
HETATM   18  C   UNL     1       8.181  32.333  63.236  1.00  0.00     0.002 A 
HETATM   19  C   UNL     1       8.824  31.960  62.054  1.00  0.00     0.009 A 
ENDBRANCH  12  13
ENDBRANCH   8  12
ENDBRANCH   1   6
BRANCH   1  20
HETATM   20  C   UNL     1       6.851  26.431  56.795  1.00  0.00     0.264 C 
HETATM   21  N   UNL     1       7.463  25.991  55.637  1.00  0.00    -0.265 N 
HETATM   22  H   UNL     1       7.527  26.599  54.809  1.00  0.00     0.190 HD
HETATM   23  O   UNL     1       6.444  25.641  57.649  1.00  0.00    -0.269 OA
BRANCH  21  24
HETATM   24  N   UNL     1       7.534  24.611  55.412  1.00  0.00    -0.262 N 
HETATM   25  C   UNL     1       7.857  24.142  54.156  1.00  0.00     0.286 C 
HETATM   26  O   UNL     1       8.068  24.893  53.205  1.00  0.00    -0.264 OA
HETATM   27  H   UNL     1       7.349  24.008  56.208  1.00  0.00     0.190 HD
BRANCH  25  28
HETATM   28  C   UNL     1       7.931  22.702  54.029  1.00  0.00     0.102 A 
HETATM   29  N   UNL     1       7.939  21.890  55.144  1.00  0.00    -0.361 N 
HETATM   30  H   UNL     1       7.897  22.242  56.093  1.00  0.00     0.165 HD
HETATM   31  C   UNL     1       8.008  20.574  54.775  1.00  0.00     0.088 A 
HETATM   32  C   UNL     1       8.045  20.524  53.401  1.00  0.00     0.019 A 
HETATM   33  C   UNL     1       7.998  21.860  52.930  1.00  0.00     0.036 A 
ENDBRANCH  25  28
ENDBRANCH  21  24
ENDBRANCH   1  20
TORSDOF 6
ENDMDL
MODEL 5
REMARK VINA RESULT:      -9.4      2.918      5.593
REMARK  6 active torsions:
REMARK  status: ('A' for Active; 'I' for Inactive)
REMARK    1  A    between atoms: C_6  and  C_7 
REMARK    2  A    between atoms: C_7  and  N_8 
REMARK       I    between atoms: N_8  and  C_9 
REMARK       I    between atoms: C_9  and  N_10 
REMARK    3  A    between atoms: N_10  and  C_11 
REMARK    4  A    between atoms: C_11  and  C_12 
REMARK       I    between atoms: C_12  and  N_13 
REMARK    5  A    between atoms: N_13  and  N_14 
REMARK       I    between atoms: N_14  and  C_15 
REMARK    6  A    between atoms: C_15  and  C_16 
ROOT
HETATM    1  C   UNL     1       5.895  28.012  53.379  1.00  0.00     0.117 C 
HETATM    2  C   UNL     1       4.582  28.130  54.171  1.00  0.00     0.041 C 
HETATM    3  C   UNL     1       3.504  28.007  53.107  1.00  0.00     0.003 C 
HETATM    4  C   UNL     1       4.055  28.771  51.913  1.00  0.00     0.003 C 
HETATM    5  C   UNL     1       5.573  28.819  52.098  1.00  0.00     0.041 C 
ENDROOT
BRANCH   1   6
HETATM    6  N   UNL     1       7.044  28.642  54.049  1.00  0.00    -0.325 N 
HETATM    7  C   UNL     1       7.416  28.327  55.326  1.00  0.00     0.317 C 
HETATM    8  N   UNL     1       8.510  29.046  55.718  1.00  0.00    -0.339 N 
HETATM    9  O   UNL     1       6.849  27.490  56.015  1.00  0.00    -0.247 OA
HETATM   10  H   UNL     1       8.518  29.996  55.378  1.00  0.00     0.164 HD
HETATM   11  H   UNL     1       7.827  28.871  53.452  1.00  0.00     0.165 HD
BRANCH   8  12
HETATM   12  C   UNL     1       9.039  28.839  57.050  1.00  0.00     0.162 C 
BRANCH  12  13
HETATM   13  C   UNL     1       8.769  29.998  57.977  1.00  0.00    -0.039 A 
HETATM   14  C   UNL     1       7.473  30.491  58.194  1.00  0.00     0.027 A 
HETATM   15  C   UNL     1       7.266  31.579  59.044  1.00  0.00     0.011 A 
HETATM   16  C   UNL     1       8.341  32.206  59.669  1.00  0.00     0.019 A 
HETATM   17 BR   UNL     1       5.509  32.206  59.352  1.00  0.00    -0.051 Br
HETATM   18  C   UNL     1       9.636  31.745  59.437  1.00  0.00     0.002 A 
HETATM   19  C   UNL     1       9.848  30.650  58.596  1.00  0.00     0.009 A 
ENDBRANCH  12  13
ENDBRANCH   8  12
ENDBRANCH   1   6
BRANCH   1  20
HETATM   20  C   UNL     1       6.245  26.532  53.022  1.00  0.00     0.264 C 
HETATM   21  N   UNL     1       5.923  25.602  53.993  1.00  0.00    -0.265 N 
HETATM   22  H   UNL     1       5.741  25.895  54.963  1.00  0.00     0.190 HD
HETATM   23  O   UNL     1       6.809  26.201  51.977  1.00  0.00    -0.269 OA
BRANCH  21  24
HETATM   24  N   UNL     1       6.333  24.278  53.800  1.00  0.00    -0.262 N 
HETATM   25  C   UNL     1       7.435  23.800  54.479  1.00  0.00     0.286 C 
HETATM   26  O   UNL     1       8.095  24.504  55.242  1.00  0.00    -0.264 OA
HETATM   27  H   UNL     1       5.780  23.717  53.160  1.00  0.00     0.190 HD
BRANCH  25  28
HETATM   28  C   UNL     1       7.765  22.413  54.234  1.00  0.00     0.102 A 
HETATM   29  N   UNL     1       7.966  21.535  55.279  1.00  0.00    -0.361 N 
HETATM   30  H   UNL     1       7.899  21.801  56.254  1.00  0.00     0.165 HD
HETATM   31  C   UNL     1       8.260  20.286  54.802  1.00  0.00     0.088 A 
HETATM   32  C   UNL     1       8.250  20.348  53.428  1.00  0.00     0.019 A 
HETATM   33  C   UNL     1       7.941  21.683  53.069  1.00  0.00     0.036 A 
ENDBRANCH  25  28
ENDBRANCH  21  24
ENDBRANCH   1  20
TORSDOF 6
ENDMDL
MODEL 6
REMARK VINA RESULT:      -9.2      3.665      8.816
REMARK  6 active torsions:
REMARK  status: ('A' for Active; 'I' for Inactive)
REMARK    1  A    between atoms: C_6  and  C_7 
REMARK    2  A    between atoms: C_7  and  N_8 
REMARK       I    between atoms: N_8  and  C_9 
REMARK       I    between atoms: C_9  and  N_10 
REMARK    3  A    between atoms: N_10  and  C_11 
REMARK    4  A    between atoms: C_11  and  C_12 
REMARK       I    between atoms: C_12  and  N_13 
REMARK    5  A    between atoms: N_13  and  N_14 
REMARK       I    between atoms: N_14  and  C_15 
REMARK    6  A    between atoms: C_15  and  C_16 
ROOT
HETATM    1  C   UNL     1       5.312  27.457  55.052  1.00  0.00     0.117 C 
HETATM    2  C   UNL     1       6.436  28.505  54.988  1.00  0.00     0.041 C 
HETATM    3  C   UNL     1       6.583  28.966  56.429  1.00  0.00     0.003 C 
HETATM    4  C   UNL     1       5.160  29.019  56.962  1.00  0.00     0.003 C 
HETATM    5  C   UNL     1       4.332  28.096  56.065  1.00  0.00     0.041 C 
ENDROOT
BRANCH   1   6
HETATM    6  N   UNL     1       4.605  27.277  53.773  1.00  0.00    -0.325 N 
HETATM    7  C   UNL     1       5.256  26.992  52.606  1.00  0.00     0.317 C 
HETATM    8  N   UNL     1       4.380  26.870  51.563  1.00  0.00    -0.339 N 
HETATM    9  O   UNL     1       6.468  26.843  52.518  1.00  0.00    -0.247 OA
HETATM   10  H   UNL     1       3.608  27.520  51.601  1.00  0.00     0.164 HD
HETATM   11  H   UNL     1       3.693  26.846  53.834  1.00  0.00     0.165 HD
BRANCH   8  12
HETATM   12  C   UNL     1       4.901  26.571  50.246  1.00  0.00     0.162 C 
BRANCH  12  13
HETATM   13  C   UNL     1       3.885  26.776  49.150  1.00  0.00    -0.039 A 
HETATM   14  C   UNL     1       3.120  27.949  49.054  1.00  0.00     0.027 A 
HETATM   15  C   UNL     1       2.175  28.092  48.038  1.00  0.00     0.011 A 
HETATM   16  C   UNL     1       1.958  27.067  47.120  1.00  0.00     0.019 A 
HETATM   17 BR   UNL     1       1.179  29.694  47.903  1.00  0.00    -0.051 Br
HETATM   18  C   UNL     1       2.690  25.886  47.223  1.00  0.00     0.002 A 
HETATM   19  C   UNL     1       3.645  25.741  48.232  1.00  0.00     0.009 A 
ENDBRANCH  12  13
ENDBRANCH   8  12
ENDBRANCH   1   6
BRANCH   1  20
HETATM   20  C   UNL     1       5.815  26.073  55.572  1.00  0.00     0.264 C 
HETATM   21  N   UNL     1       7.063  25.693  55.114  1.00  0.00    -0.265 N 
HETATM   22  H   UNL     1       7.483  26.145  54.290  1.00  0.00     0.190 HD
HETATM   23  O   UNL     1       5.145  25.338  56.300  1.00  0.00    -0.269 OA
BRANCH  21  24
HETATM   24  N   UNL     1       7.517  24.406  55.428  1.00  0.00    -0.262 N 
HETATM   25  C   UNL     1       7.371  23.390  54.507  1.00  0.00     0.286 C 
HETATM   26  O   UNL     1       6.833  23.562  53.414  1.00  0.00    -0.264 OA
HETATM   27  H   UNL     1       7.950  24.284  56.338  1.00  0.00     0.190 HD
BRANCH  25  28
HETATM   28  C   UNL     1       7.893  22.102  54.912  1.00  0.00     0.102 A 
HETATM   29  N   UNL     1       8.295  21.876  56.213  1.00  0.00    -0.361 N 
HETATM   30  H   UNL     1       8.253  22.579  56.941  1.00  0.00     0.165 HD
HETATM   31  C   UNL     1       8.745  20.592  56.356  1.00  0.00     0.088 A 
HETATM   32  C   UNL     1       8.635  19.969  55.134  1.00  0.00     0.019 A 
HETATM   33  C   UNL     1       8.101  20.917  54.225  1.00  0.00     0.036 A 
ENDBRANCH  25  28
ENDBRANCH  21  24
ENDBRANCH   1  20
TORSDOF 6
ENDMDL
MODEL 7
REMARK VINA RESULT:      -9.2      3.653      6.130
REMARK  6 active torsions:
REMARK  status: ('A' for Active; 'I' for Inactive)
REMARK    1  A    between atoms: C_6  and  C_7 
REMARK    2  A    between atoms: C_7  and  N_8 
REMARK       I    between atoms: N_8  and  C_9 
REMARK       I    between atoms: C_9  and  N_10 
REMARK    3  A    between atoms: N_10  and  C_11 
REMARK    4  A    between atoms: C_11  and  C_12 
REMARK       I    between atoms: C_12  and  N_13 
REMARK    5  A    between atoms: N_13  and  N_14 
REMARK       I    between atoms: N_14  and  C_15 
REMARK    6  A    between atoms: C_15  and  C_16 
ROOT
HETATM    1  C   UNL     1       5.927  28.147  54.752  1.00  0.00     0.117 C 
HETATM    2  C   UNL     1       4.424  28.325  54.482  1.00  0.00     0.041 C 
HETATM    3  C   UNL     1       4.180  27.503  53.227  1.00  0.00     0.003 C 
HETATM    4  C   UNL     1       5.413  27.741  52.368  1.00  0.00     0.003 C 
HETATM    5  C   UNL     1       6.520  28.194  53.323  1.00  0.00     0.041 C 
ENDROOT
BRANCH   1   6
HETATM    6  N   UNL     1       6.517  29.244  55.536  1.00  0.00    -0.325 N 
HETATM    7  C   UNL     1       5.957  29.706  56.694  1.00  0.00     0.317 C 
HETATM    8  N   UNL     1       6.694  30.724  57.232  1.00  0.00    -0.339 N 
HETATM    9  O   UNL     1       4.938  29.246  57.190  1.00  0.00    -0.247 OA
HETATM   10  H   UNL     1       7.093  31.346  56.545  1.00  0.00     0.164 HD
HETATM   11  H   UNL     1       7.528  29.285  55.540  1.00  0.00     0.165 HD
BRANCH   8  12
HETATM   12  C   UNL     1       6.241  31.336  58.463  1.00  0.00     0.162 C 
BRANCH  12  13
HETATM   13  C   UNL     1       7.360  31.577  59.447  1.00  0.00    -0.039 A 
HETATM   14  C   UNL     1       7.112  31.926  60.783  1.00  0.00     0.027 A 
HETATM   15  C   UNL     1       8.174  32.162  61.659  1.00  0.00     0.011 A 
HETATM   16  C   UNL     1       9.491  32.078  61.215  1.00  0.00     0.019 A 
HETATM   17 BR   UNL     1       7.821  32.596  63.464  1.00  0.00    -0.051 Br
HETATM   18  C   UNL     1       9.749  31.762  59.882  1.00  0.00     0.002 A 
HETATM   19  C   UNL     1       8.691  31.515  59.005  1.00  0.00     0.009 A 
ENDBRANCH  12  13
ENDBRANCH   8  12
ENDBRANCH   1   6
BRANCH   1  20
HETATM   20  C   UNL     1       6.252  26.781  55.437  1.00  0.00     0.264 C 
HETATM   21  N   UNL     1       7.404  26.160  54.993  1.00  0.00    -0.265 N 
HETATM   22  H   UNL     1       7.840  26.434  54.101  1.00  0.00     0.190 HD
HETATM   23  O   UNL     1       5.522  26.255  56.281  1.00  0.00    -0.269 OA
BRANCH  21  24
HETATM   24  N   UNL     1       7.682  24.871  55.462  1.00  0.00    -0.262 N 
HETATM   25  C   UNL     1       7.463  23.786  54.639  1.00  0.00     0.286 C 
HETATM   26  O   UNL     1       7.006  23.901  53.503  1.00  0.00    -0.264 OA
HETATM   27  H   UNL     1       8.050  24.797  56.405  1.00  0.00     0.190 HD
BRANCH  25  28
HETATM   28  C   UNL     1       7.804  22.497  55.204  1.00  0.00     0.102 A 
HETATM   29  N   UNL     1       8.198  22.381  56.521  1.00  0.00    -0.361 N 
HETATM   30  H   UNL     1       8.272  23.168  57.154  1.00  0.00     0.165 HD
HETATM   31  C   UNL     1       8.461  21.073  56.825  1.00  0.00     0.088 A 
HETATM   32  C   UNL     1       8.237  20.324  55.693  1.00  0.00     0.019 A 
HETATM   33  C   UNL     1       7.825  21.217  54.673  1.00  0.00     0.036 A 
ENDBRANCH  25  28
ENDBRANCH  21  24
ENDBRANCH   1  20
TORSDOF 6
ENDMDL
MODEL 8
REMARK VINA RESULT:      -9.2      5.558     11.008
REMARK  6 active torsions:
REMARK  status: ('A' for Active; 'I' for Inactive)
REMARK    1  A    between atoms: C_6  and  C_7 
REMARK    2  A    between atoms: C_7  and  N_8 
REMARK       I    between atoms: N_8  and  C_9 
REMARK       I    between atoms: C_9  and  N_10 
REMARK    3  A    between atoms: N_10  and  C_11 
REMARK    4  A    between atoms: C_11  and  C_12 
REMARK       I    between atoms: C_12  and  N_13 
REMARK    5  A    between atoms: N_13  and  N_14 
REMARK       I    between atoms: N_14  and  C_15 
REMARK    6  A    between atoms: C_15  and  C_16 
ROOT
HETATM    1  C   UNL     1       5.235  31.124  57.895  1.00  0.00     0.117 C 
HETATM    2  C   UNL     1       5.619  31.838  56.587  1.00  0.00     0.041 C 
HETATM    3  C   UNL     1       4.751  33.085  56.586  1.00  0.00     0.003 C 
HETATM    4  C   UNL     1       3.416  32.624  57.150  1.00  0.00     0.003 C 
HETATM    5  C   UNL     1       3.705  31.351  57.948  1.00  0.00     0.041 C 
ENDROOT
BRANCH   1   6
HETATM    6  N   UNL     1       5.489  29.675  57.869  1.00  0.00    -0.325 N 
HETATM    7  C   UNL     1       6.688  29.144  57.481  1.00  0.00     0.317 C 
HETATM    8  N   UNL     1       6.673  27.779  57.547  1.00  0.00    -0.339 N 
HETATM    9  O   UNL     1       7.653  29.814  57.142  1.00  0.00    -0.247 OA
HETATM   10  H   UNL     1       5.792  27.367  57.276  1.00  0.00     0.164 HD
HETATM   11  H   UNL     1       5.033  29.138  58.594  1.00  0.00     0.165 HD
BRANCH   8  12
HETATM   12  C   UNL     1       7.864  27.050  57.167  1.00  0.00     0.162 C 
BRANCH  12  13
HETATM   13  C   UNL     1       7.575  25.887  56.249  1.00  0.00    -0.039 A 
HETATM   14  C   UNL     1       6.633  25.973  55.213  1.00  0.00     0.027 A 
HETATM   15  C   UNL     1       6.379  24.868  54.398  1.00  0.00     0.011 A 
HETATM   16  C   UNL     1       7.036  23.659  54.617  1.00  0.00     0.019 A 
HETATM   17 BR   UNL     1       5.133  25.014  52.984  1.00  0.00    -0.051 Br
HETATM   18  C   UNL     1       7.951  23.553  55.662  1.00  0.00     0.002 A 
HETATM   19  C   UNL     1       8.217  24.658  56.473  1.00  0.00     0.009 A 
ENDBRANCH  12  13
ENDBRANCH   8  12
ENDBRANCH   1   6
BRANCH   1  20
HETATM   20  C   UNL     1       5.928  31.756  59.144  1.00  0.00     0.264 C 
HETATM   21  N   UNL     1       5.199  31.687  60.317  1.00  0.00    -0.265 N 
HETATM   22  H   UNL     1       4.188  31.500  60.298  1.00  0.00     0.190 HD
HETATM   23  O   UNL     1       7.024  32.319  59.099  1.00  0.00    -0.269 OA
BRANCH  21  24
HETATM   24  N   UNL     1       5.698  32.354  61.443  1.00  0.00    -0.262 N 
HETATM   25  C   UNL     1       5.203  32.041  62.692  1.00  0.00     0.286 C 
HETATM   26  O   UNL     1       4.317  31.206  62.861  1.00  0.00    -0.264 OA
HETATM   27  H   UNL     1       6.423  33.045  61.281  1.00  0.00     0.190 HD
BRANCH  25  28
HETATM   28  C   UNL     1       5.798  32.764  63.796  1.00  0.00     0.102 A 
HETATM   29  N   UNL     1       5.022  33.248  64.829  1.00  0.00    -0.361 N 
HETATM   30  H   UNL     1       4.017  33.131  64.875  1.00  0.00     0.165 HD
HETATM   31  C   UNL     1       5.803  33.888  65.752  1.00  0.00     0.088 A 
HETATM   32  C   UNL     1       7.107  33.822  65.319  1.00  0.00     0.019 A 
HETATM   33  C   UNL     1       7.106  33.117  64.089  1.00  0.00     0.036 A 
ENDBRANCH  25  28
ENDBRANCH  21  24
ENDBRANCH   1  20
TORSDOF 6
ENDMDL
MODEL 9
REMARK VINA RESULT:      -9.1      5.042     10.084
REMARK  6 active torsions:
REMARK  status: ('A' for Active; 'I' for Inactive)
REMARK    1  A    between atoms: C_6  and  C_7 
REMARK    2  A    between atoms: C_7  and  N_8 
REMARK       I    between atoms: N_8  and  C_9 
REMARK       I    between atoms: C_9  and  N_10 
REMARK    3  A    between atoms: N_10  and  C_11 
REMARK    4  A    between atoms: C_11  and  C_12 
REMARK       I    between atoms: C_12  and  N_13 
REMARK    5  A    between atoms: N_13  and  N_14 
REMARK       I    between atoms: N_14  and  C_15 
REMARK    6  A    between atoms: C_15  and  C_16 
ROOT
HETATM    1  C   UNL     1       8.824  28.694  57.150  1.00  0.00     0.117 C 
HETATM    2  C   UNL     1      10.335  28.798  57.418  1.00  0.00     0.041 C 
HETATM    3  C   UNL     1      10.763  30.014  56.613  1.00  0.00     0.003 C 
HETATM    4  C   UNL     1       9.951  29.929  55.330  1.00  0.00     0.003 C 
HETATM    5  C   UNL     1       8.737  29.055  55.648  1.00  0.00     0.041 C 
ENDROOT
BRANCH   1   6
HETATM    6  N   UNL     1       8.287  27.335  57.334  1.00  0.00    -0.325 N 
HETATM    7  C   UNL     1       7.400  26.769  56.461  1.00  0.00     0.317 C 
HETATM    8  N   UNL     1       7.056  25.505  56.851  1.00  0.00    -0.339 N 
HETATM    9  O   UNL     1       6.990  27.322  55.450  1.00  0.00    -0.247 OA
HETATM   10  H   UNL     1       6.967  25.396  57.851  1.00  0.00     0.164 HD
HETATM   11  H   UNL     1       8.924  26.665  57.744  1.00  0.00     0.165 HD
BRANCH   8  12
HETATM   12  C   UNL     1       6.119  24.757  56.040  1.00  0.00     0.162 C 
BRANCH  12  13
HETATM   13  C   UNL     1       6.797  23.832  55.059  1.00  0.00    -0.039 A 
HETATM   14  C   UNL     1       7.392  22.627  55.463  1.00  0.00     0.027 A 
HETATM   15  C   UNL     1       8.028  21.807  54.528  1.00  0.00     0.011 A 
HETATM   16  C   UNL     1       8.102  22.183  53.189  1.00  0.00     0.019 A 
HETATM   17 BR   UNL     1       8.793  20.171  55.085  1.00  0.00    -0.051 Br
HETATM   18  C   UNL     1       7.540  23.392  52.782  1.00  0.00     0.002 A 
HETATM   19  C   UNL     1       6.895  24.211  53.711  1.00  0.00     0.009 A 
ENDBRANCH  12  13
ENDBRANCH   8  12
ENDBRANCH   1   6
BRANCH   1  20
HETATM   20  C   UNL     1       7.996  29.704  58.007  1.00  0.00     0.264 C 
HETATM   21  N   UNL     1       8.427  29.858  59.311  1.00  0.00    -0.265 N 
HETATM   22  H   UNL     1       9.047  29.163  59.747  1.00  0.00     0.190 HD
HETATM   23  O   UNL     1       7.000  30.296  57.584  1.00  0.00    -0.269 OA
BRANCH  21  24
HETATM   24  N   UNL     1       7.650  30.641  60.174  1.00  0.00    -0.262 N 
HETATM   25  C   UNL     1       8.117  30.925  61.441  1.00  0.00     0.286 C 
HETATM   26  O   UNL     1       9.192  30.497  61.859  1.00  0.00    -0.264 OA
HETATM   27  H   UNL     1       6.764  30.977  59.812  1.00  0.00     0.190 HD
BRANCH  25  28
HETATM   28  C   UNL     1       7.256  31.762  62.249  1.00  0.00     0.102 A 
HETATM   29  N   UNL     1       5.985  31.350  62.593  1.00  0.00    -0.361 N 
HETATM   30  H   UNL     1       5.588  30.463  62.306  1.00  0.00     0.165 HD
HETATM   31  C   UNL     1       5.368  32.300  63.359  1.00  0.00     0.088 A 
HETATM   32  C   UNL     1       6.246  33.347  63.520  1.00  0.00     0.019 A 
HETATM   33  C   UNL     1       7.433  33.011  62.822  1.00  0.00     0.036 A 
ENDBRANCH  25  28
ENDBRANCH  21  24
ENDBRANCH   1  20
TORSDOF 6
ENDMDL
MODEL 10
REMARK VINA RESULT:      -9.0      5.607     10.032
REMARK  6 active torsions:
REMARK  status: ('A' for Active; 'I' for Inactive)
REMARK    1  A    between atoms: C_6  and  C_7 
REMARK    2  A    between atoms: C_7  and  N_8 
REMARK       I    between atoms: N_8  and  C_9 
REMARK       I    between atoms: C_9  and  N_10 
REMARK    3  A    between atoms: N_10  and  C_11 
REMARK    4  A    between atoms: C_11  and  C_12 
REMARK       I    between atoms: C_12  and  N_13 
REMARK    5  A    between atoms: N_13  and  N_14 
REMARK       I    between atoms: N_14  and  C_15 
REMARK    6  A    between atoms: C_15  and  C_16 
ROOT
HETATM    1  C   UNL     1       4.106  30.119  56.594  1.00  0.00     0.117 C 
HETATM    2  C   UNL     1       5.061  30.598  55.488  1.00  0.00     0.041 C 
HETATM    3  C   UNL     1       4.619  32.028  55.220  1.00  0.00     0.003 C 
HETATM    4  C   UNL     1       3.102  31.984  55.319  1.00  0.00     0.003 C 
HETATM    5  C   UNL     1       2.762  30.748  56.155  1.00  0.00     0.041 C 
ENDROOT
BRANCH   1   6
HETATM    6  N   UNL     1       3.944  28.657  56.637  1.00  0.00    -0.325 N 
HETATM    7  C   UNL     1       4.998  27.803  56.805  1.00  0.00     0.317 C 
HETATM    8  N   UNL     1       4.587  26.499  56.812  1.00  0.00    -0.339 N 
HETATM    9  O   UNL     1       6.156  28.169  56.954  1.00  0.00    -0.247 OA
HETATM   10  H   UNL     1       3.838  26.304  56.164  1.00  0.00     0.164 HD
HETATM   11  H   UNL     1       3.090  28.324  57.065  1.00  0.00     0.165 HD
BRANCH   8  12
HETATM   12  C   UNL     1       5.578  25.458  56.978  1.00  0.00     0.162 C 
BRANCH  12  13
HETATM   13  C   UNL     1       6.025  24.856  55.668  1.00  0.00    -0.039 A 
HETATM   14  C   UNL     1       7.094  23.950  55.593  1.00  0.00     0.027 A 
HETATM   15  C   UNL     1       7.492  23.432  54.359  1.00  0.00     0.011 A 
HETATM   16  C   UNL     1       6.852  23.822  53.185  1.00  0.00     0.019 A 
HETATM   17 BR   UNL     1       8.911  22.185  54.281  1.00  0.00    -0.051 Br
HETATM   18  C   UNL     1       5.809  24.744  53.245  1.00  0.00     0.002 A 
HETATM   19  C   UNL     1       5.400  25.259  54.477  1.00  0.00     0.009 A 
ENDBRANCH  12  13
ENDBRANCH   8  12
ENDBRANCH   1   6
BRANCH   1  20
HETATM   20  C   UNL     1       4.521  30.641  58.007  1.00  0.00     0.264 C 
HETATM   21  N   UNL     1       3.500  30.694  58.936  1.00  0.00    -0.265 N 
HETATM   22  H   UNL     1       2.515  30.667  58.639  1.00  0.00     0.190 HD
HETATM   23  O   UNL     1       5.661  31.026  58.280  1.00  0.00    -0.269 OA
BRANCH  21  24
HETATM   24  N   UNL     1       3.768  31.281  60.179  1.00  0.00    -0.262 N 
HETATM   25  C   UNL     1       3.220  32.509  60.484  1.00  0.00     0.286 C 
HETATM   26  O   UNL     1       2.512  33.130  59.693  1.00  0.00    -0.264 OA
HETATM   27  H   UNL     1       4.362  30.756  60.813  1.00  0.00     0.190 HD
BRANCH  25  28
HETATM   28  C   UNL     1       3.534  33.021  61.801  1.00  0.00     0.102 A 
HETATM   29  N   UNL     1       2.543  33.505  62.631  1.00  0.00    -0.361 N 
HETATM   30  H   UNL     1       1.563  33.531  62.374  1.00  0.00     0.165 HD
HETATM   31  C   UNL     1       3.078  33.926  63.817  1.00  0.00     0.088 A 
HETATM   32  C   UNL     1       4.437  33.716  63.764  1.00  0.00     0.019 A 
HETATM   33  C   UNL     1       4.725  33.148  62.497  1.00  0.00     0.036 A 
ENDBRANCH  25  28
ENDBRANCH  21  24
ENDBRANCH   1  20
TORSDOF 6
ENDMDL
