MODEL 1
REMARK VINA RESULT:      -9.0      0.000      0.000
REMARK  3 active torsions:
REMARK  status: ('A' for Active; 'I' for Inactive)
REMARK    1  A    between atoms: C_3  and  N_4 
REMARK       I    between atoms: N_4  and  C_5 
REMARK    2  A    between atoms: C_5  and  C_6 
REMARK    3  A    between atoms: C_8  and  N_9 
REMARK       I    between atoms: N_9  and  C_10 
ROOT
HETATM    1  N   UNL     1       7.689  25.445  55.044  1.00  0.00    -0.321 N 
HETATM    2  C   UNL     1       6.485  25.897  55.557  1.00  0.00     0.256 C 
HETATM    3  O   UNL     1       5.402  25.328  55.512  1.00  0.00    -0.267 OA
HETATM    4  H   UNL     1       8.512  25.964  55.319  1.00  0.00     0.169 HD
ENDROOT
BRANCH   2   5
HETATM    5  C   UNL     1       6.550  27.201  56.278  1.00  0.00     0.034 A 
HETATM    6  C   UNL     1       7.772  27.766  56.670  1.00  0.00     0.046 A 
HETATM    7  C   UNL     1       7.807  28.983  57.352  1.00  0.00     0.035 A 
HETATM    8  C   UNL     1       6.600  29.613  57.680  1.00  0.00     0.029 A 
HETATM    9  C   UNL     1       5.378  29.043  57.318  1.00  0.00     0.003 A 
HETATM   10  C   UNL     1       5.351  27.838  56.617  1.00  0.00     0.017 A 
BRANCH   7  11
HETATM   11  N   UNL     1       9.003  29.615  57.754  1.00  0.00    -0.327 N 
HETATM   12  C   UNL     1      10.052  30.006  56.940  1.00  0.00     0.218 C 
HETATM   13  C   UNL     1      11.200  30.613  57.708  1.00  0.00     0.117 C 
HETATM   14  O   UNL     1      10.093  29.928  55.716  1.00  0.00    -0.274 OA
HETATM   15  H   UNL     1       9.071  29.853  58.736  1.00  0.00     0.169 HD
ENDBRANCH   7  11
ENDBRANCH   2   5
BRANCH   1  16
HETATM   16  C   UNL     1       7.943  24.170  54.473  1.00  0.00     0.065 A 
HETATM   17  C   UNL     1       7.839  23.869  53.105  1.00  0.00    -0.031 A 
HETATM   18  C   UNL     1       7.606  24.878  52.016  1.00  0.00     0.050 C 
HETATM   19  C   UNL     1       8.018  22.536  52.696  1.00  0.00     0.035 A 
HETATM   20  C   UNL     1       8.367  21.563  53.623  1.00  0.00     0.031 A 
HETATM   21  N   UNL     1       8.565  21.850  54.924  1.00  0.00    -0.256 NA
HETATM   22  C   UNL     1       8.544  20.138  53.196  1.00  0.00     0.070 C 
HETATM   23  C   UNL     1       8.359  23.130  55.334  1.00  0.00     0.058 A 
HETATM   24  C   UNL     1       8.559  23.346  56.810  1.00  0.00     0.073 C 
ENDBRANCH   1  16
TORSDOF 3
ENDMDL
MODEL 2
REMARK VINA RESULT:      -8.7      0.659      1.873
REMARK  3 active torsions:
REMARK  status: ('A' for Active; 'I' for Inactive)
REMARK    1  A    between atoms: C_3  and  N_4 
REMARK       I    between atoms: N_4  and  C_5 
REMARK    2  A    between atoms: C_5  and  C_6 
REMARK    3  A    between atoms: C_8  and  N_9 
REMARK       I    between atoms: N_9  and  C_10 
ROOT
HETATM    1  N   UNL     1       7.613  25.268  55.230  1.00  0.00    -0.321 N 
HETATM    2  C   UNL     1       6.446  25.792  55.760  1.00  0.00     0.256 C 
HETATM    3  O   UNL     1       5.342  25.261  55.787  1.00  0.00    -0.267 OA
HETATM    4  H   UNL     1       8.463  25.771  55.445  1.00  0.00     0.169 HD
ENDROOT
BRANCH   2   5
HETATM    5  C   UNL     1       6.583  27.131  56.403  1.00  0.00     0.034 A 
HETATM    6  C   UNL     1       7.835  27.653  56.757  1.00  0.00     0.046 A 
HETATM    7  C   UNL     1       7.938  28.904  57.366  1.00  0.00     0.035 A 
HETATM    8  C   UNL     1       6.767  29.615  57.660  1.00  0.00     0.029 A 
HETATM    9  C   UNL     1       5.515  29.089  57.335  1.00  0.00     0.003 A 
HETATM   10  C   UNL     1       5.420  27.848  56.708  1.00  0.00     0.017 A 
BRANCH   7  11
HETATM   11  N   UNL     1       9.167  29.496  57.726  1.00  0.00    -0.327 N 
HETATM   12  C   UNL     1      10.178  29.901  56.870  1.00  0.00     0.218 C 
HETATM   13  C   UNL     1      11.379  30.453  57.597  1.00  0.00     0.117 C 
HETATM   14  O   UNL     1      10.149  29.875  55.644  1.00  0.00    -0.274 OA
HETATM   15  H   UNL     1       9.294  29.690  58.711  1.00  0.00     0.169 HD
ENDBRANCH   7  11
ENDBRANCH   2   5
BRANCH   1  16
HETATM   16  C   UNL     1       7.801  23.955  54.723  1.00  0.00     0.065 A 
HETATM   17  C   UNL     1       8.171  22.842  55.496  1.00  0.00    -0.031 A 
HETATM   18  C   UNL     1       8.265  22.828  56.996  1.00  0.00     0.050 C 
HETATM   19  C   UNL     1       8.423  21.625  54.840  1.00  0.00     0.035 A 
HETATM   20  C   UNL     1       8.230  21.517  53.470  1.00  0.00     0.031 A 
HETATM   21  N   UNL     1       7.784  22.547  52.726  1.00  0.00    -0.256 NA
HETATM   22  C   UNL     1       8.513  20.227  52.763  1.00  0.00     0.070 C 
HETATM   23  C   UNL     1       7.573  23.738  53.346  1.00  0.00     0.058 A 
HETATM   24  C   UNL     1       7.119  24.841  52.428  1.00  0.00     0.073 C 
ENDBRANCH   1  16
TORSDOF 3
ENDMDL
MODEL 3
REMARK VINA RESULT:      -8.5      2.007      7.571
REMARK  3 active torsions:
REMARK  status: ('A' for Active; 'I' for Inactive)
REMARK    1  A    between atoms: C_3  and  N_4 
REMARK       I    between atoms: N_4  and  C_5 
REMARK    2  A    between atoms: C_5  and  C_6 
REMARK    3  A    between atoms: C_8  and  N_9 
REMARK       I    between atoms: N_9  and  C_10 
ROOT
HETATM    1  N   UNL     1       7.771  28.239  56.266  1.00  0.00    -0.321 N 
HETATM    2  C   UNL     1       7.811  26.880  56.529  1.00  0.00     0.256 C 
HETATM    3  O   UNL     1       8.264  26.332  57.526  1.00  0.00    -0.267 OA
HETATM    4  H   UNL     1       7.211  28.522  55.474  1.00  0.00     0.169 HD
ENDROOT
BRANCH   2   5
HETATM    5  C   UNL     1       7.186  26.012  55.489  1.00  0.00     0.034 A 
HETATM    6  C   UNL     1       7.823  24.857  55.014  1.00  0.00     0.046 A 
HETATM    7  C   UNL     1       7.223  24.066  54.033  1.00  0.00     0.035 A 
HETATM    8  C   UNL     1       5.993  24.466  53.496  1.00  0.00     0.029 A 
HETATM    9  C   UNL     1       5.365  25.631  53.944  1.00  0.00     0.003 A 
HETATM   10  C   UNL     1       5.960  26.405  54.939  1.00  0.00     0.017 A 
BRANCH   7  11
HETATM   11  N   UNL     1       7.799  22.881  53.530  1.00  0.00    -0.327 N 
HETATM   12  C   UNL     1       7.941  21.675  54.197  1.00  0.00     0.218 C 
HETATM   13  C   UNL     1       8.647  20.626  53.374  1.00  0.00     0.117 C 
HETATM   14  O   UNL     1       7.529  21.413  55.322  1.00  0.00    -0.274 OA
HETATM   15  H   UNL     1       8.089  22.905  52.560  1.00  0.00     0.169 HD
ENDBRANCH   7  11
ENDBRANCH   2   5
BRANCH   1  16
HETATM   16  C   UNL     1       8.132  29.286  57.155  1.00  0.00     0.065 A 
HETATM   17  C   UNL     1       9.448  29.698  57.418  1.00  0.00    -0.031 A 
HETATM   18  C   UNL     1      10.666  29.212  56.682  1.00  0.00     0.050 C 
HETATM   19  C   UNL     1       9.661  30.679  58.402  1.00  0.00     0.035 A 
HETATM   20  C   UNL     1       8.580  31.275  59.037  1.00  0.00     0.031 A 
HETATM   21  N   UNL     1       7.307  30.962  58.731  1.00  0.00    -0.256 NA
HETATM   22  C   UNL     1       8.801  32.309  60.098  1.00  0.00     0.070 C 
HETATM   23  C   UNL     1       7.093  29.989  57.806  1.00  0.00     0.058 A 
HETATM   24  C   UNL     1       5.641  29.675  57.562  1.00  0.00     0.073 C 
ENDBRANCH   1  16
TORSDOF 3
ENDMDL
MODEL 4
REMARK VINA RESULT:      -8.4      2.160      7.474
REMARK  3 active torsions:
REMARK  status: ('A' for Active; 'I' for Inactive)
REMARK    1  A    between atoms: C_3  and  N_4 
REMARK       I    between atoms: N_4  and  C_5 
REMARK    2  A    between atoms: C_5  and  C_6 
REMARK    3  A    between atoms: C_8  and  N_9 
REMARK       I    between atoms: N_9  and  C_10 
ROOT
HETATM    1  N   UNL     1       6.935  27.420  55.888  1.00  0.00    -0.321 N 
HETATM    2  C   UNL     1       7.280  27.334  54.550  1.00  0.00     0.256 C 
HETATM    3  O   UNL     1       7.529  28.261  53.790  1.00  0.00    -0.267 OA
HETATM    4  H   UNL     1       6.930  26.549  56.402  1.00  0.00     0.169 HD
ENDROOT
BRANCH   2   5
HETATM    5  C   UNL     1       7.398  25.948  54.011  1.00  0.00     0.034 A 
HETATM    6  C   UNL     1       7.338  24.825  54.848  1.00  0.00     0.046 A 
HETATM    7  C   UNL     1       7.461  23.538  54.321  1.00  0.00     0.035 A 
HETATM    8  C   UNL     1       7.689  23.385  52.948  1.00  0.00     0.029 A 
HETATM    9  C   UNL     1       7.778  24.501  52.112  1.00  0.00     0.003 A 
HETATM   10  C   UNL     1       7.633  25.782  52.641  1.00  0.00     0.017 A 
BRANCH   7  11
HETATM   11  N   UNL     1       7.387  22.367  55.104  1.00  0.00    -0.327 N 
HETATM   12  C   UNL     1       8.434  21.530  55.450  1.00  0.00     0.218 C 
HETATM   13  C   UNL     1       7.992  20.337  56.261  1.00  0.00     0.117 C 
HETATM   14  O   UNL     1       9.620  21.700  55.186  1.00  0.00    -0.274 OA
HETATM   15  H   UNL     1       6.479  22.152  55.497  1.00  0.00     0.169 HD
ENDBRANCH   7  11
ENDBRANCH   2   5
BRANCH   1  16
HETATM   16  C   UNL     1       6.925  28.593  56.689  1.00  0.00     0.065 A 
HETATM   17  C   UNL     1       8.058  29.164  57.290  1.00  0.00    -0.031 A 
HETATM   18  C   UNL     1       9.475  28.724  57.049  1.00  0.00     0.050 C 
HETATM   19  C   UNL     1       7.880  30.268  58.142  1.00  0.00     0.035 A 
HETATM   20  C   UNL     1       6.618  30.819  58.315  1.00  0.00     0.031 A 
HETATM   21  N   UNL     1       5.534  30.345  57.673  1.00  0.00    -0.256 NA
HETATM   22  C   UNL     1       6.421  31.985  59.235  1.00  0.00     0.070 C 
HETATM   23  C   UNL     1       5.691  29.255  56.875  1.00  0.00     0.058 A 
HETATM   24  C   UNL     1       4.418  28.769  56.236  1.00  0.00     0.073 C 
ENDBRANCH   1  16
TORSDOF 3
ENDMDL
MODEL 5
REMARK VINA RESULT:      -8.4      4.311      9.525
REMARK  3 active torsions:
REMARK  status: ('A' for Active; 'I' for Inactive)
REMARK    1  A    between atoms: C_3  and  N_4 
REMARK       I    between atoms: N_4  and  C_5 
REMARK    2  A    between atoms: C_5  and  C_6 
REMARK    3  A    between atoms: C_8  and  N_9 
REMARK       I    between atoms: N_9  and  C_10 
ROOT
HETATM    1  N   UNL     1       7.657  31.154  60.199  1.00  0.00    -0.321 N 
HETATM    2  C   UNL     1       8.623  31.484  59.264  1.00  0.00     0.256 C 
HETATM    3  O   UNL     1       9.289  32.511  59.220  1.00  0.00    -0.267 OA
HETATM    4  H   UNL     1       7.329  30.197  60.179  1.00  0.00     0.169 HD
ENDROOT
BRANCH   2   5
HETATM    5  C   UNL     1       8.896  30.440  58.234  1.00  0.00     0.034 A 
HETATM    6  C   UNL     1       8.015  29.372  58.018  1.00  0.00     0.046 A 
HETATM    7  C   UNL     1       8.296  28.401  57.054  1.00  0.00     0.035 A 
HETATM    8  C   UNL     1       9.496  28.485  56.336  1.00  0.00     0.029 A 
HETATM    9  C   UNL     1      10.392  29.532  56.566  1.00  0.00     0.003 A 
HETATM   10  C   UNL     1      10.094  30.510  57.513  1.00  0.00     0.017 A 
BRANCH   7  11
HETATM   11  N   UNL     1       7.442  27.315  56.772  1.00  0.00    -0.327 N 
HETATM   12  C   UNL     1       7.377  26.109  57.450  1.00  0.00     0.218 C 
HETATM   13  C   UNL     1       6.379  25.149  56.851  1.00  0.00     0.117 C 
HETATM   14  O   UNL     1       8.009  25.804  58.456  1.00  0.00    -0.274 OA
HETATM   15  H   UNL     1       6.771  27.460  56.028  1.00  0.00     0.169 HD
ENDBRANCH   7  11
ENDBRANCH   2   5
BRANCH   1  16
HETATM   16  C   UNL     1       7.329  31.880  61.374  1.00  0.00     0.065 A 
HETATM   17  C   UNL     1       6.357  32.891  61.448  1.00  0.00    -0.031 A 
HETATM   18  C   UNL     1       5.400  33.248  60.344  1.00  0.00     0.050 C 
HETATM   19  C   UNL     1       6.213  33.597  62.654  1.00  0.00     0.035 A 
HETATM   20  C   UNL     1       6.967  33.241  63.764  1.00  0.00     0.031 A 
HETATM   21  N   UNL     1       7.836  32.213  63.741  1.00  0.00    -0.256 NA
HETATM   22  C   UNL     1       6.830  34.001  65.049  1.00  0.00     0.070 C 
HETATM   23  C   UNL     1       8.007  31.548  62.568  1.00  0.00     0.058 A 
HETATM   24  C   UNL     1       9.030  30.446  62.626  1.00  0.00     0.073 C 
ENDBRANCH   1  16
TORSDOF 3
ENDMDL
MODEL 6
REMARK VINA RESULT:      -8.3      2.034      2.323
REMARK  3 active torsions:
REMARK  status: ('A' for Active; 'I' for Inactive)
REMARK    1  A    between atoms: C_3  and  N_4 
REMARK       I    between atoms: N_4  and  C_5 
REMARK    2  A    between atoms: C_5  and  C_6 
REMARK    3  A    between atoms: C_8  and  N_9 
REMARK       I    between atoms: N_9  and  C_10 
ROOT
HETATM    1  N   UNL     1       7.164  26.480  55.894  1.00  0.00    -0.321 N 
HETATM    2  C   UNL     1       7.621  27.747  55.571  1.00  0.00     0.256 C 
HETATM    3  O   UNL     1       8.336  28.056  54.626  1.00  0.00    -0.267 OA
HETATM    4  H   UNL     1       6.449  26.434  56.607  1.00  0.00     0.169 HD
ENDROOT
BRANCH   2   5
HETATM    5  C   UNL     1       7.140  28.843  56.460  1.00  0.00     0.034 A 
HETATM    6  C   UNL     1       7.769  29.132  57.680  1.00  0.00     0.046 A 
HETATM    7  C   UNL     1       7.295  30.157  58.500  1.00  0.00     0.035 A 
HETATM    8  C   UNL     1       6.152  30.866  58.109  1.00  0.00     0.029 A 
HETATM    9  C   UNL     1       5.503  30.565  56.909  1.00  0.00     0.003 A 
HETATM   10  C   UNL     1       5.995  29.555  56.084  1.00  0.00     0.017 A 
BRANCH   7  11
HETATM   11  N   UNL     1       7.895  30.512  59.726  1.00  0.00    -0.327 N 
HETATM   12  C   UNL     1       8.804  31.534  59.942  1.00  0.00     0.218 C 
HETATM   13  C   UNL     1       9.281  31.606  61.372  1.00  0.00     0.117 C 
HETATM   14  O   UNL     1       9.195  32.349  59.113  1.00  0.00    -0.274 OA
HETATM   15  H   UNL     1       7.582  29.996  60.539  1.00  0.00     0.169 HD
ENDBRANCH   7  11
ENDBRANCH   2   5
BRANCH   1  16
HETATM   16  C   UNL     1       7.324  25.298  55.123  1.00  0.00     0.065 A 
HETATM   17  C   UNL     1       6.709  25.059  53.883  1.00  0.00    -0.031 A 
HETATM   18  C   UNL     1       5.923  26.074  53.102  1.00  0.00     0.050 C 
HETATM   19  C   UNL     1       6.876  23.799  53.284  1.00  0.00     0.035 A 
HETATM   20  C   UNL     1       7.696  22.848  53.876  1.00  0.00     0.031 A 
HETATM   21  N   UNL     1       8.369  23.092  55.016  1.00  0.00    -0.256 NA
HETATM   22  C   UNL     1       7.864  21.497  53.250  1.00  0.00     0.070 C 
HETATM   23  C   UNL     1       8.185  24.295  55.621  1.00  0.00     0.058 A 
HETATM   24  C   UNL     1       8.942  24.460  56.912  1.00  0.00     0.073 C 
ENDBRANCH   1  16
TORSDOF 3
ENDMDL
MODEL 7
REMARK VINA RESULT:      -8.1      3.895      6.354
REMARK  3 active torsions:
REMARK  status: ('A' for Active; 'I' for Inactive)
REMARK    1  A    between atoms: C_3  and  N_4 
REMARK       I    between atoms: N_4  and  C_5 
REMARK    2  A    between atoms: C_5  and  C_6 
REMARK    3  A    between atoms: C_8  and  N_9 
REMARK       I    between atoms: N_9  and  C_10 
ROOT
HETATM    1  N   UNL     1       6.235  24.947  53.643  1.00  0.00    -0.321 N 
HETATM    2  C   UNL     1       6.760  26.131  53.153  1.00  0.00     0.256 C 
HETATM    3  O   UNL     1       7.846  26.627  53.426  1.00  0.00    -0.267 OA
HETATM    4  H   UNL     1       5.402  24.607  53.183  1.00  0.00     0.169 HD
ENDROOT
BRANCH   2   5
HETATM    5  C   UNL     1       5.911  26.838  52.151  1.00  0.00     0.034 A 
HETATM    6  C   UNL     1       5.212  26.140  51.156  1.00  0.00     0.046 A 
HETATM    7  C   UNL     1       4.430  26.824  50.224  1.00  0.00     0.035 A 
HETATM    8  C   UNL     1       4.389  28.224  50.267  1.00  0.00     0.029 A 
HETATM    9  C   UNL     1       5.106  28.927  51.239  1.00  0.00     0.003 A 
HETATM   10  C   UNL     1       5.866  28.236  52.181  1.00  0.00     0.017 A 
BRANCH   7  11
HETATM   11  N   UNL     1       3.685  26.182  49.213  1.00  0.00    -0.327 N 
HETATM   12  C   UNL     1       4.001  26.105  47.867  1.00  0.00     0.218 C 
HETATM   13  C   UNL     1       2.956  25.379  47.056  1.00  0.00     0.117 C 
HETATM   14  O   UNL     1       5.021  26.530  47.333  1.00  0.00    -0.274 OA
HETATM   15  H   UNL     1       2.861  25.679  49.520  1.00  0.00     0.169 HD
ENDBRANCH   7  11
ENDBRANCH   2   5
BRANCH   1  16
HETATM   16  C   UNL     1       6.901  23.999  54.464  1.00  0.00     0.065 A 
HETATM   17  C   UNL     1       7.670  22.925  53.988  1.00  0.00    -0.031 A 
HETATM   18  C   UNL     1       8.045  22.706  52.549  1.00  0.00     0.050 C 
HETATM   19  C   UNL     1       8.184  22.004  54.917  1.00  0.00     0.035 A 
HETATM   20  C   UNL     1       7.995  22.206  56.277  1.00  0.00     0.031 A 
HETATM   21  N   UNL     1       7.341  23.281  56.758  1.00  0.00    -0.256 NA
HETATM   22  C   UNL     1       8.526  21.219  57.272  1.00  0.00     0.070 C 
HETATM   23  C   UNL     1       6.810  24.157  55.865  1.00  0.00     0.058 A 
HETATM   24  C   UNL     1       6.060  25.301  56.493  1.00  0.00     0.073 C 
ENDBRANCH   1  16
TORSDOF 3
ENDMDL
MODEL 8
REMARK VINA RESULT:      -8.0      2.007      7.558
REMARK  3 active torsions:
REMARK  status: ('A' for Active; 'I' for Inactive)
REMARK    1  A    between atoms: C_3  and  N_4 
REMARK       I    between atoms: N_4  and  C_5 
REMARK    2  A    between atoms: C_5  and  C_6 
REMARK    3  A    between atoms: C_8  and  N_9 
REMARK       I    between atoms: N_9  and  C_10 
ROOT
HETATM    1  N   UNL     1       7.924  28.321  55.912  1.00  0.00    -0.321 N 
HETATM    2  C   UNL     1       7.672  26.964  56.030  1.00  0.00     0.256 C 
HETATM    3  O   UNL     1       7.553  26.322  57.066  1.00  0.00    -0.267 OA
HETATM    4  H   UNL     1       7.823  28.712  54.985  1.00  0.00     0.169 HD
ENDROOT
BRANCH   2   5
HETATM    5  C   UNL     1       7.483  26.237  54.741  1.00  0.00     0.034 A 
HETATM    6  C   UNL     1       7.510  24.837  54.676  1.00  0.00     0.046 A 
HETATM    7  C   UNL     1       7.341  24.179  53.456  1.00  0.00     0.035 A 
HETATM    8  C   UNL     1       7.187  24.939  52.290  1.00  0.00     0.029 A 
HETATM    9  C   UNL     1       7.186  26.334  52.344  1.00  0.00     0.003 A 
HETATM   10  C   UNL     1       7.334  26.985  53.568  1.00  0.00     0.017 A 
BRANCH   7  11
HETATM   11  N   UNL     1       7.335  22.774  53.325  1.00  0.00    -0.327 N 
HETATM   12  C   UNL     1       8.372  21.906  53.625  1.00  0.00     0.218 C 
HETATM   13  C   UNL     1       8.041  20.466  53.320  1.00  0.00     0.117 C 
HETATM   14  O   UNL     1       9.454  22.207  54.119  1.00  0.00    -0.274 OA
HETATM   15  H   UNL     1       6.459  22.359  53.031  1.00  0.00     0.169 HD
ENDBRANCH   7  11
ENDBRANCH   2   5
BRANCH   1  16
HETATM   16  C   UNL     1       7.970  29.271  56.967  1.00  0.00     0.065 A 
HETATM   17  C   UNL     1       6.846  29.787  57.630  1.00  0.00    -0.031 A 
HETATM   18  C   UNL     1       5.436  29.299  57.446  1.00  0.00     0.050 C 
HETATM   19  C   UNL     1       7.037  30.801  58.585  1.00  0.00     0.035 A 
HETATM   20  C   UNL     1       8.321  31.218  58.911  1.00  0.00     0.031 A 
HETATM   21  N   UNL     1       9.417  30.668  58.355  1.00  0.00    -0.256 NA
HETATM   22  C   UNL     1       8.530  32.310  59.916  1.00  0.00     0.070 C 
HETATM   23  C   UNL     1       9.239  29.712  57.405  1.00  0.00     0.058 A 
HETATM   24  C   UNL     1      10.517  29.189  56.807  1.00  0.00     0.073 C 
ENDBRANCH   1  16
TORSDOF 3
ENDMDL
MODEL 9
REMARK VINA RESULT:      -7.8      2.362      3.759
REMARK  3 active torsions:
REMARK  status: ('A' for Active; 'I' for Inactive)
REMARK    1  A    between atoms: C_3  and  N_4 
REMARK       I    between atoms: N_4  and  C_5 
REMARK    2  A    between atoms: C_5  and  C_6 
REMARK    3  A    between atoms: C_8  and  N_9 
REMARK       I    between atoms: N_9  and  C_10 
ROOT
HETATM    1  N   UNL     1       6.950  25.625  55.308  1.00  0.00    -0.321 N 
HETATM    2  C   UNL     1       5.984  25.895  56.263  1.00  0.00     0.256 C 
HETATM    3  O   UNL     1       5.246  25.090  56.816  1.00  0.00    -0.267 OA
HETATM    4  H   UNL     1       7.579  26.384  55.085  1.00  0.00     0.169 HD
ENDROOT
BRANCH   2   5
HETATM    5  C   UNL     1       5.884  27.324  56.680  1.00  0.00     0.034 A 
HETATM    6  C   UNL     1       4.780  28.116  56.334  1.00  0.00     0.046 A 
HETATM    7  C   UNL     1       4.712  29.453  56.728  1.00  0.00     0.035 A 
HETATM    8  C   UNL     1       5.785  30.007  57.438  1.00  0.00     0.029 A 
HETATM    9  C   UNL     1       6.901  29.232  57.762  1.00  0.00     0.003 A 
HETATM   10  C   UNL     1       6.952  27.891  57.385  1.00  0.00     0.017 A 
BRANCH   7  11
HETATM   11  N   UNL     1       3.621  30.297  56.432  1.00  0.00    -0.327 N 
HETATM   12  C   UNL     1       3.469  31.099  55.313  1.00  0.00     0.218 C 
HETATM   13  C   UNL     1       2.197  31.910  55.339  1.00  0.00     0.117 C 
HETATM   14  O   UNL     1       4.231  31.163  54.354  1.00  0.00    -0.274 OA
HETATM   15  H   UNL     1       2.847  30.267  57.084  1.00  0.00     0.169 HD
ENDBRANCH   7  11
ENDBRANCH   2   5
BRANCH   1  16
HETATM   16  C   UNL     1       7.371  24.343  54.865  1.00  0.00     0.065 A 
HETATM   17  C   UNL     1       8.235  23.494  55.574  1.00  0.00    -0.031 A 
HETATM   18  C   UNL     1       8.718  23.732  56.977  1.00  0.00     0.050 C 
HETATM   19  C   UNL     1       8.649  22.296  54.964  1.00  0.00     0.035 A 
HETATM   20  C   UNL     1       8.145  21.936  53.722  1.00  0.00     0.031 A 
HETATM   21  N   UNL     1       7.241  22.691  53.068  1.00  0.00    -0.256 NA
HETATM   22  C   UNL     1       8.595  20.670  53.060  1.00  0.00     0.070 C 
HETATM   23  C   UNL     1       6.863  23.868  53.635  1.00  0.00     0.058 A 
HETATM   24  C   UNL     1       5.887  24.665  52.812  1.00  0.00     0.073 C 
ENDBRANCH   1  16
TORSDOF 3
ENDMDL
MODEL 10
REMARK VINA RESULT:      -7.8      2.956      5.112
REMARK  3 active torsions:
REMARK  status: ('A' for Active; 'I' for Inactive)
REMARK    1  A    between atoms: C_3  and  N_4 
REMARK       I    between atoms: N_4  and  C_5 
REMARK    2  A    between atoms: C_5  and  C_6 
REMARK    3  A    between atoms: C_8  and  N_9 
REMARK       I    between atoms: N_9  and  C_10 
ROOT
HETATM    1  N   UNL     1       7.626  28.087  57.298  1.00  0.00    -0.321 N 
HETATM    2  C   UNL     1       8.681  28.962  57.100  1.00  0.00     0.256 C 
HETATM    3  O   UNL     1       9.427  29.013  56.130  1.00  0.00    -0.267 OA
HETATM    4  H   UNL     1       7.015  28.297  58.076  1.00  0.00     0.169 HD
ENDROOT
BRANCH   2   5
HETATM    5  C   UNL     1       8.883  29.971  58.179  1.00  0.00     0.034 A 
HETATM    6  C   UNL     1       8.012  30.061  59.275  1.00  0.00     0.046 A 
HETATM    7  C   UNL     1       8.216  31.020  60.268  1.00  0.00     0.035 A 
HETATM    8  C   UNL     1       9.278  31.923  60.133  1.00  0.00     0.029 A 
HETATM    9  C   UNL     1      10.133  31.857  59.031  1.00  0.00     0.003 A 
HETATM   10  C   UNL     1       9.937  30.883  58.053  1.00  0.00     0.017 A 
BRANCH   7  11
HETATM   11  N   UNL     1       7.391  31.149  61.406  1.00  0.00    -0.327 N 
HETATM   12  C   UNL     1       6.367  32.062  61.592  1.00  0.00     0.218 C 
HETATM   13  C   UNL     1       5.719  31.951  62.950  1.00  0.00     0.117 C 
HETATM   14  O   UNL     1       5.958  32.876  60.770  1.00  0.00    -0.274 OA
HETATM   15  H   UNL     1       7.534  30.463  62.137  1.00  0.00     0.169 HD
ENDBRANCH   7  11
ENDBRANCH   2   5
BRANCH   1  16
HETATM   16  C   UNL     1       7.110  27.153  56.360  1.00  0.00     0.065 A 
HETATM   17  C   UNL     1       7.552  25.828  56.222  1.00  0.00    -0.031 A 
HETATM   18  C   UNL     1       8.518  25.141  57.146  1.00  0.00     0.050 C 
HETATM   19  C   UNL     1       7.021  25.049  55.179  1.00  0.00     0.035 A 
HETATM   20  C   UNL     1       6.026  25.565  54.361  1.00  0.00     0.031 A 
HETATM   21  N   UNL     1       5.521  26.801  54.537  1.00  0.00    -0.256 NA
HETATM   22  C   UNL     1       5.468  24.746  53.237  1.00  0.00     0.070 C 
HETATM   23  C   UNL     1       6.054  27.574  55.521  1.00  0.00     0.058 A 
HETATM   24  C   UNL     1       5.459  28.953  55.614  1.00  0.00     0.073 C 
ENDBRANCH   1  16
TORSDOF 3
ENDMDL
