MODEL 1
REMARK VINA RESULT:     -10.7      0.000      0.000
REMARK  9 active torsions:
REMARK  status: ('A' for Active; 'I' for Inactive)
REMARK    1  A    between atoms: C_3  and  N_4 
REMARK       I    between atoms: N_4  and  C_5 
REMARK    2  A    between atoms: C_5  and  C_6 
REMARK    3  A    between atoms: C_6  and  S_7 
REMARK    4  A    between atoms: S_7  and  C_8 
REMARK    5  A    between atoms: N_9  and  C_10 
REMARK    6  A    between atoms: C_10  and  C_11 
REMARK       I    between atoms: C_11  and  N_12 
REMARK    7  A    between atoms: N_12  and  C_13 
REMARK    8  A    between atoms: C_15  and  O_16 
REMARK    9  A    between atoms: C_21  and  C_22 
ROOT
HETATM    1  C   UNL     1       6.351  28.288  56.688  1.00  0.00     0.169 A 
HETATM    2  N   UNL     1       6.585  27.589  55.529  1.00  0.00    -0.315 N 
HETATM    3  C   UNL     1       5.492  27.795  54.702  1.00  0.00     0.065 A 
HETATM    4  C   UNL     1       4.683  28.657  55.420  1.00  0.00     0.150 A 
HETATM    5  N   UNL     1       5.223  28.949  56.641  1.00  0.00    -0.234 NA
ENDROOT
BRANCH   1   6
HETATM    6  S   UNL     1       7.426  28.321  58.042  1.00  0.00    -0.083 SA
BRANCH   6   7
HETATM    7  C   UNL     1       8.471  29.755  57.620  1.00  0.00     0.185 C 
BRANCH   7   8
HETATM    8  C   UNL     1       8.475  30.847  58.684  1.00  0.00     0.231 C 
HETATM    9  N   UNL     1       7.634  30.618  59.757  1.00  0.00    -0.326 N 
HETATM   10  H   UNL     1       6.894  29.951  59.578  1.00  0.00     0.169 HD
HETATM   11  O   UNL     1       9.217  31.821  58.561  1.00  0.00    -0.272 OA
BRANCH   9  12
HETATM   12  C   UNL     1       7.459  31.474  60.865  1.00  0.00     0.046 A 
HETATM   13  C   UNL     1       8.352  31.333  61.954  1.00  0.00    -0.035 A 
HETATM   14  C   UNL     1       9.411  30.262  61.986  1.00  0.00     0.050 C 
HETATM   15  C   UNL     1       8.225  32.178  63.068  1.00  0.00     0.009 A 
HETATM   16  C   UNL     1       7.235  33.154  63.107  1.00  0.00     0.001 A 
HETATM   17  C   UNL     1       6.375  33.312  62.025  1.00  0.00     0.009 A 
HETATM   18  C   UNL     1       6.488  32.497  60.883  1.00  0.00    -0.035 A 
HETATM   19  C   UNL     1       5.587  32.818  59.721  1.00  0.00     0.050 C 
ENDBRANCH   9  12
ENDBRANCH   7   8
ENDBRANCH   6   7
ENDBRANCH   1   6
BRANCH   2  20
HETATM   20  C   UNL     1       7.774  26.816  55.214  1.00  0.00     0.234 C 
BRANCH  20  21
HETATM   21  C   UNL     1       7.642  25.307  55.363  1.00  0.00     0.240 C 
HETATM   22  N   UNL     1       8.271  24.531  54.404  1.00  0.00    -0.326 N 
HETATM   23  H   UNL     1       8.715  25.002  53.626  1.00  0.00     0.169 HD
HETATM   24  O   UNL     1       7.046  24.867  56.347  1.00  0.00    -0.271 OA
BRANCH  22  25
HETATM   25  C   UNL     1       8.348  23.121  54.353  1.00  0.00     0.037 A 
HETATM   26  C   UNL     1       8.953  22.331  55.334  1.00  0.00     0.066 A 
HETATM   27  C   UNL     1       8.987  20.944  55.185  1.00  0.00     0.067 A 
HETATM   28  C   UNL     1       8.429  20.327  54.074  1.00  0.00     0.036 A 
HETATM   29  C   UNL     1       7.823  21.105  53.091  1.00  0.00     0.005 A 
HETATM   30  C   UNL     1       7.784  22.495  53.231  1.00  0.00     0.029 A 
BRANCH  27  31
HETATM   31  O   UNL     1       9.569  20.147  56.127  1.00  0.00    -0.361 OA
HETATM   32  H   UNL     1       9.837  20.701  56.878  1.00  0.00     0.217 HD
ENDBRANCH  27  31
ENDBRANCH  22  25
ENDBRANCH  20  21
ENDBRANCH   2  20
BRANCH   3  33
HETATM   33  C   UNL     1       5.295  27.256  53.361  1.00  0.00    -0.008 A 
HETATM   34  C   UNL     1       5.446  28.063  52.224  1.00  0.00     0.017 A 
HETATM   35  C   UNL     1       5.279  27.519  50.948  1.00  0.00     0.043 A 
HETATM   36  C   UNL     1       4.972  26.171  50.809  1.00  0.00     0.116 A 
HETATM   37  F   UNL     1       4.821  25.652  49.585  1.00  0.00    -0.206 F 
HETATM   38  C   UNL     1       4.830  25.354  51.923  1.00  0.00     0.043 A 
HETATM   39  C   UNL     1       4.994  25.896  53.200  1.00  0.00     0.017 A 
ENDBRANCH   3  33
TORSDOF 9
ENDMDL
MODEL 2
REMARK VINA RESULT:     -10.6      0.784      1.990
REMARK  9 active torsions:
REMARK  status: ('A' for Active; 'I' for Inactive)
REMARK    1  A    between atoms: C_3  and  N_4 
REMARK       I    between atoms: N_4  and  C_5 
REMARK    2  A    between atoms: C_5  and  C_6 
REMARK    3  A    between atoms: C_6  and  S_7 
REMARK    4  A    between atoms: S_7  and  C_8 
REMARK    5  A    between atoms: N_9  and  C_10 
REMARK    6  A    between atoms: C_10  and  C_11 
REMARK       I    between atoms: C_11  and  N_12 
REMARK    7  A    between atoms: N_12  and  C_13 
REMARK    8  A    between atoms: C_15  and  O_16 
REMARK    9  A    between atoms: C_21  and  C_22 
ROOT
HETATM    1  C   UNL     1       6.255  28.466  56.375  1.00  0.00     0.169 A 
HETATM    2  N   UNL     1       6.504  27.721  55.249  1.00  0.00    -0.315 N 
HETATM    3  C   UNL     1       5.497  28.006  54.340  1.00  0.00     0.065 A 
HETATM    4  C   UNL     1       4.722  28.956  54.984  1.00  0.00     0.150 A 
HETATM    5  N   UNL     1       5.199  29.225  56.235  1.00  0.00    -0.234 NA
ENDROOT
BRANCH   1   6
HETATM    6  S   UNL     1       7.230  28.433  57.803  1.00  0.00    -0.083 SA
BRANCH   6   7
HETATM    7  C   UNL     1       8.425  29.761  57.437  1.00  0.00     0.185 C 
BRANCH   7   8
HETATM    8  C   UNL     1       8.534  30.810  58.538  1.00  0.00     0.231 C 
HETATM    9  N   UNL     1       7.645  30.651  59.585  1.00  0.00    -0.326 N 
HETATM   10  H   UNL     1       6.833  30.086  59.366  1.00  0.00     0.169 HD
HETATM   11  O   UNL     1       9.391  31.689  58.465  1.00  0.00    -0.272 OA
BRANCH   9  12
HETATM   12  C   UNL     1       7.546  31.487  60.717  1.00  0.00     0.046 A 
HETATM   13  C   UNL     1       6.503  32.444  60.739  1.00  0.00    -0.035 A 
HETATM   14  C   UNL     1       5.568  32.636  59.575  1.00  0.00     0.050 C 
HETATM   15  C   UNL     1       6.357  33.282  61.857  1.00  0.00     0.009 A 
HETATM   16  C   UNL     1       7.221  33.176  62.940  1.00  0.00     0.001 A 
HETATM   17  C   UNL     1       8.229  32.216  62.930  1.00  0.00     0.009 A 
HETATM   18  C   UNL     1       8.390  31.345  61.838  1.00  0.00    -0.035 A 
HETATM   19  C   UNL     1       9.434  30.269  61.969  1.00  0.00     0.050 C 
ENDBRANCH   9  12
ENDBRANCH   7   8
ENDBRANCH   6   7
ENDBRANCH   1   6
BRANCH   2  20
HETATM   20  C   UNL     1       7.636  26.836  55.034  1.00  0.00     0.234 C 
BRANCH  20  21
HETATM   21  C   UNL     1       7.354  25.349  55.194  1.00  0.00     0.240 C 
HETATM   22  N   UNL     1       8.253  24.479  54.601  1.00  0.00    -0.326 N 
HETATM   23  H   UNL     1       8.997  24.873  54.039  1.00  0.00     0.169 HD
HETATM   24  O   UNL     1       6.391  25.008  55.882  1.00  0.00    -0.271 OA
BRANCH  22  25
HETATM   25  C   UNL     1       8.248  23.067  54.654  1.00  0.00     0.037 A 
HETATM   26  C   UNL     1       8.128  22.238  53.536  1.00  0.00     0.066 A 
HETATM   27  C   UNL     1       8.124  20.852  53.696  1.00  0.00     0.067 A 
HETATM   28  C   UNL     1       8.237  20.274  54.953  1.00  0.00     0.036 A 
HETATM   29  C   UNL     1       8.357  21.091  56.073  1.00  0.00     0.005 A 
HETATM   30  C   UNL     1       8.363  22.480  55.924  1.00  0.00     0.029 A 
BRANCH  27  31
HETATM   31  O   UNL     1       8.010  20.017  52.623  1.00  0.00    -0.361 OA
HETATM   32  H   UNL     1       8.311  19.132  52.887  1.00  0.00     0.217 HD
ENDBRANCH  27  31
ENDBRANCH  22  25
ENDBRANCH  20  21
ENDBRANCH   2  20
BRANCH   3  33
HETATM   33  C   UNL     1       5.346  27.456  52.998  1.00  0.00    -0.008 A 
HETATM   34  C   UNL     1       5.004  26.112  52.798  1.00  0.00     0.017 A 
HETATM   35  C   UNL     1       4.838  25.613  51.503  1.00  0.00     0.043 A 
HETATM   36  C   UNL     1       5.005  26.459  50.414  1.00  0.00     0.116 A 
HETATM   37  F   UNL     1       4.838  25.980  49.175  1.00  0.00    -0.206 F 
HETATM   38  C   UNL     1       5.333  27.797  50.593  1.00  0.00     0.043 A 
HETATM   39  C   UNL     1       5.502  28.296  51.886  1.00  0.00     0.017 A 
ENDBRANCH   3  33
TORSDOF 9
ENDMDL
MODEL 3
REMARK VINA RESULT:     -10.6      2.984      5.844
REMARK  9 active torsions:
REMARK  status: ('A' for Active; 'I' for Inactive)
REMARK    1  A    between atoms: C_3  and  N_4 
REMARK       I    between atoms: N_4  and  C_5 
REMARK    2  A    between atoms: C_5  and  C_6 
REMARK    3  A    between atoms: C_6  and  S_7 
REMARK    4  A    between atoms: S_7  and  C_8 
REMARK    5  A    between atoms: N_9  and  C_10 
REMARK    6  A    between atoms: C_10  and  C_11 
REMARK       I    between atoms: C_11  and  N_12 
REMARK    7  A    between atoms: N_12  and  C_13 
REMARK    8  A    between atoms: C_15  and  O_16 
REMARK    9  A    between atoms: C_21  and  C_22 
ROOT
HETATM    1  C   UNL     1       6.204  26.540  55.418  1.00  0.00     0.169 A 
HETATM    2  N   UNL     1       6.246  25.338  54.755  1.00  0.00    -0.315 N 
HETATM    3  C   UNL     1       7.275  24.599  55.315  1.00  0.00     0.065 A 
HETATM    4  C   UNL     1       7.760  25.410  56.326  1.00  0.00     0.150 A 
HETATM    5  N   UNL     1       7.094  26.601  56.374  1.00  0.00    -0.234 NA
ENDROOT
BRANCH   1   6
HETATM    6  S   UNL     1       5.093  27.816  55.058  1.00  0.00    -0.083 SA
BRANCH   6   7
HETATM    7  C   UNL     1       4.918  28.595  56.697  1.00  0.00     0.185 C 
BRANCH   7   8
HETATM    8  C   UNL     1       5.936  29.697  56.966  1.00  0.00     0.231 C 
HETATM    9  N   UNL     1       6.759  29.478  58.055  1.00  0.00    -0.326 N 
HETATM   10  H   UNL     1       6.401  28.808  58.726  1.00  0.00     0.169 HD
HETATM   11  O   UNL     1       5.999  30.671  56.217  1.00  0.00    -0.272 OA
BRANCH   9  12
HETATM   12  C   UNL     1       7.776  30.344  58.509  1.00  0.00     0.046 A 
HETATM   13  C   UNL     1       9.087  30.132  58.022  1.00  0.00    -0.035 A 
HETATM   14  C   UNL     1       9.426  28.980  57.112  1.00  0.00     0.050 C 
HETATM   15  C   UNL     1      10.125  30.984  58.433  1.00  0.00     0.009 A 
HETATM   16  C   UNL     1       9.874  32.035  59.307  1.00  0.00     0.001 A 
HETATM   17  C   UNL     1       8.580  32.262  59.764  1.00  0.00     0.009 A 
HETATM   18  C   UNL     1       7.512  31.442  59.355  1.00  0.00    -0.035 A 
HETATM   19  C   UNL     1       6.133  31.834  59.813  1.00  0.00     0.050 C 
ENDBRANCH   9  12
ENDBRANCH   7   8
ENDBRANCH   6   7
ENDBRANCH   1   6
BRANCH   2  20
HETATM   20  C   UNL     1       5.349  24.906  53.696  1.00  0.00     0.234 C 
BRANCH  20  21
HETATM   21  C   UNL     1       5.673  25.424  52.301  1.00  0.00     0.240 C 
HETATM   22  N   UNL     1       4.697  26.185  51.681  1.00  0.00    -0.326 N 
HETATM   23  H   UNL     1       3.806  26.293  52.149  1.00  0.00     0.169 HD
HETATM   24  O   UNL     1       6.790  25.193  51.837  1.00  0.00    -0.271 OA
BRANCH  22  25
HETATM   25  C   UNL     1       4.775  26.826  50.423  1.00  0.00     0.037 A 
HETATM   26  C   UNL     1       4.295  26.279  49.231  1.00  0.00     0.066 A 
HETATM   27  C   UNL     1       4.429  26.989  48.038  1.00  0.00     0.067 A 
HETATM   28  C   UNL     1       5.037  28.237  48.008  1.00  0.00     0.036 A 
HETATM   29  C   UNL     1       5.518  28.791  49.191  1.00  0.00     0.005 A 
HETATM   30  C   UNL     1       5.388  28.088  50.392  1.00  0.00     0.029 A 
BRANCH  27  31
HETATM   31  O   UNL     1       3.969  26.481  46.858  1.00  0.00    -0.361 OA
HETATM   32  H   UNL     1       4.290  25.568  46.768  1.00  0.00     0.217 HD
ENDBRANCH  27  31
ENDBRANCH  22  25
ENDBRANCH  20  21
ENDBRANCH   2  20
BRANCH   3  33
HETATM   33  C   UNL     1       7.692  23.253  54.940  1.00  0.00    -0.008 A 
HETATM   34  C   UNL     1       8.329  23.003  53.716  1.00  0.00     0.017 A 
HETATM   35  C   UNL     1       8.744  21.710  53.389  1.00  0.00     0.043 A 
HETATM   36  C   UNL     1       8.531  20.672  54.288  1.00  0.00     0.116 A 
HETATM   37  F   UNL     1       8.936  19.435  53.975  1.00  0.00    -0.206 F 
HETATM   38  C   UNL     1       7.911  20.901  55.510  1.00  0.00     0.043 A 
HETATM   39  C   UNL     1       7.494  22.193  55.837  1.00  0.00     0.017 A 
ENDBRANCH   3  33
TORSDOF 9
ENDMDL
MODEL 4
REMARK VINA RESULT:     -10.5      3.016      5.991
REMARK  9 active torsions:
REMARK  status: ('A' for Active; 'I' for Inactive)
REMARK    1  A    between atoms: C_3  and  N_4 
REMARK       I    between atoms: N_4  and  C_5 
REMARK    2  A    between atoms: C_5  and  C_6 
REMARK    3  A    between atoms: C_6  and  S_7 
REMARK    4  A    between atoms: S_7  and  C_8 
REMARK    5  A    between atoms: N_9  and  C_10 
REMARK    6  A    between atoms: C_10  and  C_11 
REMARK       I    between atoms: C_11  and  N_12 
REMARK    7  A    between atoms: N_12  and  C_13 
REMARK    8  A    between atoms: C_15  and  O_16 
REMARK    9  A    between atoms: C_21  and  C_22 
ROOT
HETATM    1  C   UNL     1       6.120  26.584  55.320  1.00  0.00     0.169 A 
HETATM    2  N   UNL     1       6.205  25.375  54.673  1.00  0.00    -0.315 N 
HETATM    3  C   UNL     1       7.235  24.664  55.270  1.00  0.00     0.065 A 
HETATM    4  C   UNL     1       7.675  25.497  56.284  1.00  0.00     0.150 A 
HETATM    5  N   UNL     1       6.983  26.674  56.299  1.00  0.00    -0.234 NA
ENDROOT
BRANCH   1   6
HETATM    6  S   UNL     1       4.994  27.831  54.915  1.00  0.00    -0.083 SA
BRANCH   6   7
HETATM    7  C   UNL     1       4.823  28.679  56.521  1.00  0.00     0.185 C 
BRANCH   7   8
HETATM    8  C   UNL     1       5.892  29.735  56.775  1.00  0.00     0.231 C 
HETATM    9  N   UNL     1       6.687  29.507  57.883  1.00  0.00    -0.326 N 
HETATM   10  H   UNL     1       6.284  28.876  58.567  1.00  0.00     0.169 HD
HETATM   11  O   UNL     1       6.016  30.682  55.999  1.00  0.00    -0.272 OA
BRANCH   9  12
HETATM   12  C   UNL     1       7.739  30.333  58.329  1.00  0.00     0.046 A 
HETATM   13  C   UNL     1       7.420  31.376  59.232  1.00  0.00    -0.035 A 
HETATM   14  C   UNL     1       6.003  31.662  59.655  1.00  0.00     0.050 C 
HETATM   15  C   UNL     1       8.441  32.209  59.716  1.00  0.00     0.009 A 
HETATM   16  C   UNL     1       9.760  32.016  59.322  1.00  0.00     0.001 A 
HETATM   17  C   UNL     1      10.078  30.974  58.456  1.00  0.00     0.009 A 
HETATM   18  C   UNL     1       9.084  30.105  57.970  1.00  0.00    -0.035 A 
HETATM   19  C   UNL     1       9.541  28.942  57.132  1.00  0.00     0.050 C 
ENDBRANCH   9  12
ENDBRANCH   7   8
ENDBRANCH   6   7
ENDBRANCH   1   6
BRANCH   2  20
HETATM   20  C   UNL     1       5.347  24.912  53.595  1.00  0.00     0.234 C 
BRANCH  20  21
HETATM   21  C   UNL     1       5.673  25.453  52.210  1.00  0.00     0.240 C 
HETATM   22  N   UNL     1       4.632  26.045  51.515  1.00  0.00    -0.326 N 
HETATM   23  H   UNL     1       3.708  26.021  51.928  1.00  0.00     0.169 HD
HETATM   24  O   UNL     1       6.838  25.390  51.818  1.00  0.00    -0.271 OA
BRANCH  22  25
HETATM   25  C   UNL     1       4.688  26.671  50.250  1.00  0.00     0.037 A 
HETATM   26  C   UNL     1       4.110  26.151  49.089  1.00  0.00     0.066 A 
HETATM   27  C   UNL     1       4.230  26.843  47.883  1.00  0.00     0.067 A 
HETATM   28  C   UNL     1       4.920  28.046  47.810  1.00  0.00     0.036 A 
HETATM   29  C   UNL     1       5.499  28.572  48.961  1.00  0.00     0.005 A 
HETATM   30  C   UNL     1       5.384  27.887  50.174  1.00  0.00     0.029 A 
BRANCH  27  31
HETATM   31  O   UNL     1       3.675  26.361  46.734  1.00  0.00    -0.361 OA
HETATM   32  H   UNL     1       2.756  26.106  46.918  1.00  0.00     0.217 HD
ENDBRANCH  27  31
ENDBRANCH  22  25
ENDBRANCH  20  21
ENDBRANCH   2  20
BRANCH   3  33
HETATM   33  C   UNL     1       7.689  23.323  54.922  1.00  0.00    -0.008 A 
HETATM   34  C   UNL     1       7.497  22.242  55.794  1.00  0.00     0.017 A 
HETATM   35  C   UNL     1       7.917  20.960  55.429  1.00  0.00     0.043 A 
HETATM   36  C   UNL     1       8.517  20.759  54.193  1.00  0.00     0.116 A 
HETATM   37  F   UNL     1       8.910  19.529  53.842  1.00  0.00    -0.206 F 
HETATM   38  C   UNL     1       8.706  21.816  53.311  1.00  0.00     0.043 A 
HETATM   39  C   UNL     1       8.289  23.098  53.675  1.00  0.00     0.017 A 
ENDBRANCH   3  33
TORSDOF 9
ENDMDL
MODEL 5
REMARK VINA RESULT:     -10.2      2.426      5.546
REMARK  9 active torsions:
REMARK  status: ('A' for Active; 'I' for Inactive)
REMARK    1  A    between atoms: C_3  and  N_4 
REMARK       I    between atoms: N_4  and  C_5 
REMARK    2  A    between atoms: C_5  and  C_6 
REMARK    3  A    between atoms: C_6  and  S_7 
REMARK    4  A    between atoms: S_7  and  C_8 
REMARK    5  A    between atoms: N_9  and  C_10 
REMARK    6  A    between atoms: C_10  and  C_11 
REMARK       I    between atoms: C_11  and  N_12 
REMARK    7  A    between atoms: N_12  and  C_13 
REMARK    8  A    between atoms: C_15  and  O_16 
REMARK    9  A    between atoms: C_21  and  C_22 
ROOT
HETATM    1  C   UNL     1       7.561  27.604  56.864  1.00  0.00     0.169 A 
HETATM    2  N   UNL     1       7.633  26.864  55.709  1.00  0.00    -0.315 N 
HETATM    3  C   UNL     1       7.784  25.538  56.082  1.00  0.00     0.065 A 
HETATM    4  C   UNL     1       7.746  25.571  57.465  1.00  0.00     0.150 A 
HETATM    5  N   UNL     1       7.612  26.848  57.931  1.00  0.00    -0.234 NA
ENDROOT
BRANCH   1   6
HETATM    6  S   UNL     1       7.394  29.324  56.914  1.00  0.00    -0.083 SA
BRANCH   6   7
HETATM    7  C   UNL     1       9.013  29.809  57.599  1.00  0.00     0.185 C 
BRANCH   7   8
HETATM    8  C   UNL     1       8.928  30.890  58.671  1.00  0.00     0.231 C 
HETATM    9  N   UNL     1       8.022  30.636  59.684  1.00  0.00    -0.326 N 
HETATM   10  H   UNL     1       7.306  29.958  59.449  1.00  0.00     0.169 HD
HETATM   11  O   UNL     1       9.659  31.877  58.606  1.00  0.00    -0.272 OA
BRANCH   9  12
HETATM   12  C   UNL     1       7.759  31.477  60.786  1.00  0.00     0.046 A 
HETATM   13  C   UNL     1       6.681  32.388  60.675  1.00  0.00    -0.035 A 
HETATM   14  C   UNL     1       5.879  32.528  59.408  1.00  0.00     0.050 C 
HETATM   15  C   UNL     1       6.372  33.230  61.756  1.00  0.00     0.009 A 
HETATM   16  C   UNL     1       7.110  33.171  62.932  1.00  0.00     0.001 A 
HETATM   17  C   UNL     1       8.152  32.256  63.052  1.00  0.00     0.009 A 
HETATM   18  C   UNL     1       8.474  31.382  61.997  1.00  0.00    -0.035 A 
HETATM   19  C   UNL     1       9.541  30.354  62.263  1.00  0.00     0.050 C 
ENDBRANCH   9  12
ENDBRANCH   7   8
ENDBRANCH   6   7
ENDBRANCH   1   6
BRANCH   2  20
HETATM   20  C   UNL     1       7.526  27.373  54.352  1.00  0.00     0.234 C 
BRANCH  20  21
HETATM   21  C   UNL     1       6.120  27.717  53.883  1.00  0.00     0.240 C 
HETATM   22  N   UNL     1       6.020  28.548  52.780  1.00  0.00    -0.326 N 
HETATM   23  H   UNL     1       6.873  28.936  52.396  1.00  0.00     0.169 HD
HETATM   24  O   UNL     1       5.167  27.196  54.463  1.00  0.00    -0.271 OA
BRANCH  22  25
HETATM   25  C   UNL     1       4.842  28.964  52.119  1.00  0.00     0.037 A 
HETATM   26  C   UNL     1       4.213  28.239  51.103  1.00  0.00     0.066 A 
HETATM   27  C   UNL     1       3.058  28.741  50.505  1.00  0.00     0.067 A 
HETATM   28  C   UNL     1       2.513  29.956  50.900  1.00  0.00     0.036 A 
HETATM   29  C   UNL     1       3.131  30.685  51.912  1.00  0.00     0.005 A 
HETATM   30  C   UNL     1       4.290  30.191  52.518  1.00  0.00     0.029 A 
BRANCH  27  31
HETATM   31  O   UNL     1       2.421  28.056  49.511  1.00  0.00    -0.361 OA
HETATM   32  H   UNL     1       2.602  28.499  48.666  1.00  0.00     0.217 HD
ENDBRANCH  27  31
ENDBRANCH  22  25
ENDBRANCH  20  21
ENDBRANCH   2  20
BRANCH   3  33
HETATM   33  C   UNL     1       7.897  24.386  55.196  1.00  0.00    -0.008 A 
HETATM   34  C   UNL     1       7.056  24.239  54.084  1.00  0.00     0.017 A 
HETATM   35  C   UNL     1       7.200  23.141  53.232  1.00  0.00     0.043 A 
HETATM   36  C   UNL     1       8.188  22.198  53.487  1.00  0.00     0.116 A 
HETATM   37  F   UNL     1       8.329  21.151  52.665  1.00  0.00    -0.206 F 
HETATM   38  C   UNL     1       9.038  22.332  54.578  1.00  0.00     0.043 A 
HETATM   39  C   UNL     1       8.894  23.428  55.431  1.00  0.00     0.017 A 
ENDBRANCH   3  33
TORSDOF 9
ENDMDL
MODEL 6
REMARK VINA RESULT:     -10.0      2.399      4.992
REMARK  9 active torsions:
REMARK  status: ('A' for Active; 'I' for Inactive)
REMARK    1  A    between atoms: C_3  and  N_4 
REMARK       I    between atoms: N_4  and  C_5 
REMARK    2  A    between atoms: C_5  and  C_6 
REMARK    3  A    between atoms: C_6  and  S_7 
REMARK    4  A    between atoms: S_7  and  C_8 
REMARK    5  A    between atoms: N_9  and  C_10 
REMARK    6  A    between atoms: C_10  and  C_11 
REMARK       I    between atoms: C_11  and  N_12 
REMARK    7  A    between atoms: N_12  and  C_13 
REMARK    8  A    between atoms: C_15  and  O_16 
REMARK    9  A    between atoms: C_21  and  C_22 
ROOT
HETATM    1  C   UNL     1       6.950  27.491  57.129  1.00  0.00     0.169 A 
HETATM    2  N   UNL     1       6.657  26.683  56.057  1.00  0.00    -0.315 N 
HETATM    3  C   UNL     1       7.557  25.629  56.085  1.00  0.00     0.065 A 
HETATM    4  C   UNL     1       8.313  25.861  57.220  1.00  0.00     0.150 A 
HETATM    5  N   UNL     1       7.931  27.011  57.849  1.00  0.00    -0.234 NA
ENDROOT
BRANCH   1   6
HETATM    6  S   UNL     1       6.110  28.955  57.505  1.00  0.00    -0.083 SA
BRANCH   6   7
HETATM    7  C   UNL     1       7.506  30.113  57.705  1.00  0.00     0.185 C 
BRANCH   7   8
HETATM    8  C   UNL     1       7.268  31.185  58.762  1.00  0.00     0.231 C 
HETATM    9  N   UNL     1       7.383  30.751  60.070  1.00  0.00    -0.326 N 
HETATM   10  H   UNL     1       7.288  29.750  60.191  1.00  0.00     0.169 HD
HETATM   11  O   UNL     1       7.028  32.342  58.419  1.00  0.00    -0.272 OA
BRANCH   9  12
HETATM   12  C   UNL     1       7.210  31.547  61.222  1.00  0.00     0.046 A 
HETATM   13  C   UNL     1       8.336  31.755  62.053  1.00  0.00    -0.035 A 
HETATM   14  C   UNL     1       9.663  31.097  61.782  1.00  0.00     0.050 C 
HETATM   15  C   UNL     1       8.212  32.557  63.199  1.00  0.00     0.009 A 
HETATM   16  C   UNL     1       6.997  33.151  63.519  1.00  0.00     0.001 A 
HETATM   17  C   UNL     1       5.896  32.970  62.687  1.00  0.00     0.009 A 
HETATM   18  C   UNL     1       5.991  32.192  61.519  1.00  0.00    -0.035 A 
HETATM   19  C   UNL     1       4.780  32.148  60.626  1.00  0.00     0.050 C 
ENDBRANCH   9  12
ENDBRANCH   7   8
ENDBRANCH   6   7
ENDBRANCH   1   6
BRANCH   2  20
HETATM   20  C   UNL     1       5.579  26.874  55.103  1.00  0.00     0.234 C 
BRANCH  20  21
HETATM   21  C   UNL     1       5.969  27.526  53.784  1.00  0.00     0.240 C 
HETATM   22  N   UNL     1       5.077  27.387  52.735  1.00  0.00    -0.326 N 
HETATM   23  H   UNL     1       4.260  26.806  52.877  1.00  0.00     0.169 HD
HETATM   24  O   UNL     1       7.011  28.183  53.743  1.00  0.00    -0.271 OA
BRANCH  22  25
HETATM   25  C   UNL     1       5.177  27.945  51.440  1.00  0.00     0.037 A 
HETATM   26  C   UNL     1       5.206  27.195  50.261  1.00  0.00     0.066 A 
HETATM   27  C   UNL     1       5.317  27.841  49.030  1.00  0.00     0.067 A 
HETATM   28  C   UNL     1       5.402  29.224  48.949  1.00  0.00     0.036 A 
HETATM   29  C   UNL     1       5.373  29.980  50.117  1.00  0.00     0.005 A 
HETATM   30  C   UNL     1       5.262  29.342  51.356  1.00  0.00     0.029 A 
BRANCH  27  31
HETATM   31  O   UNL     1       5.347  27.135  47.862  1.00  0.00    -0.361 OA
HETATM   32  H   UNL     1       4.527  26.618  47.793  1.00  0.00     0.217 HD
ENDBRANCH  27  31
ENDBRANCH  22  25
ENDBRANCH  20  21
ENDBRANCH   2  20
BRANCH   3  33
HETATM   33  C   UNL     1       7.628  24.514  55.148  1.00  0.00    -0.008 A 
HETATM   34  C   UNL     1       7.942  24.718  53.797  1.00  0.00     0.017 A 
HETATM   35  C   UNL     1       8.032  23.632  52.922  1.00  0.00     0.043 A 
HETATM   36  C   UNL     1       7.817  22.345  53.400  1.00  0.00     0.116 A 
HETATM   37  F   UNL     1       7.911  21.306  52.562  1.00  0.00    -0.206 F 
HETATM   38  C   UNL     1       7.515  22.122  54.737  1.00  0.00     0.043 A 
HETATM   39  C   UNL     1       7.423  23.206  55.612  1.00  0.00     0.017 A 
ENDBRANCH   3  33
TORSDOF 9
ENDMDL
MODEL 7
REMARK VINA RESULT:      -9.9      1.501      2.314
REMARK  9 active torsions:
REMARK  status: ('A' for Active; 'I' for Inactive)
REMARK    1  A    between atoms: C_3  and  N_4 
REMARK       I    between atoms: N_4  and  C_5 
REMARK    2  A    between atoms: C_5  and  C_6 
REMARK    3  A    between atoms: C_6  and  S_7 
REMARK    4  A    between atoms: S_7  and  C_8 
REMARK    5  A    between atoms: N_9  and  C_10 
REMARK    6  A    between atoms: C_10  and  C_11 
REMARK       I    between atoms: C_11  and  N_12 
REMARK    7  A    between atoms: N_12  and  C_13 
REMARK    8  A    between atoms: C_15  and  O_16 
REMARK    9  A    between atoms: C_21  and  C_22 
ROOT
HETATM    1  C   UNL     1       8.068  28.831  56.437  1.00  0.00     0.169 A 
HETATM    2  N   UNL     1       7.111  28.093  55.785  1.00  0.00    -0.315 N 
HETATM    3  C   UNL     1       7.453  28.079  54.442  1.00  0.00     0.065 A 
HETATM    4  C   UNL     1       8.640  28.788  54.389  1.00  0.00     0.150 A 
HETATM    5  N   UNL     1       9.003  29.247  55.623  1.00  0.00    -0.234 NA
ENDROOT
BRANCH   1   6
HETATM    6  S   UNL     1       8.061  29.155  58.136  1.00  0.00    -0.083 SA
BRANCH   6   7
HETATM    7  C   UNL     1       7.148  30.733  58.184  1.00  0.00     0.185 C 
BRANCH   7   8
HETATM    8  C   UNL     1       7.552  31.642  59.339  1.00  0.00     0.231 C 
HETATM    9  N   UNL     1       6.760  31.538  60.468  1.00  0.00    -0.326 N 
HETATM   10  H   UNL     1       5.843  31.139  60.304  1.00  0.00     0.169 HD
HETATM   11  O   UNL     1       8.539  32.368  59.232  1.00  0.00    -0.272 OA
BRANCH   9  12
HETATM   12  C   UNL     1       6.926  32.269  61.663  1.00  0.00     0.046 A 
HETATM   13  C   UNL     1       6.056  33.361  61.892  1.00  0.00    -0.035 A 
HETATM   14  C   UNL     1       5.032  33.796  60.876  1.00  0.00     0.050 C 
HETATM   15  C   UNL     1       6.174  34.104  63.078  1.00  0.00     0.009 A 
HETATM   16  C   UNL     1       7.132  33.772  64.029  1.00  0.00     0.001 A 
HETATM   17  C   UNL     1       7.969  32.681  63.817  1.00  0.00     0.009 A 
HETATM   18  C   UNL     1       7.863  31.901  62.650  1.00  0.00    -0.035 A 
HETATM   19  C   UNL     1       8.734  30.677  62.564  1.00  0.00     0.050 C 
ENDBRANCH   9  12
ENDBRANCH   7   8
ENDBRANCH   6   7
ENDBRANCH   1   6
BRANCH   2  20
HETATM   20  C   UNL     1       5.979  27.417  56.395  1.00  0.00     0.234 C 
BRANCH  20  21
HETATM   21  C   UNL     1       6.011  25.896  56.347  1.00  0.00     0.240 C 
HETATM   22  N   UNL     1       7.206  25.313  55.963  1.00  0.00    -0.326 N 
HETATM   23  H   UNL     1       7.961  25.920  55.669  1.00  0.00     0.169 HD
HETATM   24  O   UNL     1       5.007  25.279  56.705  1.00  0.00    -0.271 OA
BRANCH  22  25
HETATM   25  C   UNL     1       7.509  23.934  55.897  1.00  0.00     0.037 A 
HETATM   26  C   UNL     1       7.919  23.166  56.990  1.00  0.00     0.066 A 
HETATM   27  C   UNL     1       8.205  21.811  56.819  1.00  0.00     0.067 A 
HETATM   28  C   UNL     1       8.091  21.204  55.576  1.00  0.00     0.036 A 
HETATM   29  C   UNL     1       7.682  21.960  54.481  1.00  0.00     0.005 A 
HETATM   30  C   UNL     1       7.393  23.318  54.642  1.00  0.00     0.029 A 
BRANCH  27  31
HETATM   31  O   UNL     1       8.607  21.036  57.868  1.00  0.00    -0.361 OA
HETATM   32  H   UNL     1       7.965  21.137  58.590  1.00  0.00     0.217 HD
ENDBRANCH  27  31
ENDBRANCH  22  25
ENDBRANCH  20  21
ENDBRANCH   2  20
BRANCH   3  33
HETATM   33  C   UNL     1       6.734  27.412  53.362  1.00  0.00    -0.008 A 
HETATM   34  C   UNL     1       5.545  27.944  52.843  1.00  0.00     0.017 A 
HETATM   35  C   UNL     1       4.888  27.302  51.790  1.00  0.00     0.043 A 
HETATM   36  C   UNL     1       5.423  26.138  51.252  1.00  0.00     0.116 A 
HETATM   37  F   UNL     1       4.796  25.530  50.239  1.00  0.00    -0.206 F 
HETATM   38  C   UNL     1       6.606  25.602  51.746  1.00  0.00     0.043 A 
HETATM   39  C   UNL     1       7.263  26.241  52.800  1.00  0.00     0.017 A 
ENDBRANCH   3  33
TORSDOF 9
ENDMDL
MODEL 8
REMARK VINA RESULT:      -9.9      3.563      9.469
REMARK  9 active torsions:
REMARK  status: ('A' for Active; 'I' for Inactive)
REMARK    1  A    between atoms: C_3  and  N_4 
REMARK       I    between atoms: N_4  and  C_5 
REMARK    2  A    between atoms: C_5  and  C_6 
REMARK    3  A    between atoms: C_6  and  S_7 
REMARK    4  A    between atoms: S_7  and  C_8 
REMARK    5  A    between atoms: N_9  and  C_10 
REMARK    6  A    between atoms: C_10  and  C_11 
REMARK       I    between atoms: C_11  and  N_12 
REMARK    7  A    between atoms: N_12  and  C_13 
REMARK    8  A    between atoms: C_15  and  O_16 
REMARK    9  A    between atoms: C_21  and  C_22 
ROOT
HETATM    1  C   UNL     1       5.828  26.110  52.694  1.00  0.00     0.169 A 
HETATM    2  N   UNL     1       6.182  25.251  53.706  1.00  0.00    -0.315 N 
HETATM    3  C   UNL     1       7.134  24.385  53.191  1.00  0.00     0.065 A 
HETATM    4  C   UNL     1       7.320  24.823  51.891  1.00  0.00     0.150 A 
HETATM    5  N   UNL     1       6.508  25.882  51.600  1.00  0.00    -0.234 NA
ENDROOT
BRANCH   1   6
HETATM    6  S   UNL     1       4.647  27.363  52.846  1.00  0.00    -0.083 SA
BRANCH   6   7
HETATM    7  C   UNL     1       5.364  28.648  51.768  1.00  0.00     0.185 C 
BRANCH   7   8
HETATM    8  C   UNL     1       4.662  28.784  50.422  1.00  0.00     0.231 C 
HETATM    9  N   UNL     1       3.533  28.001  50.272  1.00  0.00    -0.326 N 
HETATM   10  H   UNL     1       3.480  27.212  50.906  1.00  0.00     0.169 HD
HETATM   11  O   UNL     1       5.093  29.573  49.582  1.00  0.00    -0.272 OA
BRANCH   9  12
HETATM   12  C   UNL     1       2.712  27.946  49.125  1.00  0.00     0.046 A 
HETATM   13  C   UNL     1       2.873  26.843  48.254  1.00  0.00    -0.035 A 
HETATM   14  C   UNL     1       3.928  25.792  48.479  1.00  0.00     0.050 C 
HETATM   15  C   UNL     1       2.063  26.740  47.111  1.00  0.00     0.009 A 
HETATM   16  C   UNL     1       1.103  27.706  46.834  1.00  0.00     0.001 A 
HETATM   17  C   UNL     1       0.926  28.776  47.705  1.00  0.00     0.009 A 
HETATM   18  C   UNL     1       1.704  28.899  48.871  1.00  0.00    -0.035 A 
HETATM   19  C   UNL     1       1.362  30.027  49.806  1.00  0.00     0.050 C 
ENDBRANCH   9  12
ENDBRANCH   7   8
ENDBRANCH   6   7
ENDBRANCH   1   6
BRANCH   2  20
HETATM   20  C   UNL     1       5.685  25.276  55.071  1.00  0.00     0.234 C 
BRANCH  20  21
HETATM   21  C   UNL     1       6.548  26.024  56.077  1.00  0.00     0.240 C 
HETATM   22  N   UNL     1       7.026  27.263  55.684  1.00  0.00    -0.326 N 
HETATM   23  H   UNL     1       6.840  27.567  54.736  1.00  0.00     0.169 HD
HETATM   24  O   UNL     1       6.718  25.521  57.188  1.00  0.00    -0.271 OA
BRANCH  22  25
HETATM   25  C   UNL     1       7.790  28.173  56.449  1.00  0.00     0.037 A 
HETATM   26  C   UNL     1       7.510  28.515  57.774  1.00  0.00     0.066 A 
HETATM   27  C   UNL     1       8.321  29.433  58.441  1.00  0.00     0.067 A 
HETATM   28  C   UNL     1       9.410  30.021  57.810  1.00  0.00     0.036 A 
HETATM   29  C   UNL     1       9.698  29.686  56.491  1.00  0.00     0.005 A 
HETATM   30  C   UNL     1       8.891  28.767  55.814  1.00  0.00     0.029 A 
BRANCH  27  31
HETATM   31  O   UNL     1       8.072  29.786  59.735  1.00  0.00    -0.361 OA
HETATM   32  H   UNL     1       7.228  30.266  59.768  1.00  0.00     0.217 HD
ENDBRANCH  27  31
ENDBRANCH  22  25
ENDBRANCH  20  21
ENDBRANCH   2  20
BRANCH   3  33
HETATM   33  C   UNL     1       7.809  23.304  53.899  1.00  0.00    -0.008 A 
HETATM   34  C   UNL     1       8.578  23.555  55.044  1.00  0.00     0.017 A 
HETATM   35  C   UNL     1       9.194  22.500  55.723  1.00  0.00     0.043 A 
HETATM   36  C   UNL     1       9.033  21.199  55.264  1.00  0.00     0.116 A 
HETATM   37  F   UNL     1       9.618  20.190  55.920  1.00  0.00    -0.206 F 
HETATM   38  C   UNL     1       8.266  20.930  54.137  1.00  0.00     0.043 A 
HETATM   39  C   UNL     1       7.652  21.983  53.456  1.00  0.00     0.017 A 
ENDBRANCH   3  33
TORSDOF 9
ENDMDL
MODEL 9
REMARK VINA RESULT:      -9.9      2.975      5.731
REMARK  9 active torsions:
REMARK  status: ('A' for Active; 'I' for Inactive)
REMARK    1  A    between atoms: C_3  and  N_4 
REMARK       I    between atoms: N_4  and  C_5 
REMARK    2  A    between atoms: C_5  and  C_6 
REMARK    3  A    between atoms: C_6  and  S_7 
REMARK    4  A    between atoms: S_7  and  C_8 
REMARK    5  A    between atoms: N_9  and  C_10 
REMARK    6  A    between atoms: C_10  and  C_11 
REMARK       I    between atoms: C_11  and  N_12 
REMARK    7  A    between atoms: N_12  and  C_13 
REMARK    8  A    between atoms: C_15  and  O_16 
REMARK    9  A    between atoms: C_21  and  C_22 
ROOT
HETATM    1  C   UNL     1       5.500  27.561  55.703  1.00  0.00     0.169 A 
HETATM    2  N   UNL     1       5.608  26.517  54.818  1.00  0.00    -0.315 N 
HETATM    3  C   UNL     1       6.638  25.706  55.267  1.00  0.00     0.065 A 
HETATM    4  C   UNL     1       7.055  26.310  56.440  1.00  0.00     0.150 A 
HETATM    5  N   UNL     1       6.349  27.452  56.692  1.00  0.00    -0.234 NA
ENDROOT
BRANCH   1   6
HETATM    6  S   UNL     1       4.364  28.856  55.552  1.00  0.00    -0.083 SA
BRANCH   6   7
HETATM    7  C   UNL     1       4.360  29.513  57.254  1.00  0.00     0.185 C 
BRANCH   7   8
HETATM    8  C   UNL     1       5.486  30.500  57.535  1.00  0.00     0.231 C 
HETATM    9  N   UNL     1       6.409  30.079  58.475  1.00  0.00    -0.326 N 
HETATM   10  H   UNL     1       6.078  29.347  59.092  1.00  0.00     0.169 HD
HETATM   11  O   UNL     1       5.540  31.562  56.917  1.00  0.00    -0.272 OA
BRANCH   9  12
HETATM   12  C   UNL     1       7.537  30.808  58.908  1.00  0.00     0.046 A 
HETATM   13  C   UNL     1       8.773  30.547  58.270  1.00  0.00    -0.035 A 
HETATM   14  C   UNL     1       8.921  29.479  57.218  1.00  0.00     0.050 C 
HETATM   15  C   UNL     1       9.917  31.264  58.656  1.00  0.00     0.009 A 
HETATM   16  C   UNL     1       9.844  32.230  59.652  1.00  0.00     0.001 A 
HETATM   17  C   UNL     1       8.624  32.507  60.261  1.00  0.00     0.009 A 
HETATM   18  C   UNL     1       7.453  31.824  59.883  1.00  0.00    -0.035 A 
HETATM   19  C   UNL     1       6.164  32.272  60.517  1.00  0.00     0.050 C 
ENDBRANCH   9  12
ENDBRANCH   7   8
ENDBRANCH   6   7
ENDBRANCH   1   6
BRANCH   2  20
HETATM   20  C   UNL     1       4.769  26.283  53.655  1.00  0.00     0.234 C 
BRANCH  20  21
HETATM   21  C   UNL     1       5.137  27.069  52.404  1.00  0.00     0.240 C 
HETATM   22  N   UNL     1       4.288  26.939  51.318  1.00  0.00    -0.326 N 
HETATM   23  H   UNL     1       3.521  26.282  51.388  1.00  0.00     0.169 HD
HETATM   24  O   UNL     1       6.119  27.810  52.448  1.00  0.00    -0.271 OA
BRANCH  22  25
HETATM   25  C   UNL     1       4.374  27.604  50.074  1.00  0.00     0.037 A 
HETATM   26  C   UNL     1       5.181  27.184  49.013  1.00  0.00     0.066 A 
HETATM   27  C   UNL     1       5.204  27.917  47.826  1.00  0.00     0.067 A 
HETATM   28  C   UNL     1       4.437  29.064  47.675  1.00  0.00     0.036 A 
HETATM   29  C   UNL     1       3.629  29.490  48.725  1.00  0.00     0.005 A 
HETATM   30  C   UNL     1       3.599  28.762  49.918  1.00  0.00     0.029 A 
BRANCH  27  31
HETATM   31  O   UNL     1       5.982  27.532  46.773  1.00  0.00    -0.361 OA
HETATM   32  H   UNL     1       5.743  26.622  46.529  1.00  0.00     0.217 HD
ENDBRANCH  27  31
ENDBRANCH  22  25
ENDBRANCH  20  21
ENDBRANCH   2  20
BRANCH   3  33
HETATM   33  C   UNL     1       7.113  24.472  54.652  1.00  0.00    -0.008 A 
HETATM   34  C   UNL     1       7.144  23.268  55.370  1.00  0.00     0.017 A 
HETATM   35  C   UNL     1       7.578  22.092  54.753  1.00  0.00     0.043 A 
HETATM   36  C   UNL     1       7.969  22.118  53.420  1.00  0.00     0.116 A 
HETATM   37  F   UNL     1       8.376  20.989  52.829  1.00  0.00    -0.206 F 
HETATM   38  C   UNL     1       7.934  23.299  52.689  1.00  0.00     0.043 A 
HETATM   39  C   UNL     1       7.504  24.476  53.305  1.00  0.00     0.017 A 
ENDBRANCH   3  33
TORSDOF 9
ENDMDL
MODEL 10
REMARK VINA RESULT:      -9.9      3.494      9.574
REMARK  9 active torsions:
REMARK  status: ('A' for Active; 'I' for Inactive)
REMARK    1  A    between atoms: C_3  and  N_4 
REMARK       I    between atoms: N_4  and  C_5 
REMARK    2  A    between atoms: C_5  and  C_6 
REMARK    3  A    between atoms: C_6  and  S_7 
REMARK    4  A    between atoms: S_7  and  C_8 
REMARK    5  A    between atoms: N_9  and  C_10 
REMARK    6  A    between atoms: C_10  and  C_11 
REMARK       I    between atoms: C_11  and  N_12 
REMARK    7  A    between atoms: N_12  and  C_13 
REMARK    8  A    between atoms: C_15  and  O_16 
REMARK    9  A    between atoms: C_21  and  C_22 
ROOT
HETATM    1  C   UNL     1       5.143  27.060  53.060  1.00  0.00     0.169 A 
HETATM    2  N   UNL     1       6.292  26.449  53.498  1.00  0.00    -0.315 N 
HETATM    3  C   UNL     1       6.029  25.090  53.571  1.00  0.00     0.065 A 
HETATM    4  C   UNL     1       4.726  24.975  53.119  1.00  0.00     0.150 A 
HETATM    5  N   UNL     1       4.194  26.195  52.812  1.00  0.00    -0.234 NA
ENDROOT
BRANCH   1   6
HETATM    6  S   UNL     1       4.971  28.765  52.833  1.00  0.00    -0.083 SA
BRANCH   6   7
HETATM    7  C   UNL     1       5.815  28.989  51.231  1.00  0.00     0.185 C 
BRANCH   7   8
HETATM    8  C   UNL     1       4.873  28.980  50.033  1.00  0.00     0.231 C 
HETATM    9  N   UNL     1       3.970  27.933  50.009  1.00  0.00    -0.326 N 
HETATM   10  H   UNL     1       4.232  27.138  50.579  1.00  0.00     0.169 HD
HETATM   11  O   UNL     1       4.933  29.882  49.198  1.00  0.00    -0.272 OA
BRANCH   9  12
HETATM   12  C   UNL     1       2.999  27.704  49.011  1.00  0.00     0.046 A 
HETATM   13  C   UNL     1       3.315  26.780  47.987  1.00  0.00    -0.035 A 
HETATM   14  C   UNL     1       4.662  26.112  47.898  1.00  0.00     0.050 C 
HETATM   15  C   UNL     1       2.369  26.507  46.985  1.00  0.00     0.009 A 
HETATM   16  C   UNL     1       1.127  27.130  46.995  1.00  0.00     0.001 A 
HETATM   17  C   UNL     1       0.805  28.018  48.018  1.00  0.00     0.009 A 
HETATM   18  C   UNL     1       1.720  28.297  49.050  1.00  0.00    -0.035 A 
HETATM   19  C   UNL     1       1.240  29.180  50.170  1.00  0.00     0.050 C 
ENDBRANCH   9  12
ENDBRANCH   7   8
ENDBRANCH   6   7
ENDBRANCH   1   6
BRANCH   2  20
HETATM   20  C   UNL     1       7.559  27.100  53.788  1.00  0.00     0.234 C 
BRANCH  20  21
HETATM   21  C   UNL     1       7.718  27.640  55.202  1.00  0.00     0.240 C 
HETATM   22  N   UNL     1       8.516  28.761  55.352  1.00  0.00    -0.326 N 
HETATM   23  H   UNL     1       9.003  29.112  54.537  1.00  0.00     0.169 HD
HETATM   24  O   UNL     1       7.088  27.094  56.110  1.00  0.00    -0.271 OA
BRANCH  22  25
HETATM   25  C   UNL     1       8.771  29.483  56.539  1.00  0.00     0.037 A 
HETATM   26  C   UNL     1       7.805  29.778  57.504  1.00  0.00     0.066 A 
HETATM   27  C   UNL     1       8.156  30.507  58.640  1.00  0.00     0.067 A 
HETATM   28  C   UNL     1       9.457  30.953  58.834  1.00  0.00     0.036 A 
HETATM   29  C   UNL     1      10.428  30.664  57.879  1.00  0.00     0.005 A 
HETATM   30  C   UNL     1      10.085  29.933  56.737  1.00  0.00     0.029 A 
BRANCH  27  31
HETATM   31  O   UNL     1       7.234  30.809  59.599  1.00  0.00    -0.361 OA
HETATM   32  H   UNL     1       7.208  31.774  59.710  1.00  0.00     0.217 HD
ENDBRANCH  27  31
ENDBRANCH  22  25
ENDBRANCH  20  21
ENDBRANCH   2  20
BRANCH   3  33
HETATM   33  C   UNL     1       6.953  24.039  53.980  1.00  0.00    -0.008 A 
HETATM   34  C   UNL     1       7.737  23.354  53.041  1.00  0.00     0.017 A 
HETATM   35  C   UNL     1       8.636  22.369  53.459  1.00  0.00     0.043 A 
HETATM   36  C   UNL     1       8.757  22.078  54.812  1.00  0.00     0.116 A 
HETATM   37  F   UNL     1       9.624  21.140  55.210  1.00  0.00    -0.206 F 
HETATM   38  C   UNL     1       7.997  22.754  55.758  1.00  0.00     0.043 A 
HETATM   39  C   UNL     1       7.096  23.736  55.342  1.00  0.00     0.017 A 
ENDBRANCH   3  33
TORSDOF 9
ENDMDL
