MODEL 1
REMARK VINA RESULT:      -9.2      0.000      0.000
REMARK  6 active torsions:
REMARK  status: ('A' for Active; 'I' for Inactive)
REMARK    1  A    between atoms: C_8  and  C_9 
REMARK    2  A    between atoms: C_9  and  C_10 
REMARK       I    between atoms: C_10  and  N_11 
REMARK    3  A    between atoms: N_11  and  C_12 
REMARK    4  A    between atoms: C_12  and  C_13 
REMARK    5  A    between atoms: C_13  and  N_14 
REMARK    6  A    between atoms: C_13  and  C_20 
ROOT
HETATM    1  C   UNL     1       7.580  26.054  55.744  1.00  0.00     0.160 C 
ENDROOT
BRANCH   1   2
HETATM    2  N   UNL     1       7.131  27.382  56.149  1.00  0.00    -0.358 N 
HETATM    3  C   UNL     1       7.516  27.896  57.373  1.00  0.00     0.226 C 
HETATM    4  O   UNL     1       7.984  27.137  58.226  1.00  0.00    -0.273 OA
HETATM    5  H   UNL     1       6.948  28.047  55.405  1.00  0.00     0.162 HD
BRANCH   3   6
HETATM    6  C   UNL     1       7.259  29.386  57.630  1.00  0.00     0.111 C 
HETATM    7  C   UNL     1       6.377  30.053  56.574  1.00  0.00     0.025 C 
BRANCH   6   8
HETATM    8  C   UNL     1       8.520  30.157  57.897  1.00  0.00     0.004 A 
HETATM    9  C   UNL     1       8.740  31.012  58.968  1.00  0.00     0.033 A 
HETATM   10  C   UNL     1       7.890  31.408  60.117  1.00  0.00     0.070 C 
HETATM   11  N   UNL     1      10.002  31.510  58.807  1.00  0.00    -0.282 N 
HETATM   12  H   UNL     1      10.501  32.166  59.400  1.00  0.00     0.189 HD
HETATM   13  N   UNL     1      10.614  31.059  57.710  1.00  0.00    -0.179 NA
HETATM   14  C   UNL     1       9.724  30.245  57.135  1.00  0.00     0.060 A 
HETATM   15  C   UNL     1      10.094  29.593  55.855  1.00  0.00     0.073 C 
ENDBRANCH   6   8
ENDBRANCH   3   6
ENDBRANCH   1   2
BRANCH   1  16
HETATM   16  C   UNL     1       7.233  25.604  54.281  1.00  0.00     0.238 C 
BRANCH  16  17
HETATM   17  N   UNL     1       5.811  26.029  53.873  1.00  0.00    -0.061 N 
HETATM   18  H   UNL     1       5.364  26.380  54.746  1.00  0.00     0.280 HD
HETATM   19  C   UNL     1       4.907  24.980  53.261  1.00  0.00     0.236 C 
HETATM   20  C   UNL     1       5.070  25.192  51.774  1.00  0.00     0.029 C 
HETATM   21  C   UNL     1       5.034  26.699  51.661  1.00  0.00     0.029 C 
HETATM   22  C   UNL     1       5.792  27.194  52.881  1.00  0.00     0.236 C 
ENDBRANCH  16  17
BRANCH  16  23
HETATM   23  C   UNL     1       7.539  24.121  54.132  1.00  0.00    -0.024 A 
HETATM   24  C   UNL     1       7.429  23.229  55.214  1.00  0.00     0.033 A 
HETATM   25  C   UNL     1       7.711  21.871  55.042  1.00  0.00     0.034 A 
HETATM   26 CL   UNL     1       7.545  20.797  56.374  1.00  0.00    -0.084 Cl
HETATM   27  C   UNL     1       8.113  21.383  53.803  1.00  0.00     0.024 A 
HETATM   28  C   UNL     1       8.231  22.256  52.724  1.00  0.00     0.002 A 
HETATM   29  C   UNL     1       7.946  23.614  52.884  1.00  0.00     0.009 A 
ENDBRANCH  16  23
ENDBRANCH   1  16
TORSDOF 6
ENDMDL
MODEL 2
REMARK VINA RESULT:      -9.0      1.298      1.892
REMARK  6 active torsions:
REMARK  status: ('A' for Active; 'I' for Inactive)
REMARK    1  A    between atoms: C_8  and  C_9 
REMARK    2  A    between atoms: C_9  and  C_10 
REMARK       I    between atoms: C_10  and  N_11 
REMARK    3  A    between atoms: N_11  and  C_12 
REMARK    4  A    between atoms: C_12  and  C_13 
REMARK    5  A    between atoms: C_13  and  N_14 
REMARK    6  A    between atoms: C_13  and  C_20 
ROOT
HETATM    1  C   UNL     1       6.249  25.363  56.211  1.00  0.00     0.160 C 
ENDROOT
BRANCH   1   2
HETATM    2  N   UNL     1       6.186  26.762  56.618  1.00  0.00    -0.358 N 
HETATM    3  C   UNL     1       7.224  27.315  57.344  1.00  0.00     0.226 C 
HETATM    4  O   UNL     1       8.047  26.571  57.885  1.00  0.00    -0.273 OA
HETATM    5  H   UNL     1       5.655  27.387  56.021  1.00  0.00     0.162 HD
BRANCH   3   6
HETATM    6  C   UNL     1       7.246  28.841  57.502  1.00  0.00     0.111 C 
HETATM    7  C   UNL     1       6.187  29.565  56.671  1.00  0.00     0.025 C 
BRANCH   6   8
HETATM    8  C   UNL     1       8.617  29.427  57.322  1.00  0.00     0.004 A 
HETATM    9  C   UNL     1       9.332  30.137  58.277  1.00  0.00     0.033 A 
HETATM   10  C   UNL     1       9.020  30.513  59.677  1.00  0.00     0.070 C 
HETATM   11  N   UNL     1      10.509  30.496  57.685  1.00  0.00    -0.282 N 
HETATM   12  H   UNL     1      11.280  31.025  58.083  1.00  0.00     0.189 HD
HETATM   13  N   UNL     1      10.613  30.088  56.418  1.00  0.00    -0.179 NA
HETATM   14  C   UNL     1       9.466  29.447  56.174  1.00  0.00     0.060 A 
HETATM   15  C   UNL     1       9.251  28.888  54.817  1.00  0.00     0.073 C 
ENDBRANCH   6   8
ENDBRANCH   3   6
ENDBRANCH   1   2
BRANCH   1  16
HETATM   16  C   UNL     1       7.185  25.019  54.998  1.00  0.00     0.238 C 
BRANCH  16  17
HETATM   17  N   UNL     1       6.533  25.379  53.652  1.00  0.00    -0.061 N 
HETATM   18  H   UNL     1       6.695  24.555  53.034  1.00  0.00     0.280 HD
HETATM   19  C   UNL     1       7.026  26.618  52.935  1.00  0.00     0.236 C 
HETATM   20  C   UNL     1       6.042  27.687  53.352  1.00  0.00     0.029 C 
HETATM   21  C   UNL     1       4.720  26.960  53.250  1.00  0.00     0.029 C 
HETATM   22  C   UNL     1       5.016  25.554  53.745  1.00  0.00     0.236 C 
ENDBRANCH  16  17
BRANCH  16  23
HETATM   23  C   UNL     1       7.658  23.579  55.129  1.00  0.00    -0.024 A 
HETATM   24  C   UNL     1       7.741  22.721  54.017  1.00  0.00     0.033 A 
HETATM   25  C   UNL     1       8.187  21.406  54.171  1.00  0.00     0.034 A 
HETATM   26 CL   UNL     1       8.303  20.385  52.793  1.00  0.00    -0.084 Cl
HETATM   27  C   UNL     1       8.545  20.922  55.424  1.00  0.00     0.024 A 
HETATM   28  C   UNL     1       8.463  21.759  56.536  1.00  0.00     0.002 A 
HETATM   29  C   UNL     1       8.025  23.077  56.392  1.00  0.00     0.009 A 
ENDBRANCH  16  23
ENDBRANCH   1  16
TORSDOF 6
ENDMDL
MODEL 3
REMARK VINA RESULT:      -8.8      1.279      2.400
REMARK  6 active torsions:
REMARK  status: ('A' for Active; 'I' for Inactive)
REMARK    1  A    between atoms: C_8  and  C_9 
REMARK    2  A    between atoms: C_9  and  C_10 
REMARK       I    between atoms: C_10  and  N_11 
REMARK    3  A    between atoms: N_11  and  C_12 
REMARK    4  A    between atoms: C_12  and  C_13 
REMARK    5  A    between atoms: C_13  and  N_14 
REMARK    6  A    between atoms: C_13  and  C_20 
ROOT
HETATM    1  C   UNL     1       6.151  25.438  56.087  1.00  0.00     0.160 C 
ENDROOT
BRANCH   1   2
HETATM    2  N   UNL     1       6.077  26.839  56.485  1.00  0.00    -0.358 N 
HETATM    3  C   UNL     1       7.022  27.362  57.347  1.00  0.00     0.226 C 
HETATM    4  O   UNL     1       7.740  26.593  57.994  1.00  0.00    -0.273 OA
HETATM    5  H   UNL     1       5.652  27.480  55.822  1.00  0.00     0.162 HD
BRANCH   3   6
HETATM    6  C   UNL     1       7.069  28.886  57.511  1.00  0.00     0.111 C 
HETATM    7  C   UNL     1       6.013  29.629  56.692  1.00  0.00     0.025 C 
BRANCH   6   8
HETATM    8  C   UNL     1       8.448  29.451  57.319  1.00  0.00     0.004 A 
HETATM    9  C   UNL     1       9.211  29.362  56.162  1.00  0.00     0.033 A 
HETATM   10  C   UNL     1       8.945  28.747  54.840  1.00  0.00     0.070 C 
HETATM   11  N   UNL     1      10.393  29.989  56.435  1.00  0.00    -0.282 N 
HETATM   12  H   UNL     1      11.194  30.119  55.823  1.00  0.00     0.189 HD
HETATM   13  N   UNL     1      10.466  30.468  57.679  1.00  0.00    -0.179 NA
HETATM   14  C   UNL     1       9.297  30.138  58.238  1.00  0.00     0.060 A 
HETATM   15  C   UNL     1       9.069  30.508  59.656  1.00  0.00     0.073 C 
ENDBRANCH   6   8
ENDBRANCH   3   6
ENDBRANCH   1   2
BRANCH   1  16
HETATM   16  C   UNL     1       7.092  25.094  54.879  1.00  0.00     0.238 C 
BRANCH  16  17
HETATM   17  N   UNL     1       6.420  25.391  53.527  1.00  0.00    -0.061 N 
HETATM   18  H   UNL     1       6.587  24.545  52.941  1.00  0.00     0.280 HD
HETATM   19  C   UNL     1       6.889  26.606  52.755  1.00  0.00     0.236 C 
HETATM   20  C   UNL     1       5.896  27.678  53.140  1.00  0.00     0.029 C 
HETATM   21  C   UNL     1       4.583  26.930  53.083  1.00  0.00     0.029 C 
HETATM   22  C   UNL     1       4.902  25.550  53.631  1.00  0.00     0.236 C 
ENDBRANCH  16  17
BRANCH  16  23
HETATM   23  C   UNL     1       7.619  23.676  55.048  1.00  0.00    -0.024 A 
HETATM   24  C   UNL     1       7.708  22.783  53.964  1.00  0.00     0.033 A 
HETATM   25  C   UNL     1       8.203  21.490  54.153  1.00  0.00     0.034 A 
HETATM   26 CL   UNL     1       8.326  20.427  52.808  1.00  0.00    -0.084 Cl
HETATM   27  C   UNL     1       8.605  21.063  55.414  1.00  0.00     0.024 A 
HETATM   28  C   UNL     1       8.517  21.935  56.498  1.00  0.00     0.002 A 
HETATM   29  C   UNL     1       8.030  23.231  56.319  1.00  0.00     0.009 A 
ENDBRANCH  16  23
ENDBRANCH   1  16
TORSDOF 6
ENDMDL
MODEL 4
REMARK VINA RESULT:      -8.6      1.267      1.890
REMARK  6 active torsions:
REMARK  status: ('A' for Active; 'I' for Inactive)
REMARK    1  A    between atoms: C_8  and  C_9 
REMARK    2  A    between atoms: C_9  and  C_10 
REMARK       I    between atoms: C_10  and  N_11 
REMARK    3  A    between atoms: N_11  and  C_12 
REMARK    4  A    between atoms: C_12  and  C_13 
REMARK    5  A    between atoms: C_13  and  N_14 
REMARK    6  A    between atoms: C_13  and  C_20 
ROOT
HETATM    1  C   UNL     1       7.580  26.082  55.724  1.00  0.00     0.160 C 
ENDROOT
BRANCH   1   2
HETATM    2  N   UNL     1       7.731  27.524  55.889  1.00  0.00    -0.358 N 
HETATM    3  C   UNL     1       8.076  28.044  57.123  1.00  0.00     0.226 C 
HETATM    4  O   UNL     1       7.973  27.334  58.127  1.00  0.00    -0.273 OA
HETATM    5  H   UNL     1       8.020  28.048  55.069  1.00  0.00     0.162 HD
BRANCH   3   6
HETATM    6  C   UNL     1       8.496  29.518  57.179  1.00  0.00     0.111 C 
HETATM    7  C   UNL     1       9.965  29.729  57.550  1.00  0.00     0.025 C 
BRANCH   6   8
HETATM    8  C   UNL     1       7.567  30.357  58.009  1.00  0.00     0.004 A 
HETATM    9  C   UNL     1       7.770  30.735  59.330  1.00  0.00     0.033 A 
HETATM   10  C   UNL     1       8.878  30.472  60.280  1.00  0.00     0.070 C 
HETATM   11  N   UNL     1       6.676  31.468  59.691  1.00  0.00    -0.282 N 
HETATM   12  H   UNL     1       6.479  31.907  60.585  1.00  0.00     0.189 HD
HETATM   13  N   UNL     1       5.772  31.588  58.716  1.00  0.00    -0.179 NA
HETATM   14  C   UNL     1       6.289  30.907  57.689  1.00  0.00     0.060 A 
HETATM   15  C   UNL     1       5.500  30.821  56.436  1.00  0.00     0.073 C 
ENDBRANCH   6   8
ENDBRANCH   3   6
ENDBRANCH   1   2
BRANCH   1  16
HETATM   16  C   UNL     1       7.195  25.569  54.292  1.00  0.00     0.238 C 
BRANCH  16  17
HETATM   17  N   UNL     1       5.755  25.958  53.913  1.00  0.00    -0.061 N 
HETATM   18  H   UNL     1       5.291  26.219  54.809  1.00  0.00     0.280 HD
HETATM   19  C   UNL     1       4.901  24.919  53.218  1.00  0.00     0.236 C 
HETATM   20  C   UNL     1       5.053  25.253  51.752  1.00  0.00     0.029 C 
HETATM   21  C   UNL     1       4.948  26.762  51.757  1.00  0.00     0.029 C 
HETATM   22  C   UNL     1       5.682  27.195  53.014  1.00  0.00     0.236 C 
ENDBRANCH  16  17
BRANCH  16  23
HETATM   23  C   UNL     1       7.517  24.086  54.192  1.00  0.00    -0.024 A 
HETATM   24  C   UNL     1       7.477  23.240  55.317  1.00  0.00     0.033 A 
HETATM   25  C   UNL     1       7.772  21.881  55.190  1.00  0.00     0.034 A 
HETATM   26 CL   UNL     1       7.690  20.864  56.573  1.00  0.00    -0.084 Cl
HETATM   27  C   UNL     1       8.120  21.345  53.955  1.00  0.00     0.024 A 
HETATM   28  C   UNL     1       8.170  22.171  52.834  1.00  0.00     0.002 A 
HETATM   29  C   UNL     1       7.871  23.529  52.949  1.00  0.00     0.009 A 
ENDBRANCH  16  23
ENDBRANCH   1  16
TORSDOF 6
ENDMDL
MODEL 5
REMARK VINA RESULT:      -8.5      3.256      5.805
REMARK  6 active torsions:
REMARK  status: ('A' for Active; 'I' for Inactive)
REMARK    1  A    between atoms: C_8  and  C_9 
REMARK    2  A    between atoms: C_9  and  C_10 
REMARK       I    between atoms: C_10  and  N_11 
REMARK    3  A    between atoms: N_11  and  C_12 
REMARK    4  A    between atoms: C_12  and  C_13 
REMARK    5  A    between atoms: C_13  and  N_14 
REMARK    6  A    between atoms: C_13  and  C_20 
ROOT
HETATM    1  C   UNL     1       6.844  25.683  53.737  1.00  0.00     0.160 C 
ENDROOT
BRANCH   1   2
HETATM    2  N   UNL     1       5.805  26.622  53.330  1.00  0.00    -0.358 N 
HETATM    3  C   UNL     1       6.141  27.922  53.002  1.00  0.00     0.226 C 
HETATM    4  O   UNL     1       7.249  28.359  53.326  1.00  0.00    -0.273 OA
HETATM    5  H   UNL     1       4.986  26.228  52.877  1.00  0.00     0.162 HD
BRANCH   3   6
HETATM    6  C   UNL     1       5.071  28.781  52.317  1.00  0.00     0.111 C 
HETATM    7  C   UNL     1       3.644  28.468  52.767  1.00  0.00     0.025 C 
BRANCH   6   8
HETATM    8  C   UNL     1       5.211  28.803  50.821  1.00  0.00     0.004 A 
HETATM    9  C   UNL     1       5.434  29.929  50.041  1.00  0.00     0.033 A 
HETATM   10  C   UNL     1       5.608  31.361  50.386  1.00  0.00     0.070 C 
HETATM   11  N   UNL     1       5.473  29.496  48.746  1.00  0.00    -0.282 N 
HETATM   12  H   UNL     1       5.617  30.042  47.902  1.00  0.00     0.189 HD
HETATM   13  N   UNL     1       5.279  28.180  48.621  1.00  0.00    -0.179 NA
HETATM   14  C   UNL     1       5.105  27.743  49.871  1.00  0.00     0.060 A 
HETATM   15  C   UNL     1       4.833  26.300  50.077  1.00  0.00     0.073 C 
ENDBRANCH   6   8
ENDBRANCH   3   6
ENDBRANCH   1   2
BRANCH   1  16
HETATM   16  C   UNL     1       6.438  24.587  54.785  1.00  0.00     0.238 C 
BRANCH  16  17
HETATM   17  N   UNL     1       6.574  25.099  56.230  1.00  0.00    -0.061 N 
HETATM   18  H   UNL     1       7.098  24.356  56.740  1.00  0.00     0.280 HD
HETATM   19  C   UNL     1       5.304  25.400  56.996  1.00  0.00     0.236 C 
HETATM   20  C   UNL     1       5.118  26.888  56.809  1.00  0.00     0.029 C 
HETATM   21  C   UNL     1       6.524  27.411  57.002  1.00  0.00     0.029 C 
HETATM   22  C   UNL     1       7.415  26.372  56.341  1.00  0.00     0.236 C 
ENDBRANCH  16  17
BRANCH  16  23
HETATM   23  C   UNL     1       7.190  23.301  54.475  1.00  0.00    -0.024 A 
HETATM   24  C   UNL     1       7.694  22.472  55.494  1.00  0.00     0.033 A 
HETATM   25  C   UNL     1       8.374  21.294  55.175  1.00  0.00     0.034 A 
HETATM   26 CL   UNL     1       8.958  20.286  56.438  1.00  0.00    -0.084 Cl
HETATM   27  C   UNL     1       8.571  20.928  53.848  1.00  0.00     0.024 A 
HETATM   28  C   UNL     1       8.082  21.742  52.828  1.00  0.00     0.002 A 
HETATM   29  C   UNL     1       7.396  22.918  53.136  1.00  0.00     0.009 A 
ENDBRANCH  16  23
ENDBRANCH   1  16
TORSDOF 6
ENDMDL
MODEL 6
REMARK VINA RESULT:      -8.4      3.248      7.564
REMARK  6 active torsions:
REMARK  status: ('A' for Active; 'I' for Inactive)
REMARK    1  A    between atoms: C_8  and  C_9 
REMARK    2  A    between atoms: C_9  and  C_10 
REMARK       I    between atoms: C_10  and  N_11 
REMARK    3  A    between atoms: N_11  and  C_12 
REMARK    4  A    between atoms: C_12  and  C_13 
REMARK    5  A    between atoms: C_13  and  N_14 
REMARK    6  A    between atoms: C_13  and  C_20 
ROOT
HETATM    1  C   UNL     1       7.057  27.377  55.234  1.00  0.00     0.160 C 
ENDROOT
BRANCH   1   2
HETATM    2  N   UNL     1       7.605  26.150  55.803  1.00  0.00    -0.358 N 
HETATM    3  C   UNL     1       6.896  24.968  55.703  1.00  0.00     0.226 C 
HETATM    4  O   UNL     1       5.700  25.004  55.400  1.00  0.00    -0.273 OA
HETATM    5  H   UNL     1       8.617  26.080  55.846  1.00  0.00     0.162 HD
BRANCH   3   6
HETATM    6  C   UNL     1       7.629  23.668  56.058  1.00  0.00     0.111 C 
HETATM    7  C   UNL     1       8.981  23.886  56.738  1.00  0.00     0.025 C 
BRANCH   6   8
HETATM    8  C   UNL     1       7.715  22.712  54.902  1.00  0.00     0.004 A 
HETATM    9  C   UNL     1       7.722  21.327  54.990  1.00  0.00     0.033 A 
HETATM   10  C   UNL     1       7.642  20.402  56.147  1.00  0.00     0.070 C 
HETATM   11  N   UNL     1       7.833  20.863  53.710  1.00  0.00    -0.282 N 
HETATM   12  H   UNL     1       7.869  19.899  53.389  1.00  0.00     0.189 HD
HETATM   13  N   UNL     1       7.911  21.835  52.798  1.00  0.00    -0.179 NA
HETATM   14  C   UNL     1       7.855  22.968  53.504  1.00  0.00     0.060 A 
HETATM   15  C   UNL     1       7.948  24.255  52.774  1.00  0.00     0.073 C 
ENDBRANCH   6   8
ENDBRANCH   3   6
ENDBRANCH   1   2
BRANCH   1  16
HETATM   16  C   UNL     1       6.683  28.520  56.242  1.00  0.00     0.238 C 
BRANCH  16  17
HETATM   17  N   UNL     1       5.638  29.483  55.653  1.00  0.00    -0.061 N 
HETATM   18  H   UNL     1       5.844  29.528  54.632  1.00  0.00     0.280 HD
HETATM   19  C   UNL     1       5.594  30.897  56.193  1.00  0.00     0.236 C 
HETATM   20  C   UNL     1       4.508  30.845  57.243  1.00  0.00     0.029 C 
HETATM   21  C   UNL     1       3.439  30.028  56.553  1.00  0.00     0.029 C 
HETATM   22  C   UNL     1       4.203  28.967  55.780  1.00  0.00     0.236 C 
ENDBRANCH  16  17
BRANCH  16  23
HETATM   23  C   UNL     1       7.960  29.172  56.749  1.00  0.00    -0.024 A 
HETATM   24  C   UNL     1       8.080  29.639  58.072  1.00  0.00     0.033 A 
HETATM   25  C   UNL     1       9.270  30.228  58.508  1.00  0.00     0.034 A 
HETATM   26 CL   UNL     1       9.401  30.766  60.135  1.00  0.00    -0.084 Cl
HETATM   27  C   UNL     1      10.348  30.370  57.641  1.00  0.00     0.024 A 
HETATM   28  C   UNL     1      10.241  29.918  56.327  1.00  0.00     0.002 A 
HETATM   29  C   UNL     1       9.059  29.323  55.884  1.00  0.00     0.009 A 
ENDBRANCH  16  23
ENDBRANCH   1  16
TORSDOF 6
ENDMDL
MODEL 7
REMARK VINA RESULT:      -8.4      3.150      7.261
REMARK  6 active torsions:
REMARK  status: ('A' for Active; 'I' for Inactive)
REMARK    1  A    between atoms: C_8  and  C_9 
REMARK    2  A    between atoms: C_9  and  C_10 
REMARK       I    between atoms: C_10  and  N_11 
REMARK    3  A    between atoms: N_11  and  C_12 
REMARK    4  A    between atoms: C_12  and  C_13 
REMARK    5  A    between atoms: C_13  and  N_14 
REMARK    6  A    between atoms: C_13  and  C_20 
ROOT
HETATM    1  C   UNL     1       7.212  27.086  54.338  1.00  0.00     0.160 C 
ENDROOT
BRANCH   1   2
HETATM    2  N   UNL     1       7.624  25.939  55.141  1.00  0.00    -0.358 N 
HETATM    3  C   UNL     1       6.836  24.803  55.174  1.00  0.00     0.226 C 
HETATM    4  O   UNL     1       5.671  24.864  54.772  1.00  0.00    -0.273 OA
HETATM    5  H   UNL     1       8.621  25.814  55.278  1.00  0.00     0.162 HD
BRANCH   3   6
HETATM    6  C   UNL     1       7.442  23.538  55.794  1.00  0.00     0.111 C 
HETATM    7  C   UNL     1       8.667  23.802  56.670  1.00  0.00     0.025 C 
BRANCH   6   8
HETATM    8  C   UNL     1       7.683  22.452  54.784  1.00  0.00     0.004 A 
HETATM    9  C   UNL     1       7.799  21.096  55.058  1.00  0.00     0.033 A 
HETATM   10  C   UNL     1       7.721  20.326  56.323  1.00  0.00     0.070 C 
HETATM   11  N   UNL     1       8.032  20.482  53.860  1.00  0.00    -0.282 N 
HETATM   12  H   UNL     1       8.169  19.493  53.675  1.00  0.00     0.189 HD
HETATM   13  N   UNL     1       8.088  21.331  52.831  1.00  0.00    -0.179 NA
HETATM   14  C   UNL     1       7.892  22.536  53.374  1.00  0.00     0.060 A 
HETATM   15  C   UNL     1       7.926  23.720  52.482  1.00  0.00     0.073 C 
ENDBRANCH   6   8
ENDBRANCH   3   6
ENDBRANCH   1   2
BRANCH   1  16
HETATM   16  C   UNL     1       6.364  28.190  55.063  1.00  0.00     0.238 C 
BRANCH  16  17
HETATM   17  N   UNL     1       5.700  29.152  54.062  1.00  0.00    -0.061 N 
HETATM   18  H   UNL     1       6.237  30.043  54.134  1.00  0.00     0.280 HD
HETATM   19  C   UNL     1       4.230  29.462  54.246  1.00  0.00     0.236 C 
HETATM   20  C   UNL     1       3.541  28.496  53.310  1.00  0.00     0.029 C 
HETATM   21  C   UNL     1       4.410  28.576  52.075  1.00  0.00     0.029 C 
HETATM   22  C   UNL     1       5.828  28.690  52.609  1.00  0.00     0.236 C 
ENDBRANCH  16  17
BRANCH  16  23
HETATM   23  C   UNL     1       7.220  28.851  56.133  1.00  0.00    -0.024 A 
HETATM   24  C   UNL     1       8.619  28.950  56.008  1.00  0.00     0.033 A 
HETATM   25  C   UNL     1       9.376  29.569  57.005  1.00  0.00     0.034 A 
HETATM   26 CL   UNL     1      11.079  29.701  56.817  1.00  0.00    -0.084 Cl
HETATM   27  C   UNL     1       8.761  30.087  58.140  1.00  0.00     0.024 A 
HETATM   28  C   UNL     1       7.378  29.991  58.281  1.00  0.00     0.002 A 
HETATM   29  C   UNL     1       6.613  29.380  57.287  1.00  0.00     0.009 A 
ENDBRANCH  16  23
ENDBRANCH   1  16
TORSDOF 6
ENDMDL
MODEL 8
REMARK VINA RESULT:      -8.4      1.874      3.023
REMARK  6 active torsions:
REMARK  status: ('A' for Active; 'I' for Inactive)
REMARK    1  A    between atoms: C_8  and  C_9 
REMARK    2  A    between atoms: C_9  and  C_10 
REMARK       I    between atoms: C_10  and  N_11 
REMARK    3  A    between atoms: N_11  and  C_12 
REMARK    4  A    between atoms: C_12  and  C_13 
REMARK    5  A    between atoms: C_13  and  N_14 
REMARK    6  A    between atoms: C_13  and  C_20 
ROOT
HETATM    1  C   UNL     1       7.609  27.288  55.913  1.00  0.00     0.160 C 
ENDROOT
BRANCH   1   2
HETATM    2  N   UNL     1       7.774  28.677  56.326  1.00  0.00    -0.358 N 
HETATM    3  C   UNL     1       8.080  28.973  57.641  1.00  0.00     0.226 C 
HETATM    4  O   UNL     1       7.929  28.106  58.506  1.00  0.00    -0.273 OA
HETATM    5  H   UNL     1       8.100  29.327  55.618  1.00  0.00     0.162 HD
BRANCH   3   6
HETATM    6  C   UNL     1       8.519  30.407  57.962  1.00  0.00     0.111 C 
HETATM    7  C   UNL     1      10.031  30.573  58.115  1.00  0.00     0.025 C 
BRANCH   6   8
HETATM    8  C   UNL     1       7.756  31.008  59.109  1.00  0.00     0.004 A 
HETATM    9  C   UNL     1       6.555  31.698  59.017  1.00  0.00     0.033 A 
HETATM   10  C   UNL     1       5.688  32.036  57.862  1.00  0.00     0.070 C 
HETATM   11  N   UNL     1       6.235  32.080  60.288  1.00  0.00    -0.282 N 
HETATM   12  H   UNL     1       5.424  32.605  60.604  1.00  0.00     0.189 HD
HETATM   13  N   UNL     1       7.137  31.706  61.198  1.00  0.00    -0.179 NA
HETATM   14  C   UNL     1       8.077  31.064  60.499  1.00  0.00     0.060 A 
HETATM   15  C   UNL     1       9.257  30.538  61.229  1.00  0.00     0.073 C 
ENDBRANCH   6   8
ENDBRANCH   3   6
ENDBRANCH   1   2
BRANCH   1  16
HETATM   16  C   UNL     1       6.790  27.031  54.599  1.00  0.00     0.238 C 
BRANCH  16  17
HETATM   17  N   UNL     1       5.279  27.221  54.820  1.00  0.00    -0.061 N 
HETATM   18  H   UNL     1       4.846  26.303  54.580  1.00  0.00     0.280 HD
HETATM   19  C   UNL     1       4.578  28.302  54.026  1.00  0.00     0.236 C 
HETATM   20  C   UNL     1       4.555  29.481  54.971  1.00  0.00     0.029 C 
HETATM   21  C   UNL     1       4.178  28.830  56.283  1.00  0.00     0.029 C 
HETATM   22  C   UNL     1       4.915  27.501  56.279  1.00  0.00     0.236 C 
ENDBRANCH  16  17
BRANCH  16  23
HETATM   23  C   UNL     1       7.201  25.689  54.012  1.00  0.00    -0.024 A 
HETATM   24  C   UNL     1       7.239  24.518  54.793  1.00  0.00     0.033 A 
HETATM   25  C   UNL     1       7.614  23.300  54.221  1.00  0.00     0.034 A 
HETATM   26 CL   UNL     1       7.628  21.880  55.189  1.00  0.00    -0.084 Cl
HETATM   27  C   UNL     1       7.965  23.227  52.877  1.00  0.00     0.024 A 
HETATM   28  C   UNL     1       7.938  24.379  52.094  1.00  0.00     0.002 A 
HETATM   29  C   UNL     1       7.558  25.600  52.654  1.00  0.00     0.009 A 
ENDBRANCH  16  23
ENDBRANCH   1  16
TORSDOF 6
ENDMDL
MODEL 9
REMARK VINA RESULT:      -8.3      3.233      6.801
REMARK  6 active torsions:
REMARK  status: ('A' for Active; 'I' for Inactive)
REMARK    1  A    between atoms: C_8  and  C_9 
REMARK    2  A    between atoms: C_9  and  C_10 
REMARK       I    between atoms: C_10  and  N_11 
REMARK    3  A    between atoms: N_11  and  C_12 
REMARK    4  A    between atoms: C_12  and  C_13 
REMARK    5  A    between atoms: C_13  and  N_14 
REMARK    6  A    between atoms: C_13  and  C_20 
ROOT
HETATM    1  C   UNL     1       4.630  25.187  53.214  1.00  0.00     0.160 C 
ENDROOT
BRANCH   1   2
HETATM    2  N   UNL     1       4.236  26.484  52.673  1.00  0.00    -0.358 N 
HETATM    3  C   UNL     1       4.979  27.063  51.662  1.00  0.00     0.226 C 
HETATM    4  O   UNL     1       6.111  26.635  51.423  1.00  0.00    -0.273 OA
HETATM    5  H   UNL     1       3.247  26.711  52.709  1.00  0.00     0.162 HD
BRANCH   3   6
HETATM    6  C   UNL     1       4.373  28.273  50.940  1.00  0.00     0.111 C 
HETATM    7  C   UNL     1       2.929  28.575  51.342  1.00  0.00     0.025 C 
BRANCH   6   8
HETATM    8  C   UNL     1       4.554  28.213  49.449  1.00  0.00     0.004 A 
HETATM    9  C   UNL     1       4.990  29.253  48.640  1.00  0.00     0.033 A 
HETATM   10  C   UNL     1       5.401  30.645  48.943  1.00  0.00     0.070 C 
HETATM   11  N   UNL     1       4.986  28.770  47.362  1.00  0.00    -0.282 N 
HETATM   12  H   UNL     1       5.245  29.251  46.505  1.00  0.00     0.189 HD
HETATM   13  N   UNL     1       4.570  27.504  47.274  1.00  0.00    -0.179 NA
HETATM   14  C   UNL     1       4.289  27.152  48.532  1.00  0.00     0.060 A 
HETATM   15  C   UNL     1       3.766  25.786  48.776  1.00  0.00     0.073 C 
ENDBRANCH   6   8
ENDBRANCH   3   6
ENDBRANCH   1   2
BRANCH   1  16
HETATM   16  C   UNL     1       5.572  25.200  54.469  1.00  0.00     0.238 C 
BRANCH  16  17
HETATM   17  N   UNL     1       6.138  26.603  54.746  1.00  0.00    -0.061 N 
HETATM   18  H   UNL     1       5.951  27.155  53.882  1.00  0.00     0.280 HD
HETATM   19  C   UNL     1       7.611  26.720  55.078  1.00  0.00     0.236 C 
HETATM   20  C   UNL     1       7.636  26.742  56.589  1.00  0.00     0.029 C 
HETATM   21  C   UNL     1       6.485  27.668  56.912  1.00  0.00     0.029 C 
HETATM   22  C   UNL     1       5.418  27.328  55.885  1.00  0.00     0.236 C 
ENDBRANCH  16  17
BRANCH  16  23
HETATM   23  C   UNL     1       6.609  24.095  54.322  1.00  0.00    -0.024 A 
HETATM   24  C   UNL     1       7.034  23.325  55.421  1.00  0.00     0.033 A 
HETATM   25  C   UNL     1       7.982  22.313  55.250  1.00  0.00     0.034 A 
HETATM   26 CL   UNL     1       8.465  21.370  56.603  1.00  0.00    -0.084 Cl
HETATM   27  C   UNL     1       8.527  22.059  53.997  1.00  0.00     0.024 A 
HETATM   28  C   UNL     1       8.121  22.818  52.901  1.00  0.00     0.002 A 
HETATM   29  C   UNL     1       7.169  23.826  53.059  1.00  0.00     0.009 A 
ENDBRANCH  16  23
ENDBRANCH   1  16
TORSDOF 6
ENDMDL
MODEL 10
REMARK VINA RESULT:      -8.2      3.223      5.971
REMARK  6 active torsions:
REMARK  status: ('A' for Active; 'I' for Inactive)
REMARK    1  A    between atoms: C_8  and  C_9 
REMARK    2  A    between atoms: C_9  and  C_10 
REMARK       I    between atoms: C_10  and  N_11 
REMARK    3  A    between atoms: N_11  and  C_12 
REMARK    4  A    between atoms: C_12  and  C_13 
REMARK    5  A    between atoms: C_13  and  N_14 
REMARK    6  A    between atoms: C_13  and  C_20 
ROOT
HETATM    1  C   UNL     1       6.858  25.575  54.127  1.00  0.00     0.160 C 
ENDROOT
BRANCH   1   2
HETATM    2  N   UNL     1       5.846  26.515  53.659  1.00  0.00    -0.358 N 
HETATM    3  C   UNL     1       6.228  27.750  53.168  1.00  0.00     0.226 C 
HETATM    4  O   UNL     1       7.369  28.162  53.390  1.00  0.00    -0.273 OA
HETATM    5  H   UNL     1       4.989  26.116  53.291  1.00  0.00     0.162 HD
BRANCH   3   6
HETATM    6  C   UNL     1       5.167  28.580  52.434  1.00  0.00     0.111 C 
HETATM    7  C   UNL     1       3.737  28.315  52.905  1.00  0.00     0.025 C 
BRANCH   6   8
HETATM    8  C   UNL     1       5.302  28.508  50.939  1.00  0.00     0.004 A 
HETATM    9  C   UNL     1       5.227  27.356  50.169  1.00  0.00     0.033 A 
HETATM   10  C   UNL     1       4.995  25.935  50.524  1.00  0.00     0.070 C 
HETATM   11  N   UNL     1       5.423  27.747  48.875  1.00  0.00    -0.282 N 
HETATM   12  H   UNL     1       5.436  27.172  48.037  1.00  0.00     0.189 HD
HETATM   13  N   UNL     1       5.634  29.059  48.743  1.00  0.00    -0.179 NA
HETATM   14  C   UNL     1       5.577  29.538  49.989  1.00  0.00     0.060 A 
HETATM   15  C   UNL     1       5.804  30.990  50.193  1.00  0.00     0.073 C 
ENDBRANCH   6   8
ENDBRANCH   3   6
ENDBRANCH   1   2
BRANCH   1  16
HETATM   16  C   UNL     1       6.448  24.620  55.303  1.00  0.00     0.238 C 
BRANCH  16  17
HETATM   17  N   UNL     1       6.463  25.344  56.661  1.00  0.00    -0.061 N 
HETATM   18  H   UNL     1       6.890  24.670  57.332  1.00  0.00     0.280 HD
HETATM   19  C   UNL     1       5.140  25.811  57.229  1.00  0.00     0.236 C 
HETATM   20  C   UNL     1       5.058  27.258  56.800  1.00  0.00     0.029 C 
HETATM   21  C   UNL     1       6.463  27.748  57.066  1.00  0.00     0.029 C 
HETATM   22  C   UNL     1       7.358  26.586  56.671  1.00  0.00     0.236 C 
ENDBRANCH  16  17
BRANCH  16  23
HETATM   23  C   UNL     1       7.289  23.354  55.230  1.00  0.00    -0.024 A 
HETATM   24  C   UNL     1       7.412  22.612  54.040  1.00  0.00     0.033 A 
HETATM   25  C   UNL     1       8.197  21.458  54.004  1.00  0.00     0.034 A 
HETATM   26 CL   UNL     1       8.353  20.585  52.532  1.00  0.00    -0.084 Cl
HETATM   27  C   UNL     1       8.860  21.017  55.145  1.00  0.00     0.024 A 
HETATM   28  C   UNL     1       8.742  21.737  56.332  1.00  0.00     0.002 A 
HETATM   29  C   UNL     1       7.965  22.896  56.376  1.00  0.00     0.009 A 
ENDBRANCH  16  23
ENDBRANCH   1  16
TORSDOF 6
ENDMDL
