MODEL 1
REMARK VINA RESULT:     -10.0      0.000      0.000
REMARK  7 active torsions:
REMARK  status: ('A' for Active; 'I' for Inactive)
REMARK    1  A    between atoms: O_2  and  C_3 
REMARK    2  A    between atoms: C_6  and  C_7 
REMARK    3  A    between atoms: C_7  and  N_8 
REMARK    4  A    between atoms: C_7  and  C_23 
REMARK       I    between atoms: N_8  and  C_9 
REMARK    5  A    between atoms: C_9  and  C_10 
REMARK    6  A    between atoms: C_10  and  S_11 
REMARK    7  A    between atoms: S_11  and  C_12 
ROOT
HETATM    1  N   UNL     1       7.601  25.698  56.229  1.00  0.00    -0.348 N 
HETATM    2  C   UNL     1       7.686  27.074  56.189  1.00  0.00     0.228 C 
HETATM    3  O   UNL     1       7.936  27.709  55.169  1.00  0.00    -0.273 OA
HETATM    4  H   UNL     1       7.550  25.238  57.127  1.00  0.00     0.163 HD
ENDROOT
BRANCH   1   5
HETATM    5  C   UNL     1       7.902  24.876  55.069  1.00  0.00     0.151 C 
BRANCH   5   6
HETATM    6  C   UNL     1       6.946  25.101  53.902  1.00  0.00    -0.031 A 
HETATM    7  C   UNL     1       7.475  25.373  52.630  1.00  0.00     0.012 A 
HETATM    8  C   UNL     1       6.635  25.523  51.524  1.00  0.00     0.037 A 
HETATM    9  C   UNL     1       5.253  25.389  51.657  1.00  0.00     0.068 A 
HETATM   10  C   UNL     1       4.712  25.137  52.917  1.00  0.00     0.037 A 
HETATM   11  C   UNL     1       5.552  24.994  54.030  1.00  0.00     0.012 A 
BRANCH   9  12
HETATM   12  O   UNL     1       4.549  25.533  50.494  1.00  0.00    -0.356 OA
HETATM   13  C   UNL     1       4.707  26.768  49.806  1.00  0.00     0.210 C 
ENDBRANCH   9  12
ENDBRANCH   5   6
BRANCH   5  14
HETATM   14  C   UNL     1       7.972  23.411  55.491  1.00  0.00    -0.031 A 
HETATM   15  C   UNL     1       7.761  22.398  54.541  1.00  0.00     0.009 A 
HETATM   16  C   UNL     1       7.828  21.052  54.908  1.00  0.00     0.001 A 
HETATM   17  C   UNL     1       8.112  20.700  56.225  1.00  0.00     0.000 A 
HETATM   18  C   UNL     1       8.333  21.691  57.178  1.00  0.00     0.001 A 
HETATM   19  C   UNL     1       8.265  23.037  56.815  1.00  0.00     0.009 A 
ENDBRANCH   5  14
ENDBRANCH   1   5
BRANCH   2  20
HETATM   20  C   UNL     1       7.474  27.742  57.534  1.00  0.00     0.185 C 
BRANCH  20  21
HETATM   21  S   UNL     1       8.694  29.080  57.711  1.00  0.00    -0.081 SA
BRANCH  21  22
HETATM   22  C   UNL     1       7.697  30.327  58.371  1.00  0.00     0.192 A 
HETATM   23  N   UNL     1       7.939  30.948  59.569  1.00  0.00    -0.311 N 
HETATM   24  C   UNL     1       6.862  31.782  59.767  1.00  0.00     0.130 A 
HETATM   25  C   UNL     1       9.063  30.712  60.453  1.00  0.00     0.133 C 
HETATM   26  C   UNL     1       6.612  32.628  60.970  1.00  0.00     0.081 C 
HETATM   27  N   UNL     1       6.064  31.703  58.720  1.00  0.00    -0.134 NA
HETATM   28  C   UNL     1       6.986  31.932  62.273  1.00  0.00     0.008 C 
HETATM   29  C   UNL     1       8.480  31.993  62.592  1.00  0.00     0.002 C 
HETATM   30  C   UNL     1       9.418  31.859  61.394  1.00  0.00     0.020 C 
HETATM   31  N   UNL     1       6.587  30.786  57.847  1.00  0.00    -0.123 NA
ENDBRANCH  21  22
ENDBRANCH  20  21
ENDBRANCH   2  20
TORSDOF 7
ENDMDL
MODEL 2
REMARK VINA RESULT:      -9.6      3.931      9.020
REMARK  7 active torsions:
REMARK  status: ('A' for Active; 'I' for Inactive)
REMARK    1  A    between atoms: O_2  and  C_3 
REMARK    2  A    between atoms: C_6  and  C_7 
REMARK    3  A    between atoms: C_7  and  N_8 
REMARK    4  A    between atoms: C_7  and  C_23 
REMARK       I    between atoms: N_8  and  C_9 
REMARK    5  A    between atoms: C_9  and  C_10 
REMARK    6  A    between atoms: C_10  and  S_11 
REMARK    7  A    between atoms: S_11  and  C_12 
ROOT
HETATM    1  N   UNL     1       5.640  27.679  53.517  1.00  0.00    -0.348 N 
HETATM    2  C   UNL     1       4.482  28.407  53.694  1.00  0.00     0.228 C 
HETATM    3  O   UNL     1       3.876  28.469  54.759  1.00  0.00    -0.273 OA
HETATM    4  H   UNL     1       5.995  27.546  52.580  1.00  0.00     0.163 HD
ENDROOT
BRANCH   1   5
HETATM    5  C   UNL     1       6.185  26.836  54.568  1.00  0.00     0.151 C 
BRANCH   5   6
HETATM    6  C   UNL     1       7.148  27.572  55.495  1.00  0.00    -0.031 A 
HETATM    7  C   UNL     1       8.074  28.471  54.940  1.00  0.00     0.012 A 
HETATM    8  C   UNL     1       8.929  29.211  55.760  1.00  0.00     0.037 A 
HETATM    9  C   UNL     1       8.869  29.086  57.148  1.00  0.00     0.068 A 
HETATM   10  C   UNL     1       7.967  28.185  57.712  1.00  0.00     0.037 A 
HETATM   11  C   UNL     1       7.113  27.435  56.892  1.00  0.00     0.012 A 
BRANCH   9  12
HETATM   12  O   UNL     1       9.741  29.885  57.834  1.00  0.00    -0.356 OA
HETATM   13  C   UNL     1      11.040  30.034  57.272  1.00  0.00     0.210 C 
ENDBRANCH   9  12
ENDBRANCH   5   6
BRANCH   5  14
HETATM   14  C   UNL     1       6.812  25.591  53.946  1.00  0.00    -0.031 A 
HETATM   15  C   UNL     1       6.792  24.374  54.645  1.00  0.00     0.009 A 
HETATM   16  C   UNL     1       7.355  23.224  54.088  1.00  0.00     0.001 A 
HETATM   17  C   UNL     1       7.938  23.272  52.823  1.00  0.00     0.000 A 
HETATM   18  C   UNL     1       7.958  24.469  52.112  1.00  0.00     0.001 A 
HETATM   19  C   UNL     1       7.398  25.620  52.667  1.00  0.00     0.009 A 
ENDBRANCH   5  14
ENDBRANCH   1   5
BRANCH   2  20
HETATM   20  C   UNL     1       3.999  29.107  52.438  1.00  0.00     0.185 C 
BRANCH  20  21
HETATM   21  S   UNL     1       5.319  29.025  51.189  1.00  0.00    -0.081 SA
BRANCH  21  22
HETATM   22  C   UNL     1       4.724  27.747  50.190  1.00  0.00     0.192 A 
HETATM   23  N   UNL     1       3.855  27.932  49.147  1.00  0.00    -0.311 N 
HETATM   24  C   UNL     1       3.556  26.666  48.697  1.00  0.00     0.130 A 
HETATM   25  C   UNL     1       3.324  29.196  48.677  1.00  0.00     0.133 C 
HETATM   26  C   UNL     1       2.589  26.319  47.616  1.00  0.00     0.081 C 
HETATM   27  N   UNL     1       4.255  25.791  49.394  1.00  0.00    -0.134 NA
HETATM   28  C   UNL     1       1.329  27.176  47.649  1.00  0.00     0.008 C 
HETATM   29  C   UNL     1       1.505  28.547  46.995  1.00  0.00     0.002 C 
HETATM   30  C   UNL     1       2.857  29.221  47.225  1.00  0.00     0.020 C 
HETATM   31  N   UNL     1       4.985  26.471  50.333  1.00  0.00    -0.123 NA
ENDBRANCH  21  22
ENDBRANCH  20  21
ENDBRANCH   2  20
TORSDOF 7
ENDMDL
MODEL 3
REMARK VINA RESULT:      -9.5      1.766      4.335
REMARK  7 active torsions:
REMARK  status: ('A' for Active; 'I' for Inactive)
REMARK    1  A    between atoms: O_2  and  C_3 
REMARK    2  A    between atoms: C_6  and  C_7 
REMARK    3  A    between atoms: C_7  and  N_8 
REMARK    4  A    between atoms: C_7  and  C_23 
REMARK       I    between atoms: N_8  and  C_9 
REMARK    5  A    between atoms: C_9  and  C_10 
REMARK    6  A    between atoms: C_10  and  S_11 
REMARK    7  A    between atoms: S_11  and  C_12 
ROOT
HETATM    1  N   UNL     1       7.213  27.557  54.394  1.00  0.00    -0.348 N 
HETATM    2  C   UNL     1       7.111  28.033  55.684  1.00  0.00     0.228 C 
HETATM    3  O   UNL     1       6.352  27.559  56.524  1.00  0.00    -0.273 OA
HETATM    4  H   UNL     1       7.738  28.093  53.716  1.00  0.00     0.163 HD
ENDROOT
BRANCH   1   5
HETATM    5  C   UNL     1       6.344  26.506  53.892  1.00  0.00     0.151 C 
BRANCH   5   6
HETATM    6  C   UNL     1       6.990  25.124  53.917  1.00  0.00    -0.031 A 
HETATM    7  C   UNL     1       6.732  24.272  55.004  1.00  0.00     0.012 A 
HETATM    8  C   UNL     1       7.252  22.976  55.034  1.00  0.00     0.037 A 
HETATM    9  C   UNL     1       8.026  22.495  53.977  1.00  0.00     0.068 A 
HETATM   10  C   UNL     1       8.304  23.336  52.901  1.00  0.00     0.037 A 
HETATM   11  C   UNL     1       7.790  24.639  52.871  1.00  0.00     0.012 A 
BRANCH   9  12
HETATM   12  O   UNL     1       8.451  21.204  54.120  1.00  0.00    -0.356 OA
HETATM   13  C   UNL     1       8.404  20.389  52.955  1.00  0.00     0.210 C 
ENDBRANCH   9  12
ENDBRANCH   5   6
BRANCH   5  14
HETATM   14  C   UNL     1       5.837  26.887  52.504  1.00  0.00    -0.031 A 
HETATM   15  C   UNL     1       5.335  25.896  51.646  1.00  0.00     0.009 A 
HETATM   16  C   UNL     1       4.860  26.227  50.375  1.00  0.00     0.001 A 
HETATM   17  C   UNL     1       4.874  27.553  49.947  1.00  0.00     0.000 A 
HETATM   18  C   UNL     1       5.360  28.550  50.789  1.00  0.00     0.001 A 
HETATM   19  C   UNL     1       5.836  28.221  52.058  1.00  0.00     0.009 A 
ENDBRANCH   5  14
ENDBRANCH   1   5
BRANCH   2  20
HETATM   20  C   UNL     1       8.004  29.225  55.972  1.00  0.00     0.185 C 
BRANCH  20  21
HETATM   21  S   UNL     1       8.542  29.135  57.707  1.00  0.00    -0.081 SA
BRANCH  21  22
HETATM   22  C   UNL     1       7.624  30.431  58.386  1.00  0.00     0.192 A 
HETATM   23  N   UNL     1       7.902  31.015  59.595  1.00  0.00    -0.311 N 
HETATM   24  C   UNL     1       6.879  31.913  59.806  1.00  0.00     0.130 A 
HETATM   25  C   UNL     1       9.005  30.694  60.477  1.00  0.00     0.133 C 
HETATM   26  C   UNL     1       6.679  32.752  61.022  1.00  0.00     0.081 C 
HETATM   27  N   UNL     1       6.080  31.901  58.756  1.00  0.00    -0.134 NA
HETATM   28  C   UNL     1       7.005  32.013  62.314  1.00  0.00     0.008 C 
HETATM   29  C   UNL     1       8.498  31.973  62.637  1.00  0.00     0.002 C 
HETATM   30  C   UNL     1       9.430  31.801  61.438  1.00  0.00     0.020 C 
HETATM   31  N   UNL     1       6.547  30.968  57.868  1.00  0.00    -0.123 NA
ENDBRANCH  21  22
ENDBRANCH  20  21
ENDBRANCH   2  20
TORSDOF 7
ENDMDL
MODEL 4
REMARK VINA RESULT:      -9.4      1.317      2.154
REMARK  7 active torsions:
REMARK  status: ('A' for Active; 'I' for Inactive)
REMARK    1  A    between atoms: O_2  and  C_3 
REMARK    2  A    between atoms: C_6  and  C_7 
REMARK    3  A    between atoms: C_7  and  N_8 
REMARK    4  A    between atoms: C_7  and  C_23 
REMARK       I    between atoms: N_8  and  C_9 
REMARK    5  A    between atoms: C_9  and  C_10 
REMARK    6  A    between atoms: C_10  and  S_11 
REMARK    7  A    between atoms: S_11  and  C_12 
ROOT
HETATM    1  N   UNL     1       6.718  27.162  54.847  1.00  0.00    -0.348 N 
HETATM    2  C   UNL     1       7.428  28.170  55.466  1.00  0.00     0.228 C 
HETATM    3  O   UNL     1       8.413  28.709  54.970  1.00  0.00    -0.273 OA
HETATM    4  H   UNL     1       6.019  26.661  55.378  1.00  0.00     0.163 HD
ENDROOT
BRANCH   1   5
HETATM    5  C   UNL     1       7.147  26.583  53.585  1.00  0.00     0.151 C 
BRANCH   5   6
HETATM    6  C   UNL     1       6.189  26.866  52.432  1.00  0.00    -0.031 A 
HETATM    7  C   UNL     1       5.777  28.188  52.198  1.00  0.00     0.012 A 
HETATM    8  C   UNL     1       4.951  28.498  51.115  1.00  0.00     0.037 A 
HETATM    9  C   UNL     1       4.532  27.502  50.233  1.00  0.00     0.068 A 
HETATM   10  C   UNL     1       4.919  26.182  50.463  1.00  0.00     0.037 A 
HETATM   11  C   UNL     1       5.741  25.867  51.553  1.00  0.00     0.012 A 
BRANCH   9  12
HETATM   12  O   UNL     1       3.749  27.942  49.202  1.00  0.00    -0.356 OA
HETATM   13  C   UNL     1       3.081  26.942  48.442  1.00  0.00     0.210 C 
ENDBRANCH   9  12
ENDBRANCH   5   6
BRANCH   5  14
HETATM   14  C   UNL     1       7.407  25.091  53.775  1.00  0.00    -0.031 A 
HETATM   15  C   UNL     1       6.999  24.455  54.958  1.00  0.00     0.009 A 
HETATM   16  C   UNL     1       7.223  23.089  55.146  1.00  0.00     0.001 A 
HETATM   17  C   UNL     1       7.850  22.340  54.153  1.00  0.00     0.000 A 
HETATM   18  C   UNL     1       8.252  22.953  52.969  1.00  0.00     0.001 A 
HETATM   19  C   UNL     1       8.032  24.318  52.780  1.00  0.00     0.009 A 
ENDBRANCH   5  14
ENDBRANCH   1   5
BRANCH   2  20
HETATM   20  C   UNL     1       6.900  28.540  56.839  1.00  0.00     0.185 C 
BRANCH  20  21
HETATM   21  S   UNL     1       8.260  29.273  57.799  1.00  0.00    -0.081 SA
BRANCH  21  22
HETATM   22  C   UNL     1       7.446  30.614  58.521  1.00  0.00     0.192 A 
HETATM   23  N   UNL     1       7.761  31.131  59.751  1.00  0.00    -0.311 N 
HETATM   24  C   UNL     1       6.813  32.100  59.990  1.00  0.00     0.130 A 
HETATM   25  C   UNL     1       8.828  30.689  60.626  1.00  0.00     0.133 C 
HETATM   26  C   UNL     1       6.674  32.910  61.234  1.00  0.00     0.081 C 
HETATM   27  N   UNL     1       6.024  32.192  58.936  1.00  0.00    -0.134 NA
HETATM   28  C   UNL     1       6.928  32.100  62.500  1.00  0.00     0.008 C 
HETATM   29  C   UNL     1       8.411  31.927  62.828  1.00  0.00     0.002 C 
HETATM   30  C   UNL     1       9.334  31.722  61.628  1.00  0.00     0.020 C 
HETATM   31  N   UNL     1       6.420  31.256  58.017  1.00  0.00    -0.123 NA
ENDBRANCH  21  22
ENDBRANCH  20  21
ENDBRANCH   2  20
TORSDOF 7
ENDMDL
MODEL 5
REMARK VINA RESULT:      -9.0      2.637      5.184
REMARK  7 active torsions:
REMARK  status: ('A' for Active; 'I' for Inactive)
REMARK    1  A    between atoms: O_2  and  C_3 
REMARK    2  A    between atoms: C_6  and  C_7 
REMARK    3  A    between atoms: C_7  and  N_8 
REMARK    4  A    between atoms: C_7  and  C_23 
REMARK       I    between atoms: N_8  and  C_9 
REMARK    5  A    between atoms: C_9  and  C_10 
REMARK    6  A    between atoms: C_10  and  S_11 
REMARK    7  A    between atoms: S_11  and  C_12 
ROOT
HETATM    1  N   UNL     1       5.886  29.110  57.348  1.00  0.00    -0.348 N 
HETATM    2  C   UNL     1       4.915  30.032  57.018  1.00  0.00     0.228 C 
HETATM    3  O   UNL     1       4.742  30.457  55.881  1.00  0.00    -0.273 OA
HETATM    4  H   UNL     1       6.073  28.926  58.324  1.00  0.00     0.163 HD
ENDROOT
BRANCH   1   5
HETATM    5  C   UNL     1       6.857  28.636  56.376  1.00  0.00     0.151 C 
BRANCH   5   6
HETATM    6  C   UNL     1       6.870  27.118  56.224  1.00  0.00    -0.031 A 
HETATM    7  C   UNL     1       6.632  26.559  54.958  1.00  0.00     0.012 A 
HETATM    8  C   UNL     1       6.698  25.177  54.764  1.00  0.00     0.037 A 
HETATM    9  C   UNL     1       7.020  24.325  55.821  1.00  0.00     0.068 A 
HETATM   10  C   UNL     1       7.241  24.865  57.087  1.00  0.00     0.037 A 
HETATM   11  C   UNL     1       7.168  26.250  57.287  1.00  0.00     0.012 A 
BRANCH   9  12
HETATM   12  O   UNL     1       7.076  22.999  55.492  1.00  0.00    -0.356 OA
HETATM   13  C   UNL     1       8.073  22.225  56.148  1.00  0.00     0.210 C 
ENDBRANCH   9  12
ENDBRANCH   5   6
BRANCH   5  14
HETATM   14  C   UNL     1       8.233  29.200  56.720  1.00  0.00    -0.031 A 
HETATM   15  C   UNL     1       8.520  29.591  58.037  1.00  0.00     0.009 A 
HETATM   16  C   UNL     1       9.776  30.103  58.371  1.00  0.00     0.001 A 
HETATM   17  C   UNL     1      10.764  30.224  57.396  1.00  0.00     0.000 A 
HETATM   18  C   UNL     1      10.499  29.832  56.086  1.00  0.00     0.001 A 
HETATM   19  C   UNL     1       9.244  29.322  55.749  1.00  0.00     0.009 A 
ENDBRANCH   5  14
ENDBRANCH   1   5
BRANCH   2  20
HETATM   20  C   UNL     1       4.091  30.506  58.201  1.00  0.00     0.185 C 
BRANCH  20  21
HETATM   21  S   UNL     1       4.349  32.295  58.401  1.00  0.00    -0.081 SA
BRANCH  21  22
HETATM   22  C   UNL     1       4.709  32.372  60.089  1.00  0.00     0.192 A 
HETATM   23  N   UNL     1       5.978  32.318  60.605  1.00  0.00    -0.311 N 
HETATM   24  C   UNL     1       5.812  32.298  61.972  1.00  0.00     0.130 A 
HETATM   25  C   UNL     1       7.214  32.234  59.854  1.00  0.00     0.133 C 
HETATM   26  C   UNL     1       6.893  32.168  62.990  1.00  0.00     0.081 C 
HETATM   27  N   UNL     1       4.524  32.396  62.245  1.00  0.00    -0.134 NA
HETATM   28  C   UNL     1       7.981  31.182  62.578  1.00  0.00     0.008 C 
HETATM   29  C   UNL     1       9.012  31.775  61.618  1.00  0.00     0.002 C 
HETATM   30  C   UNL     1       8.462  32.741  60.570  1.00  0.00     0.020 C 
HETATM   31  N   UNL     1       3.834  32.438  61.062  1.00  0.00    -0.123 NA
ENDBRANCH  21  22
ENDBRANCH  20  21
ENDBRANCH   2  20
TORSDOF 7
ENDMDL
MODEL 6
REMARK VINA RESULT:      -8.9      2.657      5.132
REMARK  7 active torsions:
REMARK  status: ('A' for Active; 'I' for Inactive)
REMARK    1  A    between atoms: O_2  and  C_3 
REMARK    2  A    between atoms: C_6  and  C_7 
REMARK    3  A    between atoms: C_7  and  N_8 
REMARK    4  A    between atoms: C_7  and  C_23 
REMARK       I    between atoms: N_8  and  C_9 
REMARK    5  A    between atoms: C_9  and  C_10 
REMARK    6  A    between atoms: C_10  and  S_11 
REMARK    7  A    between atoms: S_11  and  C_12 
ROOT
HETATM    1  N   UNL     1       5.854  28.973  57.296  1.00  0.00    -0.348 N 
HETATM    2  C   UNL     1       5.050  30.055  57.007  1.00  0.00     0.228 C 
HETATM    3  O   UNL     1       5.062  30.641  55.929  1.00  0.00    -0.273 OA
HETATM    4  H   UNL     1       5.904  28.643  58.249  1.00  0.00     0.163 HD
ENDROOT
BRANCH   1   5
HETATM    5  C   UNL     1       6.864  28.496  56.365  1.00  0.00     0.151 C 
BRANCH   5   6
HETATM    6  C   UNL     1       6.906  26.976  56.244  1.00  0.00    -0.031 A 
HETATM    7  C   UNL     1       6.370  26.370  55.095  1.00  0.00     0.012 A 
HETATM    8  C   UNL     1       6.445  24.987  54.916  1.00  0.00     0.037 A 
HETATM    9  C   UNL     1       7.070  24.180  55.868  1.00  0.00     0.068 A 
HETATM   10  C   UNL     1       7.590  24.766  57.021  1.00  0.00     0.037 A 
HETATM   11  C   UNL     1       7.509  26.153  57.207  1.00  0.00     0.012 A 
BRANCH   9  12
HETATM   12  O   UNL     1       7.098  22.848  55.560  1.00  0.00    -0.356 OA
HETATM   13  C   UNL     1       8.129  22.079  56.169  1.00  0.00     0.210 C 
ENDBRANCH   9  12
ENDBRANCH   5   6
BRANCH   5  14
HETATM   14  C   UNL     1       8.219  29.089  56.741  1.00  0.00    -0.031 A 
HETATM   15  C   UNL     1       9.189  29.301  55.749  1.00  0.00     0.009 A 
HETATM   16  C   UNL     1      10.433  29.849  56.074  1.00  0.00     0.001 A 
HETATM   17  C   UNL     1      10.721  30.197  57.391  1.00  0.00     0.000 A 
HETATM   18  C   UNL     1       9.767  30.001  58.386  1.00  0.00     0.001 A 
HETATM   19  C   UNL     1       8.524  29.453  58.065  1.00  0.00     0.009 A 
ENDBRANCH   5  14
ENDBRANCH   1   5
BRANCH   2  20
HETATM   20  C   UNL     1       4.162  30.485  58.160  1.00  0.00     0.185 C 
BRANCH  20  21
HETATM   21  S   UNL     1       4.346  32.280  58.389  1.00  0.00    -0.081 SA
BRANCH  21  22
HETATM   22  C   UNL     1       5.817  32.331  59.293  1.00  0.00     0.192 A 
HETATM   23  N   UNL     1       5.874  32.345  60.663  1.00  0.00    -0.311 N 
HETATM   24  C   UNL     1       7.208  32.499  60.967  1.00  0.00     0.130 A 
HETATM   25  C   UNL     1       4.752  32.278  61.576  1.00  0.00     0.133 C 
HETATM   26  C   UNL     1       7.790  32.647  62.331  1.00  0.00     0.081 C 
HETATM   27  N   UNL     1       7.901  32.513  59.844  1.00  0.00    -0.134 NA
HETATM   28  C   UNL     1       6.939  33.516  63.249  1.00  0.00     0.008 C 
HETATM   29  C   UNL     1       5.761  32.771  63.877  1.00  0.00     0.002 C 
HETATM   30  C   UNL     1       5.064  31.754  62.974  1.00  0.00     0.020 C 
HETATM   31  N   UNL     1       7.026  32.412  58.795  1.00  0.00    -0.123 NA
ENDBRANCH  21  22
ENDBRANCH  20  21
ENDBRANCH   2  20
TORSDOF 7
ENDMDL
MODEL 7
REMARK VINA RESULT:      -8.7      3.289      8.845
REMARK  7 active torsions:
REMARK  status: ('A' for Active; 'I' for Inactive)
REMARK    1  A    between atoms: O_2  and  C_3 
REMARK    2  A    between atoms: C_6  and  C_7 
REMARK    3  A    between atoms: C_7  and  N_8 
REMARK    4  A    between atoms: C_7  and  C_23 
REMARK       I    between atoms: N_8  and  C_9 
REMARK    5  A    between atoms: C_9  and  C_10 
REMARK    6  A    between atoms: C_10  and  S_11 
REMARK    7  A    between atoms: S_11  and  C_12 
ROOT
HETATM    1  N   UNL     1       6.657  27.931  56.440  1.00  0.00    -0.348 N 
HETATM    2  C   UNL     1       5.684  26.954  56.463  1.00  0.00     0.228 C 
HETATM    3  O   UNL     1       4.733  26.962  57.237  1.00  0.00    -0.273 OA
HETATM    4  H   UNL     1       7.490  27.778  55.888  1.00  0.00     0.163 HD
ENDROOT
BRANCH   1   5
HETATM    5  C   UNL     1       6.685  29.011  57.413  1.00  0.00     0.151 C 
BRANCH   5   6
HETATM    6  C   UNL     1       5.608  30.065  57.177  1.00  0.00    -0.031 A 
HETATM    7  C   UNL     1       5.576  30.742  55.947  1.00  0.00     0.012 A 
HETATM    8  C   UNL     1       4.569  31.669  55.668  1.00  0.00     0.037 A 
HETATM    9  C   UNL     1       3.563  31.928  56.599  1.00  0.00     0.068 A 
HETATM   10  C   UNL     1       3.592  31.276  57.831  1.00  0.00     0.037 A 
HETATM   11  C   UNL     1       4.606  30.352  58.117  1.00  0.00     0.012 A 
BRANCH   9  12
HETATM   12  O   UNL     1       2.624  32.835  56.192  1.00  0.00    -0.356 OA
HETATM   13  C   UNL     1       1.800  32.447  55.099  1.00  0.00     0.210 C 
ENDBRANCH   9  12
ENDBRANCH   5   6
BRANCH   5  14
HETATM   14  C   UNL     1       8.087  29.611  57.464  1.00  0.00    -0.031 A 
HETATM   15  C   UNL     1       8.380  30.626  58.389  1.00  0.00     0.009 A 
HETATM   16  C   UNL     1       9.660  31.182  58.454  1.00  0.00     0.001 A 
HETATM   17  C   UNL     1      10.665  30.727  57.603  1.00  0.00     0.000 A 
HETATM   18  C   UNL     1      10.394  29.714  56.687  1.00  0.00     0.001 A 
HETATM   19  C   UNL     1       9.116  29.158  56.618  1.00  0.00     0.009 A 
ENDBRANCH   5  14
ENDBRANCH   1   5
BRANCH   2  20
HETATM   20  C   UNL     1       5.910  25.839  55.459  1.00  0.00     0.185 C 
BRANCH  20  21
HETATM   21  S   UNL     1       7.682  25.431  55.441  1.00  0.00    -0.081 SA
BRANCH  21  22
HETATM   22  C   UNL     1       7.705  24.190  54.239  1.00  0.00     0.192 A 
HETATM   23  N   UNL     1       7.823  22.854  54.520  1.00  0.00    -0.311 N 
HETATM   24  C   UNL     1       7.910  22.233  53.294  1.00  0.00     0.130 A 
HETATM   25  C   UNL     1       7.905  22.250  55.835  1.00  0.00     0.133 C 
HETATM   26  C   UNL     1       8.126  20.777  53.055  1.00  0.00     0.081 C 
HETATM   27  N   UNL     1       7.788  23.144  52.347  1.00  0.00    -0.134 NA
HETATM   28  C   UNL     1       9.121  20.157  54.030  1.00  0.00     0.008 C 
HETATM   29  C   UNL     1       8.509  19.803  55.385  1.00  0.00     0.002 C 
HETATM   30  C   UNL     1       7.473  20.790  55.922  1.00  0.00     0.020 C 
HETATM   31  N   UNL     1       7.664  24.372  52.942  1.00  0.00    -0.123 NA
ENDBRANCH  21  22
ENDBRANCH  20  21
ENDBRANCH   2  20
TORSDOF 7
ENDMDL
MODEL 8
REMARK VINA RESULT:      -8.7      4.765     10.664
REMARK  7 active torsions:
REMARK  status: ('A' for Active; 'I' for Inactive)
REMARK    1  A    between atoms: O_2  and  C_3 
REMARK    2  A    between atoms: C_6  and  C_7 
REMARK    3  A    between atoms: C_7  and  N_8 
REMARK    4  A    between atoms: C_7  and  C_23 
REMARK       I    between atoms: N_8  and  C_9 
REMARK    5  A    between atoms: C_9  and  C_10 
REMARK    6  A    between atoms: C_10  and  S_11 
REMARK    7  A    between atoms: S_11  and  C_12 
ROOT
HETATM    1  N   UNL     1       5.080  33.069  60.457  1.00  0.00    -0.348 N 
HETATM    2  C   UNL     1       3.961  32.545  59.845  1.00  0.00     0.228 C 
HETATM    3  O   UNL     1       3.270  31.660  60.338  1.00  0.00    -0.273 OA
HETATM    4  H   UNL     1       5.687  33.679  59.926  1.00  0.00     0.163 HD
ENDROOT
BRANCH   1   5
HETATM    5  C   UNL     1       5.592  32.535  61.709  1.00  0.00     0.151 C 
BRANCH   5   6
HETATM    6  C   UNL     1       5.400  33.479  62.892  1.00  0.00    -0.031 A 
HETATM    7  C   UNL     1       4.940  32.956  64.112  1.00  0.00     0.012 A 
HETATM    8  C   UNL     1       4.812  33.775  65.237  1.00  0.00     0.037 A 
HETATM    9  C   UNL     1       5.154  35.126  65.175  1.00  0.00     0.068 A 
HETATM   10  C   UNL     1       5.594  35.662  63.966  1.00  0.00     0.037 A 
HETATM   11  C   UNL     1       5.717  34.845  62.834  1.00  0.00     0.012 A 
BRANCH   9  12
HETATM   12  O   UNL     1       5.006  35.808  66.351  1.00  0.00    -0.356 OA
HETATM   13  C   UNL     1       5.137  35.048  67.546  1.00  0.00     0.210 C 
ENDBRANCH   9  12
ENDBRANCH   5   6
BRANCH   5  14
HETATM   14  C   UNL     1       7.049  32.120  61.525  1.00  0.00    -0.031 A 
HETATM   15  C   UNL     1       7.605  31.134  62.355  1.00  0.00     0.009 A 
HETATM   16  C   UNL     1       8.935  30.737  62.196  1.00  0.00     0.001 A 
HETATM   17  C   UNL     1       9.723  31.313  61.203  1.00  0.00     0.000 A 
HETATM   18  C   UNL     1       9.184  32.286  60.365  1.00  0.00     0.001 A 
HETATM   19  C   UNL     1       7.857  32.686  60.522  1.00  0.00     0.009 A 
ENDBRANCH   5  14
ENDBRANCH   1   5
BRANCH   2  20
HETATM   20  C   UNL     1       3.672  33.141  58.480  1.00  0.00     0.185 C 
BRANCH  20  21
HETATM   21  S   UNL     1       5.081  32.786  57.387  1.00  0.00    -0.081 SA
BRANCH  21  22
HETATM   22  C   UNL     1       4.870  31.088  57.146  1.00  0.00     0.192 A 
HETATM   23  N   UNL     1       5.865  30.161  57.314  1.00  0.00    -0.311 N 
HETATM   24  C   UNL     1       5.313  28.963  56.919  1.00  0.00     0.130 A 
HETATM   25  C   UNL     1       7.222  30.419  57.752  1.00  0.00     0.133 C 
HETATM   26  C   UNL     1       6.017  27.650  56.843  1.00  0.00     0.081 C 
HETATM   27  N   UNL     1       4.050  29.163  56.595  1.00  0.00    -0.134 NA
HETATM   28  C   UNL     1       7.443  27.770  56.319  1.00  0.00     0.008 C 
HETATM   29  C   UNL     1       8.451  28.203  57.384  1.00  0.00     0.002 C 
HETATM   30  C   UNL     1       7.949  29.238  58.389  1.00  0.00     0.020 C 
HETATM   31  N   UNL     1       3.774  30.498  56.735  1.00  0.00    -0.123 NA
ENDBRANCH  21  22
ENDBRANCH  20  21
ENDBRANCH   2  20
TORSDOF 7
ENDMDL
MODEL 9
REMARK VINA RESULT:      -8.5      3.542      9.159
REMARK  7 active torsions:
REMARK  status: ('A' for Active; 'I' for Inactive)
REMARK    1  A    between atoms: O_2  and  C_3 
REMARK    2  A    between atoms: C_6  and  C_7 
REMARK    3  A    between atoms: C_7  and  N_8 
REMARK    4  A    between atoms: C_7  and  C_23 
REMARK       I    between atoms: N_8  and  C_9 
REMARK    5  A    between atoms: C_9  and  C_10 
REMARK    6  A    between atoms: C_10  and  S_11 
REMARK    7  A    between atoms: S_11  and  C_12 
ROOT
HETATM    1  N   UNL     1       6.191  27.232  54.793  1.00  0.00    -0.348 N 
HETATM    2  C   UNL     1       5.979  28.022  53.683  1.00  0.00     0.228 C 
HETATM    3  O   UNL     1       6.883  28.541  53.037  1.00  0.00    -0.273 OA
HETATM    4  H   UNL     1       5.400  26.970  55.364  1.00  0.00     0.163 HD
ENDROOT
BRANCH   1   5
HETATM    5  C   UNL     1       7.519  27.031  55.350  1.00  0.00     0.151 C 
BRANCH   5   6
HETATM    6  C   UNL     1       7.730  25.632  55.919  1.00  0.00    -0.031 A 
HETATM    7  C   UNL     1       7.230  24.526  55.211  1.00  0.00     0.012 A 
HETATM    8  C   UNL     1       7.458  23.225  55.665  1.00  0.00     0.037 A 
HETATM    9  C   UNL     1       8.202  22.996  56.823  1.00  0.00     0.068 A 
HETATM   10  C   UNL     1       8.690  24.084  57.545  1.00  0.00     0.037 A 
HETATM   11  C   UNL     1       8.456  25.391  57.096  1.00  0.00     0.012 A 
BRANCH   9  12
HETATM   12  O   UNL     1       8.373  21.678  57.143  1.00  0.00    -0.356 OA
HETATM   13  C   UNL     1       8.003  20.731  56.148  1.00  0.00     0.210 C 
ENDBRANCH   9  12
ENDBRANCH   5   6
BRANCH   5  14
HETATM   14  C   UNL     1       7.810  28.127  56.372  1.00  0.00    -0.031 A 
HETATM   15  C   UNL     1       6.787  28.587  57.216  1.00  0.00     0.009 A 
HETATM   16  C   UNL     1       7.037  29.583  58.161  1.00  0.00     0.001 A 
HETATM   17  C   UNL     1       8.314  30.129  58.282  1.00  0.00     0.000 A 
HETATM   18  C   UNL     1       9.342  29.677  57.459  1.00  0.00     0.001 A 
HETATM   19  C   UNL     1       9.095  28.683  56.512  1.00  0.00     0.009 A 
ENDBRANCH   5  14
ENDBRANCH   1   5
BRANCH   2  20
HETATM   20  C   UNL     1       4.514  28.223  53.343  1.00  0.00     0.185 C 
BRANCH  20  21
HETATM   21  S   UNL     1       4.407  29.209  51.819  1.00  0.00    -0.081 SA
BRANCH  21  22
HETATM   22  C   UNL     1       4.361  27.952  50.635  1.00  0.00     0.192 A 
HETATM   23  N   UNL     1       3.632  28.017  49.476  1.00  0.00    -0.311 N 
HETATM   24  C   UNL     1       3.784  26.784  48.884  1.00  0.00     0.130 A 
HETATM   25  C   UNL     1       2.824  29.132  49.024  1.00  0.00     0.133 C 
HETATM   26  C   UNL     1       3.124  26.320  47.630  1.00  0.00     0.081 C 
HETATM   27  N   UNL     1       4.605  26.058  49.619  1.00  0.00    -0.134 NA
HETATM   28  C   UNL     1       1.677  26.783  47.514  1.00  0.00     0.008 C 
HETATM   29  C   UNL     1       1.532  28.219  47.011  1.00  0.00     0.002 C 
HETATM   30  C   UNL     1       2.580  29.208  47.520  1.00  0.00     0.020 C 
HETATM   31  N   UNL     1       4.963  26.791  50.719  1.00  0.00    -0.123 NA
ENDBRANCH  21  22
ENDBRANCH  20  21
ENDBRANCH   2  20
TORSDOF 7
ENDMDL
MODEL 10
REMARK VINA RESULT:      -8.5      7.426     12.362
REMARK  7 active torsions:
REMARK  status: ('A' for Active; 'I' for Inactive)
REMARK    1  A    between atoms: O_2  and  C_3 
REMARK    2  A    between atoms: C_6  and  C_7 
REMARK    3  A    between atoms: C_7  and  N_8 
REMARK    4  A    between atoms: C_7  and  C_23 
REMARK       I    between atoms: N_8  and  C_9 
REMARK    5  A    between atoms: C_9  and  C_10 
REMARK    6  A    between atoms: C_10  and  S_11 
REMARK    7  A    between atoms: S_11  and  C_12 
ROOT
HETATM    1  N   UNL     1       4.249  34.621  62.360  1.00  0.00    -0.348 N 
HETATM    2  C   UNL     1       3.344  33.581  62.321  1.00  0.00     0.228 C 
HETATM    3  O   UNL     1       2.460  33.420  63.156  1.00  0.00    -0.273 OA
HETATM    4  H   UNL     1       5.042  34.601  61.734  1.00  0.00     0.163 HD
ENDROOT
BRANCH   1   5
HETATM    5  C   UNL     1       4.288  35.564  63.465  1.00  0.00     0.151 C 
BRANCH   5   6
HETATM    6  C   UNL     1       4.694  36.973  63.044  1.00  0.00    -0.031 A 
HETATM    7  C   UNL     1       3.845  37.700  62.193  1.00  0.00     0.012 A 
HETATM    8  C   UNL     1       4.149  39.016  61.834  1.00  0.00     0.037 A 
HETATM    9  C   UNL     1       5.294  39.641  62.329  1.00  0.00     0.068 A 
HETATM   10  C   UNL     1       6.155  38.925  63.160  1.00  0.00     0.037 A 
HETATM   11  C   UNL     1       5.857  37.603  63.515  1.00  0.00     0.012 A 
BRANCH   9  12
HETATM   12  O   UNL     1       5.461  40.935  61.923  1.00  0.00    -0.356 OA
HETATM   13  C   UNL     1       5.346  41.182  60.527  1.00  0.00     0.210 C 
ENDBRANCH   9  12
ENDBRANCH   5   6
BRANCH   5  14
HETATM   14  C   UNL     1       5.177  35.008  64.574  1.00  0.00    -0.031 A 
HETATM   15  C   UNL     1       4.789  35.147  65.917  1.00  0.00     0.009 A 
HETATM   16  C   UNL     1       5.587  34.638  66.944  1.00  0.00     0.001 A 
HETATM   17  C   UNL     1       6.778  33.980  66.645  1.00  0.00     0.000 A 
HETATM   18  C   UNL     1       7.173  33.826  65.319  1.00  0.00     0.001 A 
HETATM   19  C   UNL     1       6.378  34.335  64.290  1.00  0.00     0.009 A 
ENDBRANCH   5  14
ENDBRANCH   1   5
BRANCH   2  20
HETATM   20  C   UNL     1       3.556  32.625  61.162  1.00  0.00     0.185 C 
BRANCH  20  21
HETATM   21  S   UNL     1       4.394  33.523  59.821  1.00  0.00    -0.081 SA
BRANCH  21  22
HETATM   22  C   UNL     1       5.547  32.337  59.323  1.00  0.00     0.192 A 
HETATM   23  N   UNL     1       6.734  32.104  59.968  1.00  0.00    -0.311 N 
HETATM   24  C   UNL     1       7.390  31.174  59.192  1.00  0.00     0.130 A 
HETATM   25  C   UNL     1       7.206  32.757  61.172  1.00  0.00     0.133 C 
HETATM   26  C   UNL     1       8.763  30.642  59.426  1.00  0.00     0.081 C 
HETATM   27  N   UNL     1       6.609  30.835  58.184  1.00  0.00    -0.134 NA
HETATM   28  C   UNL     1       9.740  31.709  59.907  1.00  0.00     0.008 C 
HETATM   29  C   UNL     1       9.641  31.999  61.404  1.00  0.00     0.002 C 
HETATM   30  C   UNL     1       8.230  31.978  61.991  1.00  0.00     0.020 C 
HETATM   31  N   UNL     1       5.455  31.569  58.265  1.00  0.00    -0.123 NA
ENDBRANCH  21  22
ENDBRANCH  20  21
ENDBRANCH   2  20
TORSDOF 7
ENDMDL
