MODEL 1
REMARK VINA RESULT:      -8.7      0.000      0.000
REMARK  6 active torsions:
REMARK  status: ('A' for Active; 'I' for Inactive)
REMARK    1  A    between atoms: C_2  and  C_3 
REMARK    2  A    between atoms: C_3  and  N_4 
REMARK    3  A    between atoms: C_3  and  C_11 
REMARK    4  A    between atoms: N_4  and  C_5 
REMARK       I    between atoms: C_11  and  N_12 
REMARK    5  A    between atoms: N_12  and  N_13 
REMARK    6  A    between atoms: C_14  and  C_15 
ROOT
HETATM    1  C   UNL     1       6.463  27.243  56.383  1.00  0.00     0.260 C 
HETATM    2  N   UNL     1       6.589  26.190  57.295  1.00  0.00    -0.246 N 
HETATM    3  O   UNL     1       6.567  27.131  55.164  1.00  0.00    -0.269 OA
HETATM    4  H   UNL     1       6.241  26.344  58.239  1.00  0.00     0.192 HD
ENDROOT
BRANCH   2   5
HETATM    5  N   UNL     1       6.715  24.868  56.944  1.00  0.00    -0.184 NA
HETATM    6  C   UNL     1       7.903  24.354  56.997  1.00  0.00     0.152 C 
BRANCH   6   7
HETATM    7  C   UNL     1       8.111  22.979  56.591  1.00  0.00     0.011 A 
HETATM    8  C   UNL     1       8.065  22.462  55.255  1.00  0.00     0.004 A 
HETATM    9  C   UNL     1       8.314  21.090  55.329  1.00  0.00     0.043 A 
HETATM   10  C   UNL     1       7.840  23.035  53.985  1.00  0.00     0.014 A 
HETATM   11  C   UNL     1       8.346  20.264  54.200  1.00  0.00     0.030 A 
HETATM   12  N   UNL     1       8.498  20.784  56.657  1.00  0.00    -0.364 N 
HETATM   13  C   UNL     1       8.123  20.858  52.954  1.00  0.00     0.002 A 
HETATM   14  C   UNL     1       7.874  22.224  52.846  1.00  0.00     0.001 A 
HETATM   15  H   UNL     1       8.689  19.855  57.010  1.00  0.00     0.165 HD
HETATM   16  C   UNL     1       8.387  21.911  57.424  1.00  0.00     0.102 A 
ENDBRANCH   6   7
ENDBRANCH   2   5
BRANCH   1  17
HETATM   17  C   UNL     1       6.185  28.589  57.103  1.00  0.00     0.175 C 
BRANCH  17  18
HETATM   18  C   UNL     1       6.160  29.767  56.118  1.00  0.00     0.030 C 
HETATM   19  C   UNL     1       5.302  30.920  56.625  1.00  0.00     0.007 C 
ENDBRANCH  17  18
BRANCH  17  20
HETATM   20  N   UNL     1       7.236  28.797  58.110  1.00  0.00    -0.377 N 
HETATM   21  H   UNL     1       6.969  28.648  59.079  1.00  0.00     0.160 HD
BRANCH  20  22
HETATM   22  C   UNL     1       8.465  29.383  57.879  1.00  0.00     0.028 A 
HETATM   23  C   UNL     1       8.769  30.589  58.528  1.00  0.00     0.029 A 
HETATM   24  C   UNL     1      10.000  31.225  58.351  1.00  0.00     0.002 A 
HETATM   25  C   UNL     1      10.961  30.656  57.523  1.00  0.00     0.000 A 
HETATM   26  C   UNL     1      10.689  29.454  56.880  1.00  0.00     0.002 A 
HETATM   27  C   UNL     1       9.451  28.824  57.060  1.00  0.00     0.029 A 
ENDBRANCH  20  22
ENDBRANCH  17  20
ENDBRANCH   1  17
TORSDOF 6
ENDMDL
MODEL 2
REMARK VINA RESULT:      -8.6      6.246      8.034
REMARK  6 active torsions:
REMARK  status: ('A' for Active; 'I' for Inactive)
REMARK    1  A    between atoms: C_2  and  C_3 
REMARK    2  A    between atoms: C_3  and  N_4 
REMARK    3  A    between atoms: C_3  and  C_11 
REMARK    4  A    between atoms: N_4  and  C_5 
REMARK       I    between atoms: C_11  and  N_12 
REMARK    5  A    between atoms: N_12  and  N_13 
REMARK    6  A    between atoms: C_14  and  C_15 
ROOT
HETATM    1  C   UNL     1       4.970  26.971  51.083  1.00  0.00     0.260 C 
HETATM    2  N   UNL     1       4.707  25.665  51.509  1.00  0.00    -0.246 N 
HETATM    3  O   UNL     1       5.539  27.827  51.757  1.00  0.00    -0.269 OA
HETATM    4  H   UNL     1       4.465  24.980  50.796  1.00  0.00     0.192 HD
ENDROOT
BRANCH   2   5
HETATM    5  N   UNL     1       5.164  25.123  52.685  1.00  0.00    -0.184 NA
HETATM    6  C   UNL     1       6.305  24.508  52.647  1.00  0.00     0.152 C 
BRANCH   6   7
HETATM    7  C   UNL     1       6.820  23.872  53.842  1.00  0.00     0.011 A 
HETATM    8  C   UNL     1       7.486  22.606  53.922  1.00  0.00     0.004 A 
HETATM    9  C   UNL     1       7.800  22.382  55.263  1.00  0.00     0.043 A 
HETATM   10  C   UNL     1       7.860  21.629  52.973  1.00  0.00     0.014 A 
HETATM   11  C   UNL     1       8.464  21.231  55.704  1.00  0.00     0.030 A 
HETATM   12  N   UNL     1       7.337  23.465  55.973  1.00  0.00    -0.364 N 
HETATM   13  C   UNL     1       8.825  20.281  54.744  1.00  0.00     0.002 A 
HETATM   14  C   UNL     1       8.528  20.475  53.397  1.00  0.00     0.001 A 
HETATM   15  H   UNL     1       7.420  23.571  56.975  1.00  0.00     0.165 HD
HETATM   16  C   UNL     1       6.754  24.370  55.130  1.00  0.00     0.102 A 
ENDBRANCH   6   7
ENDBRANCH   2   5
BRANCH   1  17
HETATM   17  C   UNL     1       4.442  27.218  49.646  1.00  0.00     0.175 C 
BRANCH  17  18
HETATM   18  C   UNL     1       5.302  28.243  48.892  1.00  0.00     0.030 C 
HETATM   19  C   UNL     1       5.451  27.891  47.416  1.00  0.00     0.007 C 
ENDBRANCH  17  18
BRANCH  17  20
HETATM   20  N   UNL     1       3.055  27.697  49.742  1.00  0.00    -0.377 N 
HETATM   21  H   UNL     1       2.655  27.738  50.675  1.00  0.00     0.160 HD
BRANCH  20  22
HETATM   22  C   UNL     1       2.193  27.879  48.678  1.00  0.00     0.028 A 
HETATM   23  C   UNL     1       1.667  29.159  48.449  1.00  0.00     0.029 A 
HETATM   24  C   UNL     1       0.802  29.413  47.381  1.00  0.00     0.002 A 
HETATM   25  C   UNL     1       0.454  28.387  46.511  1.00  0.00     0.000 A 
HETATM   26  C   UNL     1       0.974  27.113  46.710  1.00  0.00     0.002 A 
HETATM   27  C   UNL     1       1.837  26.864  47.784  1.00  0.00     0.029 A 
ENDBRANCH  20  22
ENDBRANCH  17  20
ENDBRANCH   1  17
TORSDOF 6
ENDMDL
MODEL 3
REMARK VINA RESULT:      -8.6      2.210      8.852
REMARK  6 active torsions:
REMARK  status: ('A' for Active; 'I' for Inactive)
REMARK    1  A    between atoms: C_2  and  C_3 
REMARK    2  A    between atoms: C_3  and  N_4 
REMARK    3  A    between atoms: C_3  and  C_11 
REMARK    4  A    between atoms: N_4  and  C_5 
REMARK       I    between atoms: C_11  and  N_12 
REMARK    5  A    between atoms: N_12  and  N_13 
REMARK    6  A    between atoms: C_14  and  C_15 
ROOT
HETATM    1  C   UNL     1       7.494  26.332  57.018  1.00  0.00     0.260 C 
HETATM    2  N   UNL     1       6.969  27.606  56.776  1.00  0.00    -0.246 N 
HETATM    3  O   UNL     1       7.970  25.961  58.089  1.00  0.00    -0.269 OA
HETATM    4  H   UNL     1       6.384  27.722  55.952  1.00  0.00     0.192 HD
ENDROOT
BRANCH   2   5
HETATM    5  N   UNL     1       6.794  28.570  57.739  1.00  0.00    -0.184 NA
HETATM    6  C   UNL     1       6.968  29.802  57.378  1.00  0.00     0.152 C 
BRANCH   6   7
HETATM    7  C   UNL     1       6.848  30.863  58.357  1.00  0.00     0.011 A 
HETATM    8  C   UNL     1       7.665  31.057  59.518  1.00  0.00     0.004 A 
HETATM    9  C   UNL     1       7.191  32.191  60.178  1.00  0.00     0.043 A 
HETATM   10  C   UNL     1       8.771  30.373  60.068  1.00  0.00     0.014 A 
HETATM   11  C   UNL     1       7.764  32.675  61.361  1.00  0.00     0.030 A 
HETATM   12  N   UNL     1       6.125  32.666  59.451  1.00  0.00    -0.364 N 
HETATM   13  C   UNL     1       8.861  31.981  61.882  1.00  0.00     0.002 A 
HETATM   14  C   UNL     1       9.359  30.847  61.247  1.00  0.00     0.001 A 
HETATM   15  H   UNL     1       5.579  33.481  59.700  1.00  0.00     0.165 HD
HETATM   16  C   UNL     1       5.914  31.882  58.351  1.00  0.00     0.102 A 
ENDBRANCH   6   7
ENDBRANCH   2   5
BRANCH   1  17
HETATM   17  C   UNL     1       7.414  25.435  55.754  1.00  0.00     0.175 C 
BRANCH  17  18
HETATM   18  C   UNL     1       5.972  25.000  55.455  1.00  0.00     0.030 C 
HETATM   19  C   UNL     1       5.526  25.417  54.059  1.00  0.00     0.007 C 
ENDBRANCH  17  18
BRANCH  17  20
HETATM   20  N   UNL     1       8.262  24.254  55.975  1.00  0.00    -0.377 N 
HETATM   21  H   UNL     1       9.064  24.381  56.585  1.00  0.00     0.160 HD
BRANCH  20  22
HETATM   22  C   UNL     1       8.193  23.073  55.263  1.00  0.00     0.028 A 
HETATM   23  C   UNL     1       7.965  21.878  55.963  1.00  0.00     0.029 A 
HETATM   24  C   UNL     1       7.868  20.651  55.301  1.00  0.00     0.002 A 
HETATM   25  C   UNL     1       7.988  20.597  53.917  1.00  0.00     0.000 A 
HETATM   26  C   UNL     1       8.201  21.770  53.201  1.00  0.00     0.002 A 
HETATM   27  C   UNL     1       8.300  22.996  53.871  1.00  0.00     0.029 A 
ENDBRANCH  20  22
ENDBRANCH  17  20
ENDBRANCH   1  17
TORSDOF 6
ENDMDL
MODEL 4
REMARK VINA RESULT:      -8.6      2.041      8.352
REMARK  6 active torsions:
REMARK  status: ('A' for Active; 'I' for Inactive)
REMARK    1  A    between atoms: C_2  and  C_3 
REMARK    2  A    between atoms: C_3  and  N_4 
REMARK    3  A    between atoms: C_3  and  C_11 
REMARK    4  A    between atoms: N_4  and  C_5 
REMARK       I    between atoms: C_11  and  N_12 
REMARK    5  A    between atoms: N_12  and  N_13 
REMARK    6  A    between atoms: C_14  and  C_15 
ROOT
HETATM    1  C   UNL     1       7.132  26.930  53.994  1.00  0.00     0.260 C 
HETATM    2  N   UNL     1       7.622  27.088  55.295  1.00  0.00    -0.246 N 
HETATM    3  O   UNL     1       6.999  27.840  53.179  1.00  0.00    -0.269 OA
HETATM    4  H   UNL     1       7.922  26.249  55.787  1.00  0.00     0.192 HD
ENDROOT
BRANCH   2   5
HETATM    5  N   UNL     1       8.143  28.257  55.792  1.00  0.00    -0.184 NA
HETATM    6  C   UNL     1       9.051  28.154  56.713  1.00  0.00     0.152 C 
BRANCH   6   7
HETATM    7  C   UNL     1       9.605  29.349  57.315  1.00  0.00     0.011 A 
HETATM    8  C   UNL     1       8.966  30.204  58.271  1.00  0.00     0.004 A 
HETATM    9  C   UNL     1       9.857  31.236  58.570  1.00  0.00     0.043 A 
HETATM   10  C   UNL     1       7.711  30.193  58.918  1.00  0.00     0.014 A 
HETATM   11  C   UNL     1       9.556  32.258  59.478  1.00  0.00     0.030 A 
HETATM   12  N   UNL     1      10.990  31.021  57.820  1.00  0.00    -0.364 N 
HETATM   13  C   UNL     1       8.308  32.222  60.106  1.00  0.00     0.002 A 
HETATM   14  C   UNL     1       7.397  31.205  59.832  1.00  0.00     0.001 A 
HETATM   15  H   UNL     1      11.805  31.620  57.829  1.00  0.00     0.165 HD
HETATM   16  C   UNL     1      10.854  29.887  57.069  1.00  0.00     0.102 A 
ENDBRANCH   6   7
ENDBRANCH   2   5
BRANCH   1  17
HETATM   17  C   UNL     1       6.760  25.453  53.702  1.00  0.00     0.175 C 
BRANCH  17  18
HETATM   18  C   UNL     1       5.253  25.203  53.863  1.00  0.00     0.030 C 
HETATM   19  C   UNL     1       4.577  24.901  52.531  1.00  0.00     0.007 C 
ENDBRANCH  17  18
BRANCH  17  20
HETATM   20  N   UNL     1       7.515  24.597  54.629  1.00  0.00    -0.377 N 
HETATM   21  H   UNL     1       8.108  25.072  55.302  1.00  0.00     0.160 HD
BRANCH  20  22
HETATM   22  C   UNL     1       7.659  23.227  54.520  1.00  0.00     0.028 A 
HETATM   23  C   UNL     1       7.947  22.678  53.262  1.00  0.00     0.029 A 
HETATM   24  C   UNL     1       8.121  21.303  53.087  1.00  0.00     0.002 A 
HETATM   25  C   UNL     1       8.020  20.447  54.177  1.00  0.00     0.000 A 
HETATM   26  C   UNL     1       7.749  20.969  55.437  1.00  0.00     0.002 A 
HETATM   27  C   UNL     1       7.571  22.348  55.604  1.00  0.00     0.029 A 
ENDBRANCH  20  22
ENDBRANCH  17  20
ENDBRANCH   1  17
TORSDOF 6
ENDMDL
MODEL 5
REMARK VINA RESULT:      -8.5      1.432      2.061
REMARK  6 active torsions:
REMARK  status: ('A' for Active; 'I' for Inactive)
REMARK    1  A    between atoms: C_2  and  C_3 
REMARK    2  A    between atoms: C_3  and  N_4 
REMARK    3  A    between atoms: C_3  and  C_11 
REMARK    4  A    between atoms: N_4  and  C_5 
REMARK       I    between atoms: C_11  and  N_12 
REMARK    5  A    between atoms: N_12  and  N_13 
REMARK    6  A    between atoms: C_14  and  C_15 
ROOT
HETATM    1  C   UNL     1       5.720  27.463  56.614  1.00  0.00     0.260 C 
HETATM    2  N   UNL     1       6.539  27.264  55.498  1.00  0.00    -0.246 N 
HETATM    3  O   UNL     1       4.886  26.658  57.024  1.00  0.00    -0.269 OA
HETATM    4  H   UNL     1       7.351  27.870  55.401  1.00  0.00     0.192 HD
ENDROOT
BRANCH   2   5
HETATM    5  N   UNL     1       6.617  26.090  54.790  1.00  0.00    -0.184 NA
HETATM    6  C   UNL     1       7.468  25.205  55.205  1.00  0.00     0.152 C 
BRANCH   6   7
HETATM    7  C   UNL     1       7.635  23.967  54.472  1.00  0.00     0.011 A 
HETATM    8  C   UNL     1       7.969  22.685  55.018  1.00  0.00     0.004 A 
HETATM    9  C   UNL     1       8.035  21.783  53.955  1.00  0.00     0.043 A 
HETATM   10  C   UNL     1       8.217  22.204  56.322  1.00  0.00     0.014 A 
HETATM   11  C   UNL     1       8.339  20.427  54.129  1.00  0.00     0.030 A 
HETATM   12  N   UNL     1       7.758  22.489  52.808  1.00  0.00    -0.364 N 
HETATM   13  C   UNL     1       8.576  19.977  55.431  1.00  0.00     0.002 A 
HETATM   14  C   UNL     1       8.516  20.851  56.513  1.00  0.00     0.001 A 
HETATM   15  H   UNL     1       7.742  22.089  51.879  1.00  0.00     0.165 HD
HETATM   16  C   UNL     1       7.508  23.799  53.106  1.00  0.00     0.102 A 
ENDBRANCH   6   7
ENDBRANCH   2   5
BRANCH   1  17
HETATM   17  C   UNL     1       5.981  28.842  57.274  1.00  0.00     0.175 C 
BRANCH  17  18
HETATM   18  C   UNL     1       6.194  29.943  56.225  1.00  0.00     0.030 C 
HETATM   19  C   UNL     1       4.874  30.505  55.708  1.00  0.00     0.007 C 
ENDBRANCH  17  18
BRANCH  17  20
HETATM   20  N   UNL     1       7.171  28.724  58.130  1.00  0.00    -0.377 N 
HETATM   21  H   UNL     1       7.031  28.303  59.044  1.00  0.00     0.160 HD
BRANCH  20  22
HETATM   22  C   UNL     1       8.392  29.326  57.895  1.00  0.00     0.028 A 
HETATM   23  C   UNL     1       8.681  30.536  58.543  1.00  0.00     0.029 A 
HETATM   24  C   UNL     1       9.903  31.189  58.362  1.00  0.00     0.002 A 
HETATM   25  C   UNL     1      10.870  30.633  57.532  1.00  0.00     0.000 A 
HETATM   26  C   UNL     1      10.612  29.427  56.890  1.00  0.00     0.002 A 
HETATM   27  C   UNL     1       9.383  28.781  57.073  1.00  0.00     0.029 A 
ENDBRANCH  20  22
ENDBRANCH  17  20
ENDBRANCH   1  17
TORSDOF 6
ENDMDL
MODEL 6
REMARK VINA RESULT:      -8.5      5.070      8.145
REMARK  6 active torsions:
REMARK  status: ('A' for Active; 'I' for Inactive)
REMARK    1  A    between atoms: C_2  and  C_3 
REMARK    2  A    between atoms: C_3  and  N_4 
REMARK    3  A    between atoms: C_3  and  C_11 
REMARK    4  A    between atoms: N_4  and  C_5 
REMARK       I    between atoms: C_11  and  N_12 
REMARK    5  A    between atoms: N_12  and  N_13 
REMARK    6  A    between atoms: C_14  and  C_15 
ROOT
HETATM    1  C   UNL     1       5.903  25.564  54.606  1.00  0.00     0.260 C 
HETATM    2  N   UNL     1       5.650  25.125  53.302  1.00  0.00    -0.246 N 
HETATM    3  O   UNL     1       5.685  26.702  55.017  1.00  0.00    -0.269 OA
HETATM    4  H   UNL     1       5.631  24.120  53.143  1.00  0.00     0.192 HD
ENDROOT
BRANCH   2   5
HETATM    5  N   UNL     1       5.002  25.865  52.344  1.00  0.00    -0.184 NA
HETATM    6  C   UNL     1       5.671  26.160  51.273  1.00  0.00     0.152 C 
BRANCH   6   7
HETATM    7  C   UNL     1       5.061  26.981  50.247  1.00  0.00     0.011 A 
HETATM    8  C   UNL     1       4.221  26.534  49.176  1.00  0.00     0.004 A 
HETATM    9  C   UNL     1       3.868  27.656  48.425  1.00  0.00     0.043 A 
HETATM   10  C   UNL     1       3.719  25.275  48.778  1.00  0.00     0.014 A 
HETATM   11  C   UNL     1       3.044  27.584  47.295  1.00  0.00     0.030 A 
HETATM   12  N   UNL     1       4.476  28.742  49.011  1.00  0.00    -0.364 N 
HETATM   13  C   UNL     1       2.559  26.326  46.925  1.00  0.00     0.002 A 
HETATM   14  C   UNL     1       2.890  25.187  47.655  1.00  0.00     0.001 A 
HETATM   15  H   UNL     1       4.401  29.692  48.672  1.00  0.00     0.165 HD
HETATM   16  C   UNL     1       5.188  28.351  50.110  1.00  0.00     0.102 A 
ENDBRANCH   6   7
ENDBRANCH   2   5
BRANCH   1  17
HETATM   17  C   UNL     1       6.512  24.436  55.479  1.00  0.00     0.175 C 
BRANCH  17  18
HETATM   18  C   UNL     1       6.798  24.915  56.909  1.00  0.00     0.030 C 
HETATM   19  C   UNL     1       8.258  25.309  57.101  1.00  0.00     0.007 C 
ENDBRANCH  17  18
BRANCH  17  20
HETATM   20  N   UNL     1       7.756  23.982  54.841  1.00  0.00    -0.377 N 
HETATM   21  H   UNL     1       8.354  24.705  54.452  1.00  0.00     0.160 HD
BRANCH  20  22
HETATM   22  C   UNL     1       8.068  22.672  54.531  1.00  0.00     0.028 A 
HETATM   23  C   UNL     1       8.450  21.808  55.568  1.00  0.00     0.029 A 
HETATM   24  C   UNL     1       8.763  20.468  55.325  1.00  0.00     0.002 A 
HETATM   25  C   UNL     1       8.688  19.962  54.032  1.00  0.00     0.000 A 
HETATM   26  C   UNL     1       8.297  20.796  52.991  1.00  0.00     0.002 A 
HETATM   27  C   UNL     1       7.989  22.139  53.241  1.00  0.00     0.029 A 
ENDBRANCH  20  22
ENDBRANCH  17  20
ENDBRANCH   1  17
TORSDOF 6
ENDMDL
MODEL 7
REMARK VINA RESULT:      -8.5      2.244      3.187
REMARK  6 active torsions:
REMARK  status: ('A' for Active; 'I' for Inactive)
REMARK    1  A    between atoms: C_2  and  C_3 
REMARK    2  A    between atoms: C_3  and  N_4 
REMARK    3  A    between atoms: C_3  and  C_11 
REMARK    4  A    between atoms: N_4  and  C_5 
REMARK       I    between atoms: C_11  and  N_12 
REMARK    5  A    between atoms: N_12  and  N_13 
REMARK    6  A    between atoms: C_14  and  C_15 
ROOT
HETATM    1  C   UNL     1       7.907  28.184  57.092  1.00  0.00     0.260 C 
HETATM    2  N   UNL     1       7.066  27.669  56.101  1.00  0.00    -0.246 N 
HETATM    3  O   UNL     1       9.057  27.805  57.303  1.00  0.00    -0.269 OA
HETATM    4  H   UNL     1       6.244  28.216  55.853  1.00  0.00     0.192 HD
ENDROOT
BRANCH   2   5
HETATM    5  N   UNL     1       7.455  26.763  55.144  1.00  0.00    -0.184 NA
HETATM    6  C   UNL     1       6.948  25.573  55.217  1.00  0.00     0.152 C 
BRANCH   6   7
HETATM    7  C   UNL     1       7.357  24.557  54.269  1.00  0.00     0.011 A 
HETATM    8  C   UNL     1       7.583  23.168  54.542  1.00  0.00     0.004 A 
HETATM    9  C   UNL     1       7.969  22.564  53.345  1.00  0.00     0.043 A 
HETATM   10  C   UNL     1       7.490  22.365  55.699  1.00  0.00     0.014 A 
HETATM   11  C   UNL     1       8.270  21.200  53.246  1.00  0.00     0.030 A 
HETATM   12  N   UNL     1       7.983  23.547  52.382  1.00  0.00    -0.364 N 
HETATM   13  C   UNL     1       8.166  20.427  54.407  1.00  0.00     0.002 A 
HETATM   14  C   UNL     1       7.782  20.999  55.616  1.00  0.00     0.001 A 
HETATM   15  H   UNL     1       8.234  23.397  51.414  1.00  0.00     0.165 HD
HETATM   16  C   UNL     1       7.609  24.745  52.923  1.00  0.00     0.102 A 
ENDBRANCH   6   7
ENDBRANCH   2   5
BRANCH   1  17
HETATM   17  C   UNL     1       7.204  29.296  57.913  1.00  0.00     0.175 C 
BRANCH  17  18
HETATM   18  C   UNL     1       6.187  30.073  57.064  1.00  0.00     0.030 C 
HETATM   19  C   UNL     1       4.788  30.039  57.671  1.00  0.00     0.007 C 
ENDBRANCH  17  18
BRANCH  17  20
HETATM   20  N   UNL     1       8.234  30.210  58.427  1.00  0.00    -0.377 N 
HETATM   21  H   UNL     1       9.119  30.219  57.928  1.00  0.00     0.160 HD
BRANCH  20  22
HETATM   22  C   UNL     1       8.186  30.875  59.637  1.00  0.00     0.028 A 
HETATM   23  C   UNL     1       9.119  30.537  60.628  1.00  0.00     0.029 A 
HETATM   24  C   UNL     1       9.135  31.183  61.867  1.00  0.00     0.002 A 
HETATM   25  C   UNL     1       8.220  32.194  62.134  1.00  0.00     0.000 A 
HETATM   26  C   UNL     1       7.295  32.557  61.161  1.00  0.00     0.002 A 
HETATM   27  C   UNL     1       7.282  31.902  59.924  1.00  0.00     0.029 A 
ENDBRANCH  20  22
ENDBRANCH  17  20
ENDBRANCH   1  17
TORSDOF 6
ENDMDL
MODEL 8
REMARK VINA RESULT:      -8.4      4.319      5.924
REMARK  6 active torsions:
REMARK  status: ('A' for Active; 'I' for Inactive)
REMARK    1  A    between atoms: C_2  and  C_3 
REMARK    2  A    between atoms: C_3  and  N_4 
REMARK    3  A    between atoms: C_3  and  C_11 
REMARK    4  A    between atoms: N_4  and  C_5 
REMARK       I    between atoms: C_11  and  N_12 
REMARK    5  A    between atoms: N_12  and  N_13 
REMARK    6  A    between atoms: C_14  and  C_15 
ROOT
HETATM    1  C   UNL     1       5.363  27.540  53.662  1.00  0.00     0.260 C 
HETATM    2  N   UNL     1       4.934  26.220  53.837  1.00  0.00    -0.246 N 
HETATM    3  O   UNL     1       6.243  28.085  54.325  1.00  0.00    -0.269 OA
HETATM    4  H   UNL     1       4.390  25.802  53.085  1.00  0.00     0.192 HD
ENDROOT
BRANCH   2   5
HETATM    5  N   UNL     1       5.528  25.315  54.681  1.00  0.00    -0.184 NA
HETATM    6  C   UNL     1       6.668  24.822  54.310  1.00  0.00     0.152 C 
BRANCH   6   7
HETATM    7  C   UNL     1       7.323  23.825  55.131  1.00  0.00     0.011 A 
HETATM    8  C   UNL     1       7.766  22.527  54.716  1.00  0.00     0.004 A 
HETATM    9  C   UNL     1       8.331  21.902  55.829  1.00  0.00     0.043 A 
HETATM   10  C   UNL     1       7.744  21.825  53.491  1.00  0.00     0.014 A 
HETATM   11  C   UNL     1       8.871  20.611  55.780  1.00  0.00     0.030 A 
HETATM   12  N   UNL     1       8.231  22.782  56.881  1.00  0.00    -0.364 N 
HETATM   13  C   UNL     1       8.840  19.940  54.554  1.00  0.00     0.002 A 
HETATM   14  C   UNL     1       8.285  20.536  53.425  1.00  0.00     0.001 A 
HETATM   15  H   UNL     1       8.554  22.591  57.820  1.00  0.00     0.165 HD
HETATM   16  C   UNL     1       7.635  23.943  56.473  1.00  0.00     0.102 A 
ENDBRANCH   6   7
ENDBRANCH   2   5
BRANCH   1  17
HETATM   17  C   UNL     1       4.577  28.248  52.528  1.00  0.00     0.175 C 
BRANCH  17  18
HETATM   18  C   UNL     1       3.283  28.892  53.048  1.00  0.00     0.030 C 
HETATM   19  C   UNL     1       3.485  30.353  53.435  1.00  0.00     0.007 C 
ENDBRANCH  17  18
BRANCH  17  20
HETATM   20  N   UNL     1       4.264  27.252  51.494  1.00  0.00    -0.377 N 
HETATM   21  H   UNL     1       3.959  26.340  51.823  1.00  0.00     0.160 HD
BRANCH  20  22
HETATM   22  C   UNL     1       4.556  27.370  50.149  1.00  0.00     0.028 A 
HETATM   23  C   UNL     1       5.135  28.562  49.689  1.00  0.00     0.029 A 
HETATM   24  C   UNL     1       5.470  28.740  48.344  1.00  0.00     0.002 A 
HETATM   25  C   UNL     1       5.240  27.717  47.431  1.00  0.00     0.000 A 
HETATM   26  C   UNL     1       4.681  26.522  47.866  1.00  0.00     0.002 A 
HETATM   27  C   UNL     1       4.344  26.352  49.215  1.00  0.00     0.029 A 
ENDBRANCH  20  22
ENDBRANCH  17  20
ENDBRANCH   1  17
TORSDOF 6
ENDMDL
MODEL 9
REMARK VINA RESULT:      -8.3      5.351      6.828
REMARK  6 active torsions:
REMARK  status: ('A' for Active; 'I' for Inactive)
REMARK    1  A    between atoms: C_2  and  C_3 
REMARK    2  A    between atoms: C_3  and  N_4 
REMARK    3  A    between atoms: C_3  and  C_11 
REMARK    4  A    between atoms: N_4  and  C_5 
REMARK       I    between atoms: C_11  and  N_12 
REMARK    5  A    between atoms: N_12  and  N_13 
REMARK    6  A    between atoms: C_14  and  C_15 
ROOT
HETATM    1  C   UNL     1       4.850  26.808  51.311  1.00  0.00     0.260 C 
HETATM    2  N   UNL     1       4.803  25.428  51.531  1.00  0.00    -0.246 N 
HETATM    3  O   UNL     1       5.145  27.645  52.162  1.00  0.00    -0.269 OA
HETATM    4  H   UNL     1       4.797  24.824  50.712  1.00  0.00     0.192 HD
ENDROOT
BRANCH   2   5
HETATM    5  N   UNL     1       5.208  24.811  52.690  1.00  0.00    -0.184 NA
HETATM    6  C   UNL     1       6.461  24.495  52.783  1.00  0.00     0.152 C 
BRANCH   6   7
HETATM    7  C   UNL     1       6.942  23.797  53.958  1.00  0.00     0.011 A 
HETATM    8  C   UNL     1       7.557  22.504  53.997  1.00  0.00     0.004 A 
HETATM    9  C   UNL     1       7.853  22.221  55.331  1.00  0.00     0.043 A 
HETATM   10  C   UNL     1       7.898  21.546  53.017  1.00  0.00     0.014 A 
HETATM   11  C   UNL     1       8.466  21.029  55.736  1.00  0.00     0.030 A 
HETATM   12  N   UNL     1       7.428  23.297  56.076  1.00  0.00    -0.364 N 
HETATM   13  C   UNL     1       8.796  20.100  54.745  1.00  0.00     0.002 A 
HETATM   14  C   UNL     1       8.517  20.352  53.404  1.00  0.00     0.001 A 
HETATM   15  H   UNL     1       7.509  23.364  57.082  1.00  0.00     0.165 HD
HETATM   16  C   UNL     1       6.888  24.253  55.262  1.00  0.00     0.102 A 
ENDBRANCH   6   7
ENDBRANCH   2   5
BRANCH   1  17
HETATM   17  C   UNL     1       4.470  27.165  49.850  1.00  0.00     0.175 C 
BRANCH  17  18
HETATM   18  C   UNL     1       4.249  25.907  48.997  1.00  0.00     0.030 C 
HETATM   19  C   UNL     1       3.453  26.205  47.731  1.00  0.00     0.007 C 
ENDBRANCH  17  18
BRANCH  17  20
HETATM   20  N   UNL     1       5.552  27.978  49.278  1.00  0.00    -0.377 N 
HETATM   21  H   UNL     1       6.477  27.558  49.270  1.00  0.00     0.160 HD
BRANCH  20  22
HETATM   22  C   UNL     1       5.467  29.320  48.963  1.00  0.00     0.028 A 
HETATM   23  C   UNL     1       4.779  29.697  47.800  1.00  0.00     0.029 A 
HETATM   24  C   UNL     1       4.643  31.038  47.433  1.00  0.00     0.002 A 
HETATM   25  C   UNL     1       5.187  32.035  48.235  1.00  0.00     0.000 A 
HETATM   26  C   UNL     1       5.862  31.687  49.400  1.00  0.00     0.002 A 
HETATM   27  C   UNL     1       5.998  30.340  49.759  1.00  0.00     0.029 A 
ENDBRANCH  20  22
ENDBRANCH  17  20
ENDBRANCH   1  17
TORSDOF 6
ENDMDL
MODEL 10
REMARK VINA RESULT:      -8.2      2.895      3.899
REMARK  6 active torsions:
REMARK  status: ('A' for Active; 'I' for Inactive)
REMARK    1  A    between atoms: C_2  and  C_3 
REMARK    2  A    between atoms: C_3  and  N_4 
REMARK    3  A    between atoms: C_3  and  C_11 
REMARK    4  A    between atoms: N_4  and  C_5 
REMARK       I    between atoms: C_11  and  N_12 
REMARK    5  A    between atoms: N_12  and  N_13 
REMARK    6  A    between atoms: C_14  and  C_15 
ROOT
HETATM    1  C   UNL     1       7.897  29.784  58.401  1.00  0.00     0.260 C 
HETATM    2  N   UNL     1       7.271  28.535  58.323  1.00  0.00    -0.246 N 
HETATM    3  O   UNL     1       9.095  29.980  58.208  1.00  0.00    -0.269 OA
HETATM    4  H   UNL     1       6.256  28.525  58.253  1.00  0.00     0.192 HD
ENDROOT
BRANCH   2   5
HETATM    5  N   UNL     1       7.883  27.384  57.890  1.00  0.00    -0.184 NA
HETATM    6  C   UNL     1       7.258  26.684  56.996  1.00  0.00     0.152 C 
BRANCH   6   7
HETATM    7  C   UNL     1       7.825  25.434  56.534  1.00  0.00     0.011 A 
HETATM    8  C   UNL     1       7.688  24.859  55.229  1.00  0.00     0.004 A 
HETATM    9  C   UNL     1       8.387  23.651  55.230  1.00  0.00     0.043 A 
HETATM   10  C   UNL     1       7.038  25.257  54.041  1.00  0.00     0.014 A 
HETATM   11  C   UNL     1       8.465  22.820  54.105  1.00  0.00     0.030 A 
HETATM   12  N   UNL     1       8.923  23.493  56.486  1.00  0.00    -0.364 N 
HETATM   13  C   UNL     1       7.815  23.240  52.941  1.00  0.00     0.002 A 
HETATM   14  C   UNL     1       7.111  24.441  52.907  1.00  0.00     0.001 A 
HETATM   15  H   UNL     1       9.477  22.699  56.778  1.00  0.00     0.165 HD
HETATM   16  C   UNL     1       8.599  24.561  57.276  1.00  0.00     0.102 A 
ENDBRANCH   6   7
ENDBRANCH   2   5
BRANCH   1  17
HETATM   17  C   UNL     1       6.892  30.902  58.779  1.00  0.00     0.175 C 
BRANCH  17  18
HETATM   18  C   UNL     1       6.157  31.447  57.545  1.00  0.00     0.030 C 
HETATM   19  C   UNL     1       5.203  32.581  57.900  1.00  0.00     0.007 C 
ENDBRANCH  17  18
BRANCH  17  20
HETATM   20  N   UNL     1       7.634  31.984  59.441  1.00  0.00    -0.377 N 
HETATM   21  H   UNL     1       8.396  32.399  58.912  1.00  0.00     0.160 HD
BRANCH  20  22
HETATM   22  C   UNL     1       7.536  32.326  60.775  1.00  0.00     0.028 A 
HETATM   23  C   UNL     1       8.499  31.835  61.669  1.00  0.00     0.029 A 
HETATM   24  C   UNL     1       8.466  32.157  63.029  1.00  0.00     0.002 A 
HETATM   25  C   UNL     1       7.468  32.990  63.520  1.00  0.00     0.000 A 
HETATM   26  C   UNL     1       6.510  33.500  62.651  1.00  0.00     0.002 A 
HETATM   27  C   UNL     1       6.547  33.170  61.291  1.00  0.00     0.029 A 
ENDBRANCH  20  22
ENDBRANCH  17  20
ENDBRANCH   1  17
TORSDOF 6
ENDMDL
