MODEL 1
REMARK VINA RESULT:     -10.0      0.000      0.000
REMARK  10 active torsions:
REMARK  status: ('A' for Active; 'I' for Inactive)
REMARK    1  A    between atoms: C_2  and  C_3 
REMARK    2  A    between atoms: C_3  and  C_4 
REMARK    3  A    between atoms: C_4  and  O_5 
REMARK    4  A    between atoms: O_5  and  C_6 
REMARK    5  A    between atoms: C_9  and  C_10 
REMARK       I    between atoms: C_10  and  N_11 
REMARK    6  A    between atoms: N_11  and  C_12 
REMARK    7  A    between atoms: C_12  and  N_13 
REMARK    8  A    between atoms: N_13  and  C_14 
REMARK    9  A    between atoms: C_16  and  C_17 
REMARK   10  A    between atoms: C_26  and  O_27 
ROOT
HETATM    1  N   UNL     1       4.595  28.143  54.765  1.00  0.00    -0.337 N 
HETATM    2  H   UNL     1       3.871  28.186  55.476  1.00  0.00     0.168 HD
ENDROOT
BRANCH   1   3
HETATM    3  C   UNL     1       4.152  27.742  53.521  1.00  0.00     0.157 C 
HETATM    4  S   UNL     1       3.549  28.895  52.475  1.00  0.00    -0.047 SA
BRANCH   3   5
HETATM    5  N   UNL     1       4.172  26.373  53.316  1.00  0.00    -0.201 NA
HETATM    6  C   UNL     1       5.066  25.646  52.552  1.00  0.00     0.237 C 
HETATM    7  O   UNL     1       4.795  25.286  51.412  1.00  0.00    -0.274 OA
HETATM    8  H   UNL     1       3.240  26.133  52.993  1.00  0.00     0.139 HD
BRANCH   6   9
HETATM    9  C   UNL     1       6.183  25.024  53.309  1.00  0.00     0.026 A 
HETATM   10  C   UNL     1       6.103  24.725  54.673  1.00  0.00     0.019 A 
HETATM   11  C   UNL     1       7.147  24.035  55.293  1.00  0.00     0.038 A 
HETATM   12  C   UNL     1       8.242  23.615  54.542  1.00  0.00     0.068 A 
HETATM   13  C   UNL     1       8.351  23.939  53.192  1.00  0.00     0.038 A 
HETATM   14  C   UNL     1       7.320  24.648  52.575  1.00  0.00     0.019 A 
BRANCH  12  15
HETATM   15  O   UNL     1       9.226  22.901  55.167  1.00  0.00    -0.351 OA
BRANCH  15  16
HETATM   16  C   UNL     1       8.665  21.873  55.998  1.00  0.00     0.175 C 
BRANCH  16  17
HETATM   17  C   UNL     1       8.843  20.536  55.286  1.00  0.00     0.026 C 
BRANCH  17  18
HETATM   18  C   UNL     1       7.812  20.342  54.178  1.00  0.00    -0.002 C 
HETATM   19  C   UNL     1       8.461  20.364  52.804  1.00  0.00     0.005 C 
ENDBRANCH  17  18
ENDBRANCH  16  17
ENDBRANCH  15  16
ENDBRANCH  12  15
ENDBRANCH   6   9
ENDBRANCH   3   5
ENDBRANCH   1   3
BRANCH   1  20
HETATM   20  C   UNL     1       5.901  28.515  55.157  1.00  0.00     0.035 A 
HETATM   21  C   UNL     1       6.060  29.224  56.356  1.00  0.00     0.048 A 
HETATM   22  C   UNL     1       7.340  29.575  56.822  1.00  0.00     0.052 A 
HETATM   23  C   UNL     1       8.454  29.241  56.030  1.00  0.00     0.080 A 
HETATM   24  C   UNL     1       8.299  28.590  54.813  1.00  0.00     0.040 A 
HETATM   25  C   UNL     1       7.027  28.229  54.378  1.00  0.00     0.032 A 
BRANCH  22  26
HETATM   26  C   UNL     1       7.540  30.241  58.106  1.00  0.00     0.183 A 
HETATM   27  O   UNL     1       8.499  29.740  58.947  1.00  0.00    -0.289 OA
HETATM   28  C   UNL     1       8.449  30.574  60.028  1.00  0.00     0.106 A 
HETATM   29  C   UNL     1       7.475  31.530  59.785  1.00  0.00     0.093 A 
HETATM   30  C   UNL     1       9.222  30.514  61.182  1.00  0.00     0.040 A 
HETATM   31  N   UNL     1       6.896  31.303  58.563  1.00  0.00    -0.221 NA
HETATM   32  C   UNL     1       7.233  32.519  60.745  1.00  0.00     0.034 A 
HETATM   33  C   UNL     1       7.994  32.494  61.923  1.00  0.00     0.002 A 
HETATM   34  C   UNL     1       8.967  31.509  62.135  1.00  0.00     0.003 A 
ENDBRANCH  22  26
BRANCH  23  35
HETATM   35  O   UNL     1       9.746  29.529  56.390  1.00  0.00    -0.360 OA
HETATM   36  H   UNL     1      10.139  28.733  56.810  1.00  0.00     0.217 HD
ENDBRANCH  23  35
ENDBRANCH   1  20
TORSDOF 10
ENDMDL
MODEL 2
REMARK VINA RESULT:      -9.6      2.788     10.428
REMARK  10 active torsions:
REMARK  status: ('A' for Active; 'I' for Inactive)
REMARK    1  A    between atoms: C_2  and  C_3 
REMARK    2  A    between atoms: C_3  and  C_4 
REMARK    3  A    between atoms: C_4  and  O_5 
REMARK    4  A    between atoms: O_5  and  C_6 
REMARK    5  A    between atoms: C_9  and  C_10 
REMARK       I    between atoms: C_10  and  N_11 
REMARK    6  A    between atoms: N_11  and  C_12 
REMARK    7  A    between atoms: C_12  and  N_13 
REMARK    8  A    between atoms: N_13  and  C_14 
REMARK    9  A    between atoms: C_16  and  C_17 
REMARK   10  A    between atoms: C_26  and  O_27 
ROOT
HETATM    1  N   UNL     1       8.277  28.485  57.818  1.00  0.00    -0.337 N 
HETATM    2  H   UNL     1       8.199  28.391  58.827  1.00  0.00     0.168 HD
ENDROOT
BRANCH   1   3
HETATM    3  C   UNL     1       9.240  29.382  57.400  1.00  0.00     0.157 C 
HETATM    4  S   UNL     1       9.624  29.446  55.777  1.00  0.00    -0.047 SA
BRANCH   3   5
HETATM    5  N   UNL     1       9.862  30.077  58.423  1.00  0.00    -0.201 NA
HETATM    6  C   UNL     1       9.576  31.353  58.873  1.00  0.00     0.237 C 
HETATM    7  O   UNL     1      10.236  32.323  58.517  1.00  0.00    -0.274 OA
HETATM    8  H   UNL     1      10.852  30.052  58.206  1.00  0.00     0.139 HD
BRANCH   6   9
HETATM    9  C   UNL     1       8.694  31.420  60.066  1.00  0.00     0.026 A 
HETATM   10  C   UNL     1       9.052  30.880  61.306  1.00  0.00     0.019 A 
HETATM   11  C   UNL     1       8.225  31.081  62.413  1.00  0.00     0.038 A 
HETATM   12  C   UNL     1       7.070  31.850  62.285  1.00  0.00     0.068 A 
HETATM   13  C   UNL     1       6.685  32.362  61.048  1.00  0.00     0.038 A 
HETATM   14  C   UNL     1       7.497  32.143  59.936  1.00  0.00     0.019 A 
BRANCH  12  15
HETATM   15  O   UNL     1       6.305  32.068  63.397  1.00  0.00    -0.351 OA
BRANCH  15  16
HETATM   16  C   UNL     1       5.517  33.260  63.252  1.00  0.00     0.175 C 
BRANCH  16  17
HETATM   17  C   UNL     1       6.178  34.369  64.064  1.00  0.00     0.026 C 
BRANCH  17  18
HETATM   18  C   UNL     1       6.876  33.824  65.307  1.00  0.00    -0.002 C 
HETATM   19  C   UNL     1       6.130  34.205  66.575  1.00  0.00     0.005 C 
ENDBRANCH  17  18
ENDBRANCH  16  17
ENDBRANCH  15  16
ENDBRANCH  12  15
ENDBRANCH   6   9
ENDBRANCH   3   5
ENDBRANCH   1   3
BRANCH   1  20
HETATM   20  C   UNL     1       7.420  27.682  57.031  1.00  0.00     0.035 A 
HETATM   21  C   UNL     1       7.856  26.399  56.671  1.00  0.00     0.048 A 
HETATM   22  C   UNL     1       7.025  25.537  55.932  1.00  0.00     0.052 A 
HETATM   23  C   UNL     1       5.767  26.011  55.522  1.00  0.00     0.080 A 
HETATM   24  C   UNL     1       5.352  27.302  55.826  1.00  0.00     0.040 A 
HETATM   25  C   UNL     1       6.177  28.134  56.577  1.00  0.00     0.032 A 
BRANCH  22  26
HETATM   26  C   UNL     1       7.420  24.168  55.614  1.00  0.00     0.183 A 
HETATM   27  O   UNL     1       7.390  23.779  54.300  1.00  0.00    -0.289 OA
HETATM   28  C   UNL     1       7.821  22.484  54.335  1.00  0.00     0.106 A 
HETATM   29  C   UNL     1       8.091  22.160  55.655  1.00  0.00     0.093 A 
HETATM   30  C   UNL     1       7.979  21.613  53.263  1.00  0.00     0.040 A 
HETATM   31  N   UNL     1       7.825  23.235  56.462  1.00  0.00    -0.221 NA
HETATM   32  C   UNL     1       8.563  20.878  55.962  1.00  0.00     0.034 A 
HETATM   33  C   UNL     1       8.738  19.970  54.906  1.00  0.00     0.002 A 
HETATM   34  C   UNL     1       8.449  20.333  53.585  1.00  0.00     0.003 A 
ENDBRANCH  22  26
BRANCH  23  35
HETATM   35  O   UNL     1       4.875  25.255  54.805  1.00  0.00    -0.360 OA
HETATM   36  H   UNL     1       4.502  25.808  54.085  1.00  0.00     0.217 HD
ENDBRANCH  23  35
ENDBRANCH   1  20
TORSDOF 10
ENDMDL
MODEL 3
REMARK VINA RESULT:      -9.5      3.405     10.975
REMARK  10 active torsions:
REMARK  status: ('A' for Active; 'I' for Inactive)
REMARK    1  A    between atoms: C_2  and  C_3 
REMARK    2  A    between atoms: C_3  and  C_4 
REMARK    3  A    between atoms: C_4  and  O_5 
REMARK    4  A    between atoms: O_5  and  C_6 
REMARK    5  A    between atoms: C_9  and  C_10 
REMARK       I    between atoms: C_10  and  N_11 
REMARK    6  A    between atoms: N_11  and  C_12 
REMARK    7  A    between atoms: C_12  and  N_13 
REMARK    8  A    between atoms: N_13  and  C_14 
REMARK    9  A    between atoms: C_16  and  C_17 
REMARK   10  A    between atoms: C_26  and  O_27 
ROOT
HETATM    1  N   UNL     1       9.043  29.222  58.129  1.00  0.00    -0.337 N 
HETATM    2  H   UNL     1       9.970  28.882  57.892  1.00  0.00     0.168 HD
ENDROOT
BRANCH   1   3
HETATM    3  C   UNL     1       9.034  30.294  58.999  1.00  0.00     0.157 C 
HETATM    4  S   UNL     1       9.863  31.679  58.573  1.00  0.00    -0.047 SA
BRANCH   3   5
HETATM    5  N   UNL     1       8.397  30.053  60.204  1.00  0.00    -0.201 NA
HETATM    6  C   UNL     1       8.739  30.539  61.452  1.00  0.00     0.237 C 
HETATM    7  O   UNL     1       9.377  29.864  62.252  1.00  0.00    -0.274 OA
HETATM    8  H   UNL     1       8.338  29.043  60.283  1.00  0.00     0.139 HD
BRANCH   6   9
HETATM    9  C   UNL     1       7.985  31.741  61.891  1.00  0.00     0.026 A 
HETATM   10  C   UNL     1       7.003  32.351  61.103  1.00  0.00     0.019 A 
HETATM   11  C   UNL     1       6.253  33.407  61.626  1.00  0.00     0.038 A 
HETATM   12  C   UNL     1       6.460  33.820  62.940  1.00  0.00     0.068 A 
HETATM   13  C   UNL     1       7.459  33.245  63.722  1.00  0.00     0.038 A 
HETATM   14  C   UNL     1       8.225  32.205  63.194  1.00  0.00     0.019 A 
BRANCH  12  15
HETATM   15  O   UNL     1       5.678  34.824  63.439  1.00  0.00    -0.351 OA
BRANCH  15  16
HETATM   16  C   UNL     1       4.344  34.359  63.693  1.00  0.00     0.175 C 
BRANCH  16  17
HETATM   17  C   UNL     1       3.972  34.737  65.123  1.00  0.00     0.026 C 
BRANCH  17  18
HETATM   18  C   UNL     1       4.591  33.783  66.140  1.00  0.00    -0.002 C 
HETATM   19  C   UNL     1       5.674  34.468  66.958  1.00  0.00     0.005 C 
ENDBRANCH  17  18
ENDBRANCH  16  17
ENDBRANCH  15  16
ENDBRANCH  12  15
ENDBRANCH   6   9
ENDBRANCH   3   5
ENDBRANCH   1   3
BRANCH   1  20
HETATM   20  C   UNL     1       7.945  28.569  57.525  1.00  0.00     0.035 A 
HETATM   21  C   UNL     1       8.160  27.319  56.928  1.00  0.00     0.048 A 
HETATM   22  C   UNL     1       7.094  26.599  56.358  1.00  0.00     0.052 A 
HETATM   23  C   UNL     1       5.817  27.187  56.357  1.00  0.00     0.080 A 
HETATM   24  C   UNL     1       5.608  28.450  56.895  1.00  0.00     0.040 A 
HETATM   25  C   UNL     1       6.669  29.139  57.476  1.00  0.00     0.032 A 
BRANCH  22  26
HETATM   26  C   UNL     1       7.275  25.261  55.803  1.00  0.00     0.183 A 
HETATM   27  O   UNL     1       7.264  25.124  54.439  1.00  0.00    -0.289 OA
HETATM   28  C   UNL     1       7.469  23.787  54.246  1.00  0.00     0.106 A 
HETATM   29  C   UNL     1       7.597  23.192  55.490  1.00  0.00     0.093 A 
HETATM   30  C   UNL     1       7.547  23.108  53.036  1.00  0.00     0.040 A 
HETATM   31  N   UNL     1       7.463  24.136  56.475  1.00  0.00    -0.221 NA
HETATM   32  C   UNL     1       7.827  21.813  55.568  1.00  0.00     0.034 A 
HETATM   33  C   UNL     1       7.915  21.091  54.368  1.00  0.00     0.002 A 
HETATM   34  C   UNL     1       7.775  21.728  53.129  1.00  0.00     0.003 A 
ENDBRANCH  22  26
BRANCH  23  35
HETATM   35  O   UNL     1       4.707  26.573  55.834  1.00  0.00    -0.360 OA
HETATM   36  H   UNL     1       4.727  25.624  56.084  1.00  0.00     0.217 HD
ENDBRANCH  23  35
ENDBRANCH   1  20
TORSDOF 10
ENDMDL
MODEL 4
REMARK VINA RESULT:      -9.3      2.450     10.270
REMARK  10 active torsions:
REMARK  status: ('A' for Active; 'I' for Inactive)
REMARK    1  A    between atoms: C_2  and  C_3 
REMARK    2  A    between atoms: C_3  and  C_4 
REMARK    3  A    between atoms: C_4  and  O_5 
REMARK    4  A    between atoms: O_5  and  C_6 
REMARK    5  A    between atoms: C_9  and  C_10 
REMARK       I    between atoms: C_10  and  N_11 
REMARK    6  A    between atoms: N_11  and  C_12 
REMARK    7  A    between atoms: C_12  and  N_13 
REMARK    8  A    between atoms: N_13  and  C_14 
REMARK    9  A    between atoms: C_16  and  C_17 
REMARK   10  A    between atoms: C_26  and  O_27 
ROOT
HETATM    1  N   UNL     1       7.250  29.189  56.034  1.00  0.00    -0.337 N 
HETATM    2  H   UNL     1       8.070  29.594  55.592  1.00  0.00     0.168 HD
ENDROOT
BRANCH   1   3
HETATM    3  C   UNL     1       6.993  29.663  57.305  1.00  0.00     0.157 C 
HETATM    4  S   UNL     1       5.580  30.509  57.574  1.00  0.00    -0.047 SA
BRANCH   3   5
HETATM    5  N   UNL     1       8.017  29.457  58.214  1.00  0.00    -0.201 NA
HETATM    6  C   UNL     1       8.964  30.369  58.640  1.00  0.00     0.237 C 
HETATM    7  O   UNL     1      10.094  30.391  58.165  1.00  0.00    -0.274 OA
HETATM    8  H   UNL     1       8.517  28.641  57.880  1.00  0.00     0.139 HD
BRANCH   6   9
HETATM    9  C   UNL     1       8.658  31.044  59.927  1.00  0.00     0.026 A 
HETATM   10  C   UNL     1       7.916  32.226  60.008  1.00  0.00     0.019 A 
HETATM   11  C   UNL     1       7.568  32.742  61.259  1.00  0.00     0.038 A 
HETATM   12  C   UNL     1       7.929  32.055  62.416  1.00  0.00     0.068 A 
HETATM   13  C   UNL     1       8.699  30.896  62.349  1.00  0.00     0.038 A 
HETATM   14  C   UNL     1       9.068  30.392  61.102  1.00  0.00     0.019 A 
BRANCH  12  15
HETATM   15  O   UNL     1       7.533  32.559  63.623  1.00  0.00    -0.351 OA
BRANCH  15  16
HETATM   16  C   UNL     1       6.134  32.880  63.612  1.00  0.00     0.175 C 
BRANCH  16  17
HETATM   17  C   UNL     1       5.773  33.483  64.966  1.00  0.00     0.026 C 
BRANCH  17  18
HETATM   18  C   UNL     1       7.015  33.812  65.789  1.00  0.00    -0.002 C 
HETATM   19  C   UNL     1       6.649  34.244  67.200  1.00  0.00     0.005 C 
ENDBRANCH  17  18
ENDBRANCH  16  17
ENDBRANCH  15  16
ENDBRANCH  12  15
ENDBRANCH   6   9
ENDBRANCH   3   5
ENDBRANCH   1   3
BRANCH   1  20
HETATM   20  C   UNL     1       6.514  28.247  55.280  1.00  0.00     0.035 A 
HETATM   21  C   UNL     1       7.038  26.955  55.135  1.00  0.00     0.048 A 
HETATM   22  C   UNL     1       6.324  25.961  54.440  1.00  0.00     0.052 A 
HETATM   23  C   UNL     1       5.096  26.310  53.852  1.00  0.00     0.080 A 
HETATM   24  C   UNL     1       4.598  27.604  53.943  1.00  0.00     0.040 A 
HETATM   25  C   UNL     1       5.305  28.568  54.654  1.00  0.00     0.032 A 
BRANCH  22  26
HETATM   26  C   UNL     1       6.808  24.587  54.343  1.00  0.00     0.183 A 
HETATM   27  O   UNL     1       7.001  23.890  55.507  1.00  0.00    -0.289 OA
HETATM   28  C   UNL     1       7.430  22.665  55.083  1.00  0.00     0.106 A 
HETATM   29  C   UNL     1       7.470  22.682  53.699  1.00  0.00     0.093 A 
HETATM   30  C   UNL     1       7.770  21.568  55.867  1.00  0.00     0.040 A 
HETATM   31  N   UNL     1       7.081  23.913  53.237  1.00  0.00    -0.221 NA
HETATM   32  C   UNL     1       7.871  21.530  53.012  1.00  0.00     0.034 A 
HETATM   33  C   UNL     1       8.221  20.401  53.767  1.00  0.00     0.002 A 
HETATM   34  C   UNL     1       8.173  20.423  55.167  1.00  0.00     0.003 A 
ENDBRANCH  22  26
BRANCH  23  35
HETATM   35  O   UNL     1       4.315  25.421  53.158  1.00  0.00    -0.360 OA
HETATM   36  H   UNL     1       3.822  25.911  52.464  1.00  0.00     0.217 HD
ENDBRANCH  23  35
ENDBRANCH   1  20
TORSDOF 10
ENDMDL
MODEL 5
REMARK VINA RESULT:      -9.1      1.556      2.022
REMARK  10 active torsions:
REMARK  status: ('A' for Active; 'I' for Inactive)
REMARK    1  A    between atoms: C_2  and  C_3 
REMARK    2  A    between atoms: C_3  and  C_4 
REMARK    3  A    between atoms: C_4  and  O_5 
REMARK    4  A    between atoms: O_5  and  C_6 
REMARK    5  A    between atoms: C_9  and  C_10 
REMARK       I    between atoms: C_10  and  N_11 
REMARK    6  A    between atoms: N_11  and  C_12 
REMARK    7  A    between atoms: C_12  and  N_13 
REMARK    8  A    between atoms: N_13  and  C_14 
REMARK    9  A    between atoms: C_16  and  C_17 
REMARK   10  A    between atoms: C_26  and  O_27 
ROOT
HETATM    1  N   UNL     1       5.722  29.584  55.276  1.00  0.00    -0.337 N 
HETATM    2  H   UNL     1       5.896  29.864  54.315  1.00  0.00     0.168 HD
ENDROOT
BRANCH   1   3
HETATM    3  C   UNL     1       4.438  29.138  55.518  1.00  0.00     0.157 C 
HETATM    4  S   UNL     1       3.381  30.141  56.331  1.00  0.00    -0.047 SA
BRANCH   3   5
HETATM    5  N   UNL     1       4.200  27.830  55.130  1.00  0.00    -0.201 NA
HETATM    6  C   UNL     1       4.971  27.044  54.293  1.00  0.00     0.237 C 
HETATM    7  O   UNL     1       4.689  26.896  53.110  1.00  0.00    -0.274 OA
HETATM    8  H   UNL     1       3.256  27.824  54.758  1.00  0.00     0.139 HD
BRANCH   6   9
HETATM    9  C   UNL     1       5.908  26.120  54.982  1.00  0.00     0.026 A 
HETATM   10  C   UNL     1       5.870  25.886  56.360  1.00  0.00     0.019 A 
HETATM   11  C   UNL     1       6.704  24.918  56.922  1.00  0.00     0.038 A 
HETATM   12  C   UNL     1       7.541  24.164  56.102  1.00  0.00     0.068 A 
HETATM   13  C   UNL     1       7.616  24.413  54.734  1.00  0.00     0.038 A 
HETATM   14  C   UNL     1       6.800  25.396  54.174  1.00  0.00     0.019 A 
BRANCH  12  15
HETATM   15  O   UNL     1       8.312  23.192  56.675  1.00  0.00    -0.351 OA
BRANCH  15  16
HETATM   16  C   UNL     1       8.905  22.350  55.674  1.00  0.00     0.175 C 
BRANCH  16  17
HETATM   17  C   UNL     1       8.366  20.936  55.860  1.00  0.00     0.026 C 
BRANCH  17  18
HETATM   18  C   UNL     1       8.448  20.124  54.570  1.00  0.00    -0.002 C 
HETATM   19  C   UNL     1       7.945  20.922  53.379  1.00  0.00     0.005 C 
ENDBRANCH  17  18
ENDBRANCH  16  17
ENDBRANCH  15  16
ENDBRANCH  12  15
ENDBRANCH   6   9
ENDBRANCH   3   5
ENDBRANCH   1   3
BRANCH   1  20
HETATM   20  C   UNL     1       6.807  29.676  56.178  1.00  0.00     0.035 A 
HETATM   21  C   UNL     1       6.643  30.444  57.339  1.00  0.00     0.048 A 
HETATM   22  C   UNL     1       7.670  30.528  58.298  1.00  0.00     0.052 A 
HETATM   23  C   UNL     1       8.882  29.864  58.039  1.00  0.00     0.080 A 
HETATM   24  C   UNL     1       9.071  29.149  56.863  1.00  0.00     0.040 A 
HETATM   25  C   UNL     1       8.037  29.056  55.936  1.00  0.00     0.032 A 
BRANCH  22  26
HETATM   26  C   UNL     1       7.497  31.254  59.553  1.00  0.00     0.183 A 
HETATM   27  O   UNL     1       8.149  30.782  60.663  1.00  0.00    -0.289 OA
HETATM   28  C   UNL     1       7.803  31.669  61.642  1.00  0.00     0.106 A 
HETATM   29  C   UNL     1       6.973  32.624  61.079  1.00  0.00     0.093 A 
HETATM   30  C   UNL     1       8.196  31.655  62.976  1.00  0.00     0.040 A 
HETATM   31  N   UNL     1       6.777  32.346  59.752  1.00  0.00    -0.221 NA
HETATM   32  C   UNL     1       6.484  33.663  61.880  1.00  0.00     0.034 A 
HETATM   33  C   UNL     1       6.859  33.686  63.232  1.00  0.00     0.002 A 
HETATM   34  C   UNL     1       7.697  32.699  63.767  1.00  0.00     0.003 A 
ENDBRANCH  22  26
BRANCH  23  35
HETATM   35  O   UNL     1       9.945  29.874  58.905  1.00  0.00    -0.360 OA
HETATM   36  H   UNL     1       9.600  29.881  59.824  1.00  0.00     0.217 HD
ENDBRANCH  23  35
ENDBRANCH   1  20
TORSDOF 10
ENDMDL
MODEL 6
REMARK VINA RESULT:      -9.0      3.357     11.055
REMARK  10 active torsions:
REMARK  status: ('A' for Active; 'I' for Inactive)
REMARK    1  A    between atoms: C_2  and  C_3 
REMARK    2  A    between atoms: C_3  and  C_4 
REMARK    3  A    between atoms: C_4  and  O_5 
REMARK    4  A    between atoms: O_5  and  C_6 
REMARK    5  A    between atoms: C_9  and  C_10 
REMARK       I    between atoms: C_10  and  N_11 
REMARK    6  A    between atoms: N_11  and  C_12 
REMARK    7  A    between atoms: C_12  and  N_13 
REMARK    8  A    between atoms: N_13  and  C_14 
REMARK    9  A    between atoms: C_16  and  C_17 
REMARK   10  A    between atoms: C_26  and  O_27 
ROOT
HETATM    1  N   UNL     1       9.119  29.497  58.084  1.00  0.00    -0.337 N 
HETATM    2  H   UNL     1      10.039  29.277  57.714  1.00  0.00     0.168 HD
ENDROOT
BRANCH   1   3
HETATM    3  C   UNL     1       9.116  30.460  59.073  1.00  0.00     0.157 C 
HETATM    4  S   UNL     1       9.929  31.892  58.800  1.00  0.00    -0.047 SA
BRANCH   3   5
HETATM    5  N   UNL     1       8.501  30.073  60.252  1.00  0.00    -0.201 NA
HETATM    6  C   UNL     1       8.803  30.486  61.537  1.00  0.00     0.237 C 
HETATM    7  O   UNL     1       9.494  29.804  62.285  1.00  0.00    -0.274 OA
HETATM    8  H   UNL     1       8.525  29.059  60.251  1.00  0.00     0.139 HD
BRANCH   6   9
HETATM    9  C   UNL     1       7.953  31.584  62.064  1.00  0.00     0.026 A 
HETATM   10  C   UNL     1       8.165  32.177  63.312  1.00  0.00     0.019 A 
HETATM   11  C   UNL     1       7.400  33.282  63.694  1.00  0.00     0.038 A 
HETATM   12  C   UNL     1       6.459  33.810  62.813  1.00  0.00     0.068 A 
HETATM   13  C   UNL     1       6.213  33.206  61.582  1.00  0.00     0.038 A 
HETATM   14  C   UNL     1       6.960  32.089  61.209  1.00  0.00     0.019 A 
BRANCH  12  15
HETATM   15  O   UNL     1       5.759  34.920  63.196  1.00  0.00    -0.351 OA
BRANCH  15  16
HETATM   16  C   UNL     1       5.190  35.585  62.058  1.00  0.00     0.175 C 
BRANCH  16  17
HETATM   17  C   UNL     1       5.660  37.036  62.070  1.00  0.00     0.026 C 
BRANCH  17  18
HETATM   18  C   UNL     1       6.012  37.506  63.479  1.00  0.00    -0.002 C 
HETATM   19  C   UNL     1       5.873  39.013  63.613  1.00  0.00     0.005 C 
ENDBRANCH  17  18
ENDBRANCH  16  17
ENDBRANCH  15  16
ENDBRANCH  12  15
ENDBRANCH   6   9
ENDBRANCH   3   5
ENDBRANCH   1   3
BRANCH   1  20
HETATM   20  C   UNL     1       8.019  28.812  57.520  1.00  0.00     0.035 A 
HETATM   21  C   UNL     1       8.270  27.658  56.765  1.00  0.00     0.048 A 
HETATM   22  C   UNL     1       7.211  26.906  56.223  1.00  0.00     0.052 A 
HETATM   23  C   UNL     1       5.897  27.368  56.417  1.00  0.00     0.080 A 
HETATM   24  C   UNL     1       5.645  28.542  57.115  1.00  0.00     0.040 A 
HETATM   25  C   UNL     1       6.702  29.261  57.664  1.00  0.00     0.032 A 
BRANCH  22  26
HETATM   26  C   UNL     1       7.439  25.657  55.502  1.00  0.00     0.183 A 
HETATM   27  O   UNL     1       7.934  24.590  56.206  1.00  0.00    -0.289 OA
HETATM   28  C   UNL     1       8.016  23.597  55.271  1.00  0.00     0.106 A 
HETATM   29  C   UNL     1       7.568  24.108  54.065  1.00  0.00     0.093 A 
HETATM   30  C   UNL     1       8.460  22.293  55.458  1.00  0.00     0.040 A 
HETATM   31  N   UNL     1       7.211  25.422  54.219  1.00  0.00    -0.221 NA
HETATM   32  C   UNL     1       7.542  23.278  52.937  1.00  0.00     0.034 A 
HETATM   33  C   UNL     1       7.980  21.953  53.085  1.00  0.00     0.002 A 
HETATM   34  C   UNL     1       8.431  21.474  54.321  1.00  0.00     0.003 A 
ENDBRANCH  22  26
BRANCH  23  35
HETATM   35  O   UNL     1       4.791  26.712  55.939  1.00  0.00    -0.360 OA
HETATM   36  H   UNL     1       4.164  26.573  56.682  1.00  0.00     0.217 HD
ENDBRANCH  23  35
ENDBRANCH   1  20
TORSDOF 10
ENDMDL
MODEL 7
REMARK VINA RESULT:      -8.9      3.412     10.632
REMARK  10 active torsions:
REMARK  status: ('A' for Active; 'I' for Inactive)
REMARK    1  A    between atoms: C_2  and  C_3 
REMARK    2  A    between atoms: C_3  and  C_4 
REMARK    3  A    between atoms: C_4  and  O_5 
REMARK    4  A    between atoms: O_5  and  C_6 
REMARK    5  A    between atoms: C_9  and  C_10 
REMARK       I    between atoms: C_10  and  N_11 
REMARK    6  A    between atoms: N_11  and  C_12 
REMARK    7  A    between atoms: C_12  and  N_13 
REMARK    8  A    between atoms: N_13  and  C_14 
REMARK    9  A    between atoms: C_16  and  C_17 
REMARK   10  A    between atoms: C_26  and  O_27 
ROOT
HETATM    1  N   UNL     1       7.152  29.778  58.569  1.00  0.00    -0.337 N 
HETATM    2  H   UNL     1       6.964  29.476  59.520  1.00  0.00     0.168 HD
ENDROOT
BRANCH   1   3
HETATM    3  C   UNL     1       8.104  30.772  58.463  1.00  0.00     0.157 C 
HETATM    4  S   UNL     1       9.650  30.355  57.991  1.00  0.00    -0.047 SA
BRANCH   3   5
HETATM    5  N   UNL     1       7.675  32.025  58.867  1.00  0.00    -0.201 NA
HETATM    6  C   UNL     1       6.379  32.430  59.128  1.00  0.00     0.237 C 
HETATM    7  O   UNL     1       5.719  33.047  58.299  1.00  0.00    -0.274 OA
HETATM    8  H   UNL     1       8.061  32.676  58.191  1.00  0.00     0.139 HD
BRANCH   6   9
HETATM    9  C   UNL     1       5.986  32.408  60.560  1.00  0.00     0.026 A 
HETATM   10  C   UNL     1       6.907  32.556  61.603  1.00  0.00     0.019 A 
HETATM   11  C   UNL     1       6.452  32.641  62.921  1.00  0.00     0.038 A 
HETATM   12  C   UNL     1       5.085  32.616  63.185  1.00  0.00     0.068 A 
HETATM   13  C   UNL     1       4.161  32.431  62.159  1.00  0.00     0.038 A 
HETATM   14  C   UNL     1       4.614  32.323  60.844  1.00  0.00     0.019 A 
BRANCH  12  15
HETATM   15  O   UNL     1       4.669  32.749  64.480  1.00  0.00    -0.351 OA
BRANCH  15  16
HETATM   16  C   UNL     1       5.577  33.570  65.230  1.00  0.00     0.175 C 
BRANCH  16  17
HETATM   17  C   UNL     1       4.756  34.544  66.070  1.00  0.00     0.026 C 
BRANCH  17  18
HETATM   18  C   UNL     1       4.690  34.114  67.533  1.00  0.00    -0.002 C 
HETATM   19  C   UNL     1       5.820  34.727  68.343  1.00  0.00     0.005 C 
ENDBRANCH  17  18
ENDBRANCH  16  17
ENDBRANCH  15  16
ENDBRANCH  12  15
ENDBRANCH   6   9
ENDBRANCH   3   5
ENDBRANCH   1   3
BRANCH   1  20
HETATM   20  C   UNL     1       6.441  29.126  57.536  1.00  0.00     0.035 A 
HETATM   21  C   UNL     1       7.031  28.015  56.920  1.00  0.00     0.048 A 
HETATM   22  C   UNL     1       6.347  27.296  55.922  1.00  0.00     0.052 A 
HETATM   23  C   UNL     1       5.078  27.750  55.523  1.00  0.00     0.080 A 
HETATM   24  C   UNL     1       4.511  28.885  56.089  1.00  0.00     0.040 A 
HETATM   25  C   UNL     1       5.191  29.571  57.091  1.00  0.00     0.032 A 
BRANCH  22  26
HETATM   26  C   UNL     1       6.904  26.087  55.321  1.00  0.00     0.183 A 
HETATM   27  O   UNL     1       7.664  25.267  56.114  1.00  0.00    -0.289 OA
HETATM   28  C   UNL     1       8.013  24.243  55.280  1.00  0.00     0.106 A 
HETATM   29  C   UNL     1       7.448  24.491  54.040  1.00  0.00     0.093 A 
HETATM   30  C   UNL     1       8.789  23.130  55.583  1.00  0.00     0.040 A 
HETATM   31  N   UNL     1       6.752  25.671  54.074  1.00  0.00    -0.221 NA
HETATM   32  C   UNL     1       7.648  23.575  53.001  1.00  0.00     0.034 A 
HETATM   33  C   UNL     1       8.425  22.437  53.267  1.00  0.00     0.002 A 
HETATM   34  C   UNL     1       8.984  22.222  54.533  1.00  0.00     0.003 A 
ENDBRANCH  22  26
BRANCH  23  35
HETATM   35  O   UNL     1       4.322  27.123  54.566  1.00  0.00    -0.360 OA
HETATM   36  H   UNL     1       4.911  26.851  53.829  1.00  0.00     0.217 HD
ENDBRANCH  23  35
ENDBRANCH   1  20
TORSDOF 10
ENDMDL
MODEL 8
REMARK VINA RESULT:      -8.7      4.660      8.227
REMARK  10 active torsions:
REMARK  status: ('A' for Active; 'I' for Inactive)
REMARK    1  A    between atoms: C_2  and  C_3 
REMARK    2  A    between atoms: C_3  and  C_4 
REMARK    3  A    between atoms: C_4  and  O_5 
REMARK    4  A    between atoms: O_5  and  C_6 
REMARK    5  A    between atoms: C_9  and  C_10 
REMARK       I    between atoms: C_10  and  N_11 
REMARK    6  A    between atoms: N_11  and  C_12 
REMARK    7  A    between atoms: C_12  and  N_13 
REMARK    8  A    between atoms: N_13  and  C_14 
REMARK    9  A    between atoms: C_16  and  C_17 
REMARK   10  A    between atoms: C_26  and  O_27 
ROOT
HETATM    1  N   UNL     1       3.842  27.782  54.071  1.00  0.00    -0.337 N 
HETATM    2  H   UNL     1       2.981  27.311  54.331  1.00  0.00     0.168 HD
ENDROOT
BRANCH   1   3
HETATM    3  C   UNL     1       3.915  29.102  54.468  1.00  0.00     0.157 C 
HETATM    4  S   UNL     1       4.674  29.465  55.909  1.00  0.00    -0.047 SA
BRANCH   3   5
HETATM    5  N   UNL     1       3.242  29.989  53.644  1.00  0.00    -0.201 NA
HETATM    6  C   UNL     1       3.788  30.920  52.781  1.00  0.00     0.237 C 
HETATM    7  O   UNL     1       3.892  32.101  53.091  1.00  0.00    -0.274 OA
HETATM    8  H   UNL     1       2.596  30.485  54.249  1.00  0.00     0.139 HD
BRANCH   6   9
HETATM    9  C   UNL     1       3.884  30.487  51.363  1.00  0.00     0.026 A 
HETATM   10  C   UNL     1       5.064  30.581  50.618  1.00  0.00     0.019 A 
HETATM   11  C   UNL     1       5.114  30.048  49.328  1.00  0.00     0.038 A 
HETATM   12  C   UNL     1       4.000  29.393  48.807  1.00  0.00     0.068 A 
HETATM   13  C   UNL     1       2.808  29.325  49.524  1.00  0.00     0.038 A 
HETATM   14  C   UNL     1       2.750  29.877  50.803  1.00  0.00     0.019 A 
BRANCH  12  15
HETATM   15  O   UNL     1       4.094  28.840  47.560  1.00  0.00    -0.351 OA
BRANCH  15  16
HETATM   16  C   UNL     1       5.129  27.846  47.515  1.00  0.00     0.175 C 
BRANCH  16  17
HETATM   17  C   UNL     1       4.586  26.565  48.139  1.00  0.00     0.026 C 
BRANCH  17  18
HETATM   18  C   UNL     1       3.339  26.066  47.414  1.00  0.00    -0.002 C 
HETATM   19  C   UNL     1       2.933  24.682  47.895  1.00  0.00     0.005 C 
ENDBRANCH  17  18
ENDBRANCH  16  17
ENDBRANCH  15  16
ENDBRANCH  12  15
ENDBRANCH   6   9
ENDBRANCH   3   5
ENDBRANCH   1   3
BRANCH   1  20
HETATM   20  C   UNL     1       4.810  27.016  53.381  1.00  0.00     0.035 A 
HETATM   21  C   UNL     1       5.413  25.944  54.055  1.00  0.00     0.048 A 
HETATM   22  C   UNL     1       6.345  25.115  53.402  1.00  0.00     0.052 A 
HETATM   23  C   UNL     1       6.692  25.418  52.074  1.00  0.00     0.080 A 
HETATM   24  C   UNL     1       6.141  26.513  51.419  1.00  0.00     0.040 A 
HETATM   25  C   UNL     1       5.204  27.309  52.072  1.00  0.00     0.032 A 
BRANCH  22  26
HETATM   26  C   UNL     1       6.927  23.945  54.053  1.00  0.00     0.183 A 
HETATM   27  O   UNL     1       7.207  22.851  53.277  1.00  0.00    -0.289 OA
HETATM   28  C   UNL     1       7.743  21.957  54.159  1.00  0.00     0.106 A 
HETATM   29  C   UNL     1       7.765  22.552  55.410  1.00  0.00     0.093 A 
HETATM   30  C   UNL     1       8.203  20.673  53.891  1.00  0.00     0.040 A 
HETATM   31  N   UNL     1       7.235  23.814  55.334  1.00  0.00    -0.221 NA
HETATM   32  C   UNL     1       8.283  21.840  56.498  1.00  0.00     0.034 A 
HETATM   33  C   UNL     1       8.759  20.541  56.268  1.00  0.00     0.002 A 
HETATM   34  C   UNL     1       8.717  19.970  54.989  1.00  0.00     0.003 A 
ENDBRANCH  22  26
BRANCH  23  35
HETATM   35  O   UNL     1       7.582  24.675  51.341  1.00  0.00    -0.360 OA
HETATM   36  H   UNL     1       7.084  23.999  50.833  1.00  0.00     0.217 HD
ENDBRANCH  23  35
ENDBRANCH   1  20
TORSDOF 10
ENDMDL
MODEL 9
REMARK VINA RESULT:      -8.7      3.909      8.437
REMARK  10 active torsions:
REMARK  status: ('A' for Active; 'I' for Inactive)
REMARK    1  A    between atoms: C_2  and  C_3 
REMARK    2  A    between atoms: C_3  and  C_4 
REMARK    3  A    between atoms: C_4  and  O_5 
REMARK    4  A    between atoms: O_5  and  C_6 
REMARK    5  A    between atoms: C_9  and  C_10 
REMARK       I    between atoms: C_10  and  N_11 
REMARK    6  A    between atoms: N_11  and  C_12 
REMARK    7  A    between atoms: C_12  and  N_13 
REMARK    8  A    between atoms: N_13  and  C_14 
REMARK    9  A    between atoms: C_16  and  C_17 
REMARK   10  A    between atoms: C_26  and  O_27 
ROOT
HETATM    1  N   UNL     1       6.382  28.844  54.597  1.00  0.00    -0.337 N 
HETATM    2  H   UNL     1       6.739  29.793  54.651  1.00  0.00     0.168 HD
ENDROOT
BRANCH   1   3
HETATM    3  C   UNL     1       5.508  28.621  53.551  1.00  0.00     0.157 C 
HETATM    4  S   UNL     1       3.868  28.742  53.838  1.00  0.00    -0.047 SA
BRANCH   3   5
HETATM    5  N   UNL     1       6.111  28.216  52.373  1.00  0.00    -0.201 NA
HETATM    6  C   UNL     1       5.808  27.105  51.608  1.00  0.00     0.237 C 
HETATM    7  O   UNL     1       6.463  26.072  51.687  1.00  0.00    -0.274 OA
HETATM    8  H   UNL     1       7.104  28.177  52.576  1.00  0.00     0.139 HD
BRANCH   6   9
HETATM    9  C   UNL     1       4.912  27.360  50.451  1.00  0.00     0.026 A 
HETATM   10  C   UNL     1       4.540  28.646  50.047  1.00  0.00     0.019 A 
HETATM   11  C   UNL     1       3.789  28.817  48.881  1.00  0.00     0.038 A 
HETATM   12  C   UNL     1       3.448  27.708  48.109  1.00  0.00     0.068 A 
HETATM   13  C   UNL     1       3.780  26.420  48.521  1.00  0.00     0.038 A 
HETATM   14  C   UNL     1       4.510  26.246  49.696  1.00  0.00     0.019 A 
BRANCH  12  15
HETATM   15  O   UNL     1       2.753  27.911  46.950  1.00  0.00    -0.351 OA
BRANCH  15  16
HETATM   16  C   UNL     1       2.208  29.238  46.903  1.00  0.00     0.175 C 
BRANCH  16  17
HETATM   17  C   UNL     1       0.744  29.138  46.488  1.00  0.00     0.026 C 
BRANCH  17  18
HETATM   18  C   UNL     1       0.276  27.688  46.408  1.00  0.00    -0.002 C 
HETATM   19  C   UNL     1      -0.524  27.430  45.141  1.00  0.00     0.005 C 
ENDBRANCH  17  18
ENDBRANCH  16  17
ENDBRANCH  15  16
ENDBRANCH  12  15
ENDBRANCH   6   9
ENDBRANCH   3   5
ENDBRANCH   1   3
BRANCH   1  20
HETATM   20  C   UNL     1       6.847  27.926  55.566  1.00  0.00     0.035 A 
HETATM   21  C   UNL     1       6.992  26.583  55.194  1.00  0.00     0.048 A 
HETATM   22  C   UNL     1       7.501  25.635  56.101  1.00  0.00     0.052 A 
HETATM   23  C   UNL     1       7.813  26.058  57.404  1.00  0.00     0.080 A 
HETATM   24  C   UNL     1       7.618  27.377  57.797  1.00  0.00     0.040 A 
HETATM   25  C   UNL     1       7.135  28.306  56.880  1.00  0.00     0.032 A 
BRANCH  22  26
HETATM   26  C   UNL     1       7.738  24.246  55.715  1.00  0.00     0.183 A 
HETATM   27  O   UNL     1       7.780  23.949  54.378  1.00  0.00    -0.289 OA
HETATM   28  C   UNL     1       8.028  22.606  54.353  1.00  0.00     0.106 A 
HETATM   29  C   UNL     1       8.128  22.166  55.662  1.00  0.00     0.093 A 
HETATM   30  C   UNL     1       8.169  21.791  53.236  1.00  0.00     0.040 A 
HETATM   31  N   UNL     1       7.933  23.215  56.522  1.00  0.00    -0.221 NA
HETATM   32  C   UNL     1       8.394  20.814  55.911  1.00  0.00     0.034 A 
HETATM   33  C   UNL     1       8.544  19.959  54.810  1.00  0.00     0.002 A 
HETATM   34  C   UNL     1       8.432  20.440  53.499  1.00  0.00     0.003 A 
ENDBRANCH  22  26
BRANCH  23  35
HETATM   35  O   UNL     1       8.320  25.222  58.366  1.00  0.00    -0.360 OA
HETATM   36  H   UNL     1       7.829  24.372  58.333  1.00  0.00     0.217 HD
ENDBRANCH  23  35
ENDBRANCH   1  20
TORSDOF 10
ENDMDL
MODEL 10
REMARK VINA RESULT:      -8.7      1.654      2.388
REMARK  10 active torsions:
REMARK  status: ('A' for Active; 'I' for Inactive)
REMARK    1  A    between atoms: C_2  and  C_3 
REMARK    2  A    between atoms: C_3  and  C_4 
REMARK    3  A    between atoms: C_4  and  O_5 
REMARK    4  A    between atoms: O_5  and  C_6 
REMARK    5  A    between atoms: C_9  and  C_10 
REMARK       I    between atoms: C_10  and  N_11 
REMARK    6  A    between atoms: N_11  and  C_12 
REMARK    7  A    between atoms: C_12  and  N_13 
REMARK    8  A    between atoms: N_13  and  C_14 
REMARK    9  A    between atoms: C_16  and  C_17 
REMARK   10  A    between atoms: C_26  and  O_27 
ROOT
HETATM    1  N   UNL     1       6.023  28.586  53.320  1.00  0.00    -0.337 N 
HETATM    2  H   UNL     1       6.683  28.800  52.579  1.00  0.00     0.168 HD
ENDROOT
BRANCH   1   3
HETATM    3  C   UNL     1       4.732  28.355  52.886  1.00  0.00     0.157 C 
HETATM    4  S   UNL     1       3.657  29.632  52.856  1.00  0.00    -0.047 SA
BRANCH   3   5
HETATM    5  N   UNL     1       4.445  27.029  52.611  1.00  0.00    -0.201 NA
HETATM    6  C   UNL     1       5.157  26.162  51.803  1.00  0.00     0.237 C 
HETATM    7  O   UNL     1       4.816  25.932  50.648  1.00  0.00    -0.274 OA
HETATM    8  H   UNL     1       3.485  27.021  52.284  1.00  0.00     0.139 HD
BRANCH   6   9
HETATM    9  C   UNL     1       6.104  25.267  52.517  1.00  0.00     0.026 A 
HETATM   10  C   UNL     1       7.406  25.025  52.068  1.00  0.00     0.019 A 
HETATM   11  C   UNL     1       8.279  24.265  52.850  1.00  0.00     0.038 A 
HETATM   12  C   UNL     1       7.859  23.786  54.089  1.00  0.00     0.068 A 
HETATM   13  C   UNL     1       6.554  23.989  54.530  1.00  0.00     0.038 A 
HETATM   14  C   UNL     1       5.674  24.728  53.740  1.00  0.00     0.019 A 
BRANCH  12  15
HETATM   15  O   UNL     1       8.751  23.086  54.853  1.00  0.00    -0.351 OA
BRANCH  15  16
HETATM   16  C   UNL     1       8.326  23.038  56.224  1.00  0.00     0.175 C 
BRANCH  16  17
HETATM   17  C   UNL     1       8.468  21.602  56.717  1.00  0.00     0.026 C 
BRANCH  17  18
HETATM   18  C   UNL     1       7.769  20.612  55.789  1.00  0.00    -0.002 C 
HETATM   19  C   UNL     1       8.758  19.922  54.865  1.00  0.00     0.005 C 
ENDBRANCH  17  18
ENDBRANCH  16  17
ENDBRANCH  15  16
ENDBRANCH  12  15
ENDBRANCH   6   9
ENDBRANCH   3   5
ENDBRANCH   1   3
BRANCH   1  20
HETATM   20  C   UNL     1       6.530  28.538  54.638  1.00  0.00     0.035 A 
HETATM   21  C   UNL     1       6.161  29.554  55.530  1.00  0.00     0.048 A 
HETATM   22  C   UNL     1       6.593  29.530  56.869  1.00  0.00     0.052 A 
HETATM   23  C   UNL     1       7.445  28.489  57.277  1.00  0.00     0.080 A 
HETATM   24  C   UNL     1       7.861  27.510  56.383  1.00  0.00     0.040 A 
HETATM   25  C   UNL     1       7.406  27.536  55.068  1.00  0.00     0.032 A 
BRANCH  22  26
HETATM   26  C   UNL     1       6.158  30.531  57.840  1.00  0.00     0.183 A 
HETATM   27  O   UNL     1       4.841  30.908  57.827  1.00  0.00    -0.289 OA
HETATM   28  C   UNL     1       4.756  31.821  58.839  1.00  0.00     0.106 A 
HETATM   29  C   UNL     1       6.012  31.943  59.410  1.00  0.00     0.093 A 
HETATM   30  C   UNL     1       3.630  32.520  59.259  1.00  0.00     0.040 A 
HETATM   31  N   UNL     1       6.900  31.125  58.761  1.00  0.00    -0.221 NA
HETATM   32  C   UNL     1       6.192  32.819  60.488  1.00  0.00     0.034 A 
HETATM   33  C   UNL     1       5.079  33.541  60.942  1.00  0.00     0.002 A 
HETATM   34  C   UNL     1       3.824  33.394  60.336  1.00  0.00     0.003 A 
ENDBRANCH  22  26
BRANCH  23  35
HETATM   35  O   UNL     1       7.921  28.364  58.558  1.00  0.00    -0.360 OA
HETATM   36  H   UNL     1       7.163  28.196  59.159  1.00  0.00     0.217 HD
ENDBRANCH  23  35
ENDBRANCH   1  20
TORSDOF 10
ENDMDL
