MODEL 1
REMARK VINA RESULT:      -9.6      0.000      0.000
REMARK  4 active torsions:
REMARK  status: ('A' for Active; 'I' for Inactive)
REMARK    1  A    between atoms: C_5  and  C_6 
REMARK    2  A    between atoms: C_6  and  N_7 
REMARK    3  A    between atoms: N_13  and  C_15 
REMARK    4  A    between atoms: C_19  and  C_20 
ROOT
HETATM    1  N   UNL     1       7.794  29.425  56.374  1.00  0.00    -0.064 N 
HETATM    2  H   UNL     1       8.384  30.278  56.334  1.00  0.00     0.280 HD
HETATM    3  C   UNL     1       8.397  28.482  55.378  1.00  0.00     0.236 C 
HETATM    4  C   UNL     1       7.506  27.250  55.175  1.00  0.00     0.039 C 
HETATM    5  C   UNL     1       6.003  27.541  54.891  1.00  0.00    -0.013 C 
HETATM    6  C   UNL     1       5.761  28.032  53.438  1.00  0.00     0.245 C 
HETATM    7  N   UNL     1       5.906  26.918  52.429  1.00  0.00    -0.065 N 
HETATM    8  H   UNL     1       6.864  26.543  52.462  1.00  0.00     0.280 HD
HETATM    9  C   UNL     1       4.961  25.751  52.701  1.00  0.00     0.244 C 
HETATM   10  C   UNL     1       5.253  25.141  54.082  1.00  0.00     0.045 C 
HETATM   11  C   UNL     1       5.132  26.269  55.138  1.00  0.00     0.022 C 
HETATM   12  C   UNL     1       5.509  28.623  55.903  1.00  0.00     0.039 C 
HETATM   13  C   UNL     1       6.407  29.848  56.020  1.00  0.00     0.236 C 
ENDROOT
BRANCH   7  14
HETATM   14  C   UNL     1       5.688  27.428  51.032  1.00  0.00     0.188 A 
HETATM   15  C   UNL     1       4.829  26.592  50.127  1.00  0.00     0.035 A 
HETATM   16  C   UNL     1       4.302  27.886  50.679  1.00  0.00     0.035 A 
ENDBRANCH   7  14
BRANCH  10  17
HETATM   17  C   UNL     1       6.527  24.310  54.211  1.00  0.00    -0.052 A 
HETATM   18  C   UNL     1       7.241  23.804  53.112  1.00  0.00     0.007 A 
HETATM   19  C   UNL     1       8.404  23.046  53.291  1.00  0.00     0.001 A 
HETATM   20  C   UNL     1       8.860  22.752  54.571  1.00  0.00     0.000 A 
HETATM   21  C   UNL     1       8.143  23.196  55.674  1.00  0.00     0.001 A 
HETATM   22  C   UNL     1       6.984  23.954  55.495  1.00  0.00     0.007 A 
ENDBRANCH  10  17
BRANCH   1  23
HETATM   23  C   UNL     1       7.978  28.999  57.848  1.00  0.00     0.323 C 
BRANCH  23  24
HETATM   24  C   UNL     1       8.556  30.088  58.671  1.00  0.00     0.198 A 
HETATM   25  O   UNL     1       9.114  31.138  58.019  1.00  0.00    -0.194 OA
HETATM   26  N   UNL     1       9.599  31.989  59.006  1.00  0.00    -0.112 NA
HETATM   27  C   UNL     1       9.288  31.362  60.149  1.00  0.00     0.152 A 
HETATM   28  C   UNL     1       9.661  31.894  61.475  1.00  0.00     0.096 C 
HETATM   29  N   UNL     1       8.612  30.171  59.982  1.00  0.00    -0.208 NA
ENDBRANCH  23  24
ENDBRANCH   1  23
TORSDOF 4
ENDMDL
MODEL 2
REMARK VINA RESULT:      -8.7      3.579      8.002
REMARK  4 active torsions:
REMARK  status: ('A' for Active; 'I' for Inactive)
REMARK    1  A    between atoms: C_5  and  C_6 
REMARK    2  A    between atoms: C_6  and  N_7 
REMARK    3  A    between atoms: N_13  and  C_15 
REMARK    4  A    between atoms: C_19  and  C_20 
ROOT
HETATM    1  N   UNL     1       6.227  25.832  51.415  1.00  0.00    -0.064 N 
HETATM    2  H   UNL     1       6.638  25.573  50.498  1.00  0.00     0.280 HD
HETATM    3  C   UNL     1       7.393  26.206  52.279  1.00  0.00     0.236 C 
HETATM    4  C   UNL     1       6.958  26.414  53.734  1.00  0.00     0.039 C 
HETATM    5  C   UNL     1       6.095  25.275  54.353  1.00  0.00    -0.013 C 
HETATM    6  C   UNL     1       6.943  24.026  54.720  1.00  0.00     0.245 C 
HETATM    7  N   UNL     1       7.803  24.261  55.938  1.00  0.00    -0.065 N 
HETATM    8  H   UNL     1       8.465  25.027  55.754  1.00  0.00     0.280 HD
HETATM    9  C   UNL     1       6.989  24.662  57.166  1.00  0.00     0.244 C 
HETATM   10  C   UNL     1       6.232  25.973  56.897  1.00  0.00     0.045 C 
HETATM   11  C   UNL     1       5.355  25.768  55.635  1.00  0.00     0.022 C 
HETATM   12  C   UNL     1       4.989  24.877  53.324  1.00  0.00     0.039 C 
HETATM   13  C   UNL     1       5.491  24.630  51.907  1.00  0.00     0.236 C 
ENDROOT
BRANCH   7  14
HETATM   14  C   UNL     1       8.626  23.044  56.255  1.00  0.00     0.188 A 
HETATM   15  C   UNL     1       7.994  21.706  55.998  1.00  0.00     0.035 A 
HETATM   16  C   UNL     1       9.086  22.207  55.097  1.00  0.00     0.035 A 
ENDBRANCH   7  14
BRANCH  10  17
HETATM   17  C   UNL     1       7.064  27.253  56.867  1.00  0.00    -0.052 A 
HETATM   18  C   UNL     1       8.442  27.293  57.142  1.00  0.00     0.007 A 
HETATM   19  C   UNL     1       9.153  28.497  57.102  1.00  0.00     0.001 A 
HETATM   20  C   UNL     1       8.499  29.690  56.818  1.00  0.00     0.000 A 
HETATM   21  C   UNL     1       7.128  29.685  56.595  1.00  0.00     0.001 A 
HETATM   22  C   UNL     1       6.418  28.483  56.633  1.00  0.00     0.007 A 
ENDBRANCH  10  17
BRANCH   1  23
HETATM   23  C   UNL     1       5.322  27.019  51.017  1.00  0.00     0.323 C 
BRANCH  23  24
HETATM   24  C   UNL     1       4.777  26.865  49.647  1.00  0.00     0.198 A 
HETATM   25  O   UNL     1       5.160  27.770  48.713  1.00  0.00    -0.194 OA
HETATM   26  N   UNL     1       4.495  27.420  47.543  1.00  0.00    -0.112 NA
HETATM   27  C   UNL     1       3.777  26.344  47.894  1.00  0.00     0.152 A 
HETATM   28  C   UNL     1       2.868  25.655  46.956  1.00  0.00     0.096 C 
HETATM   29  N   UNL     1       3.943  25.948  49.206  1.00  0.00    -0.208 NA
ENDBRANCH  23  24
ENDBRANCH   1  23
TORSDOF 4
ENDMDL
MODEL 3
REMARK VINA RESULT:      -8.1      4.002      7.962
REMARK  4 active torsions:
REMARK  status: ('A' for Active; 'I' for Inactive)
REMARK    1  A    between atoms: C_5  and  C_6 
REMARK    2  A    between atoms: C_6  and  N_7 
REMARK    3  A    between atoms: N_13  and  C_15 
REMARK    4  A    between atoms: C_19  and  C_20 
ROOT
HETATM    1  N   UNL     1       4.365  26.373  51.116  1.00  0.00    -0.064 N 
HETATM    2  H   UNL     1       3.375  26.584  50.886  1.00  0.00     0.280 HD
HETATM    3  C   UNL     1       4.310  25.248  52.103  1.00  0.00     0.236 C 
HETATM    4  C   UNL     1       5.696  24.963  52.693  1.00  0.00     0.039 C 
HETATM    5  C   UNL     1       6.469  26.201  53.238  1.00  0.00    -0.013 C 
HETATM    6  C   UNL     1       5.917  26.684  54.607  1.00  0.00     0.245 C 
HETATM    7  N   UNL     1       6.290  25.750  55.732  1.00  0.00    -0.065 N 
HETATM    8  H   UNL     1       5.886  24.820  55.560  1.00  0.00     0.280 HD
HETATM    9  C   UNL     1       7.799  25.562  55.866  1.00  0.00     0.244 C 
HETATM   10  C   UNL     1       8.376  24.956  54.576  1.00  0.00     0.045 C 
HETATM   11  C   UNL     1       7.989  25.886  53.397  1.00  0.00     0.022 C 
HETATM   12  C   UNL     1       6.359  27.353  52.189  1.00  0.00     0.039 C 
HETATM   13  C   UNL     1       4.949  27.625  51.681  1.00  0.00     0.236 C 
ENDROOT
BRANCH   7  14
HETATM   14  C   UNL     1       5.725  26.233  57.039  1.00  0.00     0.188 A 
HETATM   15  C   UNL     1       6.086  27.627  57.466  1.00  0.00     0.035 A 
HETATM   16  C   UNL     1       4.697  27.326  56.979  1.00  0.00     0.035 A 
ENDBRANCH   7  14
BRANCH  10  17
HETATM   17  C   UNL     1       8.082  23.480  54.319  1.00  0.00    -0.052 A 
HETATM   18  C   UNL     1       7.725  22.570  55.329  1.00  0.00     0.007 A 
HETATM   19  C   UNL     1       7.470  21.226  55.034  1.00  0.00     0.001 A 
HETATM   20  C   UNL     1       7.593  20.757  53.731  1.00  0.00     0.000 A 
HETATM   21  C   UNL     1       7.996  21.625  52.725  1.00  0.00     0.001 A 
HETATM   22  C   UNL     1       8.250  22.966  53.018  1.00  0.00     0.007 A 
ENDBRANCH  10  17
BRANCH   1  23
HETATM   23  C   UNL     1       4.918  25.977  49.728  1.00  0.00     0.323 C 
BRANCH  23  24
HETATM   24  C   UNL     1       3.912  26.167  48.657  1.00  0.00     0.198 A 
HETATM   25  O   UNL     1       4.092  25.486  47.498  1.00  0.00    -0.194 OA
HETATM   26  N   UNL     1       3.042  25.859  46.666  1.00  0.00    -0.112 NA
HETATM   27  C   UNL     1       2.342  26.729  47.406  1.00  0.00     0.152 A 
HETATM   28  C   UNL     1       1.145  27.425  46.894  1.00  0.00     0.096 C 
HETATM   29  N   UNL     1       2.845  26.935  48.675  1.00  0.00    -0.208 NA
ENDBRANCH  23  24
ENDBRANCH   1  23
TORSDOF 4
ENDMDL
MODEL 4
REMARK VINA RESULT:      -7.9      2.335      3.432
REMARK  4 active torsions:
REMARK  status: ('A' for Active; 'I' for Inactive)
REMARK    1  A    between atoms: C_5  and  C_6 
REMARK    2  A    between atoms: C_6  and  N_7 
REMARK    3  A    between atoms: N_13  and  C_15 
REMARK    4  A    between atoms: C_19  and  C_20 
ROOT
HETATM    1  N   UNL     1       7.077  29.642  56.405  1.00  0.00    -0.064 N 
HETATM    2  H   UNL     1       7.722  30.413  56.666  1.00  0.00     0.280 HD
HETATM    3  C   UNL     1       7.767  28.909  55.295  1.00  0.00     0.236 C 
HETATM    4  C   UNL     1       6.840  27.863  54.665  1.00  0.00     0.039 C 
HETATM    5  C   UNL     1       5.424  28.368  54.259  1.00  0.00    -0.013 C 
HETATM    6  C   UNL     1       5.451  29.218  52.960  1.00  0.00     0.245 C 
HETATM    7  N   UNL     1       5.681  28.372  51.732  1.00  0.00    -0.065 N 
HETATM    8  H   UNL     1       6.594  27.902  51.799  1.00  0.00     0.280 HD
HETATM    9  C   UNL     1       4.629  27.279  51.564  1.00  0.00     0.244 C 
HETATM   10  C   UNL     1       4.655  26.326  52.771  1.00  0.00     0.045 C 
HETATM   11  C   UNL     1       4.442  27.173  54.052  1.00  0.00     0.022 C 
HETATM   12  C   UNL     1       4.848  29.220  55.435  1.00  0.00     0.039 C 
HETATM   13  C   UNL     1       5.796  30.280  55.983  1.00  0.00     0.236 C 
ENDROOT
BRANCH   7  14
HETATM   14  C   UNL     1       5.723  29.224  50.494  1.00  0.00     0.188 A 
HETATM   15  C   UNL     1       4.408  29.718  49.960  1.00  0.00     0.035 A 
HETATM   16  C   UNL     1       5.347  30.670  50.644  1.00  0.00     0.035 A 
ENDBRANCH   7  14
BRANCH  10  17
HETATM   17  C   UNL     1       5.834  25.361  52.859  1.00  0.00    -0.052 A 
HETATM   18  C   UNL     1       6.022  24.453  53.915  1.00  0.00     0.007 A 
HETATM   19  C   UNL     1       7.125  23.593  53.943  1.00  0.00     0.001 A 
HETATM   20  C   UNL     1       8.079  23.642  52.934  1.00  0.00     0.000 A 
HETATM   21  C   UNL     1       7.945  24.567  51.907  1.00  0.00     0.001 A 
HETATM   22  C   UNL     1       6.844  25.424  51.877  1.00  0.00     0.007 A 
ENDBRANCH  10  17
BRANCH   1  23
HETATM   23  C   UNL     1       6.995  28.856  57.734  1.00  0.00     0.323 C 
BRANCH  23  24
HETATM   24  C   UNL     1       7.265  27.412  57.540  1.00  0.00     0.198 A 
HETATM   25  O   UNL     1       6.198  26.589  57.382  1.00  0.00    -0.194 OA
HETATM   26  N   UNL     1       6.718  25.306  57.250  1.00  0.00    -0.112 NA
HETATM   27  C   UNL     1       8.043  25.488  57.347  1.00  0.00     0.152 A 
HETATM   28  C   UNL     1       9.003  24.367  57.305  1.00  0.00     0.096 C 
HETATM   29  N   UNL     1       8.430  26.802  57.509  1.00  0.00    -0.208 NA
ENDBRANCH  23  24
ENDBRANCH   1  23
TORSDOF 4
ENDMDL
MODEL 5
REMARK VINA RESULT:      -7.6      1.833      4.453
REMARK  4 active torsions:
REMARK  status: ('A' for Active; 'I' for Inactive)
REMARK    1  A    between atoms: C_5  and  C_6 
REMARK    2  A    between atoms: C_6  and  N_7 
REMARK    3  A    between atoms: N_13  and  C_15 
REMARK    4  A    between atoms: C_19  and  C_20 
ROOT
HETATM    1  N   UNL     1       6.777  29.227  58.121  1.00  0.00    -0.064 N 
HETATM    2  H   UNL     1       6.500  29.120  59.116  1.00  0.00     0.280 HD
HETATM    3  C   UNL     1       5.640  28.651  57.332  1.00  0.00     0.236 C 
HETATM    4  C   UNL     1       5.996  28.551  55.844  1.00  0.00     0.039 C 
HETATM    5  C   UNL     1       7.358  27.868  55.518  1.00  0.00    -0.013 C 
HETATM    6  C   UNL     1       7.295  26.325  55.671  1.00  0.00     0.245 C 
HETATM    7  N   UNL     1       6.514  25.673  54.556  1.00  0.00    -0.065 N 
HETATM    8  H   UNL     1       5.543  26.013  54.567  1.00  0.00     0.280 HD
HETATM    9  C   UNL     1       7.081  25.992  53.175  1.00  0.00     0.244 C 
HETATM   10  C   UNL     1       7.040  27.508  52.920  1.00  0.00     0.045 C 
HETATM   11  C   UNL     1       7.818  28.206  54.065  1.00  0.00     0.022 C 
HETATM   12  C   UNL     1       8.444  28.450  56.477  1.00  0.00     0.039 C 
HETATM   13  C   UNL     1       8.053  28.474  57.949  1.00  0.00     0.236 C 
ENDROOT
BRANCH   7  14
HETATM   14  C   UNL     1       6.454  24.183  54.743  1.00  0.00     0.188 A 
HETATM   15  C   UNL     1       7.661  23.393  54.324  1.00  0.00     0.035 A 
HETATM   16  C   UNL     1       7.357  23.586  55.783  1.00  0.00     0.035 A 
ENDBRANCH   7  14
BRANCH  10  17
HETATM   17  C   UNL     1       5.669  28.121  52.644  1.00  0.00    -0.052 A 
HETATM   18  C   UNL     1       4.460  27.553  53.080  1.00  0.00     0.007 A 
HETATM   19  C   UNL     1       3.231  28.159  52.794  1.00  0.00     0.001 A 
HETATM   20  C   UNL     1       3.183  29.327  52.042  1.00  0.00     0.000 A 
HETATM   21  C   UNL     1       4.360  29.879  51.554  1.00  0.00     0.001 A 
HETATM   22  C   UNL     1       5.586  29.275  51.840  1.00  0.00     0.007 A 
ENDBRANCH  10  17
BRANCH   1  23
HETATM   23  C   UNL     1       6.918  30.762  58.009  1.00  0.00     0.323 C 
BRANCH  23  24
HETATM   24  C   UNL     1       7.065  31.402  59.338  1.00  0.00     0.198 A 
HETATM   25  O   UNL     1       6.242  32.440  59.629  1.00  0.00    -0.194 OA
HETATM   26  N   UNL     1       6.602  32.869  60.903  1.00  0.00    -0.112 NA
HETATM   27  C   UNL     1       7.606  32.049  61.244  1.00  0.00     0.152 A 
HETATM   28  C   UNL     1       8.334  32.174  62.522  1.00  0.00     0.096 C 
HETATM   29  N   UNL     1       7.915  31.097  60.294  1.00  0.00    -0.208 NA
ENDBRANCH  23  24
ENDBRANCH   1  23
TORSDOF 4
ENDMDL
MODEL 6
REMARK VINA RESULT:      -7.6      3.529      7.325
REMARK  4 active torsions:
REMARK  status: ('A' for Active; 'I' for Inactive)
REMARK    1  A    between atoms: C_5  and  C_6 
REMARK    2  A    between atoms: C_6  and  N_7 
REMARK    3  A    between atoms: N_13  and  C_15 
REMARK    4  A    between atoms: C_19  and  C_20 
ROOT
HETATM    1  N   UNL     1       7.782  24.941  54.035  1.00  0.00    -0.064 N 
HETATM    2  H   UNL     1       8.708  24.714  54.448  1.00  0.00     0.280 HD
HETATM    3  C   UNL     1       7.944  26.300  53.425  1.00  0.00     0.236 C 
HETATM    4  C   UNL     1       6.596  26.857  52.953  1.00  0.00     0.039 C 
HETATM    5  C   UNL     1       5.439  26.802  53.994  1.00  0.00    -0.013 C 
HETATM    6  C   UNL     1       5.578  27.894  55.090  1.00  0.00     0.245 C 
HETATM    7  N   UNL     1       5.259  29.272  54.563  1.00  0.00    -0.065 N 
HETATM    8  H   UNL     1       5.918  29.518  53.812  1.00  0.00     0.280 HD
HETATM    9  C   UNL     1       3.855  29.366  53.972  1.00  0.00     0.244 C 
HETATM   10  C   UNL     1       3.709  28.394  52.790  1.00  0.00     0.045 C 
HETATM   11  C   UNL     1       4.052  26.970  53.298  1.00  0.00     0.022 C 
HETATM   12  C   UNL     1       5.437  25.388  54.657  1.00  0.00     0.039 C 
HETATM   13  C   UNL     1       6.796  24.911  55.154  1.00  0.00     0.236 C 
ENDROOT
BRANCH   7  14
HETATM   14  C   UNL     1       5.423  30.308  55.639  1.00  0.00     0.188 A 
HETATM   15  C   UNL     1       5.042  29.908  57.036  1.00  0.00     0.035 A 
HETATM   16  C   UNL     1       6.490  30.066  56.668  1.00  0.00     0.035 A 
ENDBRANCH   7  14
BRANCH  10  17
HETATM   17  C   UNL     1       4.422  28.775  51.495  1.00  0.00    -0.052 A 
HETATM   18  C   UNL     1       5.017  30.029  51.274  1.00  0.00     0.007 A 
HETATM   19  C   UNL     1       5.656  30.323  50.064  1.00  0.00     0.001 A 
HETATM   20  C   UNL     1       5.687  29.384  49.040  1.00  0.00     0.000 A 
HETATM   21  C   UNL     1       5.060  28.157  49.214  1.00  0.00     0.001 A 
HETATM   22  C   UNL     1       4.424  27.862  50.422  1.00  0.00     0.007 A 
ENDBRANCH  10  17
BRANCH   1  23
HETATM   23  C   UNL     1       7.622  23.796  53.008  1.00  0.00     0.323 C 
BRANCH  23  24
HETATM   24  C   UNL     1       8.002  22.483  53.580  1.00  0.00     0.198 A 
HETATM   25  O   UNL     1       7.663  21.372  52.882  1.00  0.00    -0.194 OA
HETATM   26  N   UNL     1       8.104  20.292  53.640  1.00  0.00    -0.112 NA
HETATM   27  C   UNL     1       8.657  20.864  54.718  1.00  0.00     0.152 A 
HETATM   28  C   UNL     1       9.224  20.077  55.832  1.00  0.00     0.096 C 
HETATM   29  N   UNL     1       8.632  22.243  54.710  1.00  0.00    -0.208 NA
ENDBRANCH  23  24
ENDBRANCH   1  23
TORSDOF 4
ENDMDL
MODEL 7
REMARK VINA RESULT:      -7.3      3.252      7.623
REMARK  4 active torsions:
REMARK  status: ('A' for Active; 'I' for Inactive)
REMARK    1  A    between atoms: C_5  and  C_6 
REMARK    2  A    between atoms: C_6  and  N_7 
REMARK    3  A    between atoms: N_13  and  C_15 
REMARK    4  A    between atoms: C_19  and  C_20 
ROOT
HETATM    1  N   UNL     1       7.725  25.114  54.774  1.00  0.00    -0.064 N 
HETATM    2  H   UNL     1       8.678  24.771  54.545  1.00  0.00     0.280 HD
HETATM    3  C   UNL     1       7.669  26.512  54.238  1.00  0.00     0.236 C 
HETATM    4  C   UNL     1       6.387  27.223  54.684  1.00  0.00     0.039 C 
HETATM    5  C   UNL     1       6.067  27.152  56.207  1.00  0.00    -0.013 C 
HETATM    6  C   UNL     1       6.962  28.108  57.042  1.00  0.00     0.245 C 
HETATM    7  N   UNL     1       6.573  29.555  56.861  1.00  0.00    -0.065 N 
HETATM    8  H   UNL     1       6.689  29.825  55.874  1.00  0.00     0.280 HD
HETATM    9  C   UNL     1       5.116  29.824  57.228  1.00  0.00     0.244 C 
HETATM   10  C   UNL     1       4.180  28.996  56.330  1.00  0.00     0.045 C 
HETATM   11  C   UNL     1       4.572  27.504  56.481  1.00  0.00     0.022 C 
HETATM   12  C   UNL     1       6.275  25.681  56.687  1.00  0.00     0.039 C 
HETATM   13  C   UNL     1       7.592  25.046  56.258  1.00  0.00     0.236 C 
ENDROOT
BRANCH   7  14
HETATM   14  C   UNL     1       7.469  30.456  57.664  1.00  0.00     0.188 A 
HETATM   15  C   UNL     1       8.023  29.901  58.946  1.00  0.00     0.035 A 
HETATM   16  C   UNL     1       8.919  30.077  57.753  1.00  0.00     0.035 A 
ENDBRANCH   7  14
BRANCH  10  17
HETATM   17  C   UNL     1       4.037  29.453  54.881  1.00  0.00    -0.052 A 
HETATM   18  C   UNL     1       4.259  30.774  54.455  1.00  0.00     0.007 A 
HETATM   19  C   UNL     1       4.110  31.135  53.111  1.00  0.00     0.001 A 
HETATM   20  C   UNL     1       3.708  30.194  52.171  1.00  0.00     0.000 A 
HETATM   21  C   UNL     1       3.431  28.894  52.576  1.00  0.00     0.001 A 
HETATM   22  C   UNL     1       3.581  28.533  53.916  1.00  0.00     0.007 A 
ENDBRANCH  10  17
BRANCH   1  23
HETATM   23  C   UNL     1       6.848  24.100  54.005  1.00  0.00     0.323 C 
BRANCH  23  24
HETATM   24  C   UNL     1       7.383  22.722  54.100  1.00  0.00     0.198 A 
HETATM   25  O   UNL     1       7.543  22.029  52.945  1.00  0.00    -0.194 OA
HETATM   26  N   UNL     1       8.023  20.776  53.312  1.00  0.00    -0.112 NA
HETATM   27  C   UNL     1       8.097  20.842  54.649  1.00  0.00     0.152 A 
HETATM   28  C   UNL     1       8.523  19.697  55.478  1.00  0.00     0.096 C 
HETATM   29  N   UNL     1       7.723  22.058  55.183  1.00  0.00    -0.208 NA
ENDBRANCH  23  24
ENDBRANCH   1  23
TORSDOF 4
ENDMDL
MODEL 8
REMARK VINA RESULT:      -7.3      3.477      7.786
REMARK  4 active torsions:
REMARK  status: ('A' for Active; 'I' for Inactive)
REMARK    1  A    between atoms: C_5  and  C_6 
REMARK    2  A    between atoms: C_6  and  N_7 
REMARK    3  A    between atoms: N_13  and  C_15 
REMARK    4  A    between atoms: C_19  and  C_20 
ROOT
HETATM    1  N   UNL     1       3.843  27.778  51.143  1.00  0.00    -0.064 N 
HETATM    2  H   UNL     1       2.836  27.898  50.919  1.00  0.00     0.280 HD
HETATM    3  C   UNL     1       3.887  26.728  52.211  1.00  0.00     0.236 C 
HETATM    4  C   UNL     1       5.299  26.590  52.792  1.00  0.00     0.039 C 
HETATM    5  C   UNL     1       5.985  27.919  53.229  1.00  0.00    -0.013 C 
HETATM    6  C   UNL     1       5.419  28.461  54.570  1.00  0.00     0.245 C 
HETATM    7  N   UNL     1       5.878  27.642  55.753  1.00  0.00    -0.065 N 
HETATM    8  H   UNL     1       5.541  26.674  55.657  1.00  0.00     0.280 HD
HETATM    9  C   UNL     1       7.398  27.576  55.869  1.00  0.00     0.244 C 
HETATM   10  C   UNL     1       8.000  26.920  54.615  1.00  0.00     0.045 C 
HETATM   11  C   UNL     1       7.526  27.729  53.380  1.00  0.00     0.022 C 
HETATM   12  C   UNL     1       5.773  28.979  52.102  1.00  0.00     0.039 C 
HETATM   13  C   UNL     1       4.339  29.108  51.604  1.00  0.00     0.236 C 
ENDROOT
BRANCH   7  14
HETATM   14  C   UNL     1       5.298  28.177  57.032  1.00  0.00     0.188 A 
HETATM   15  C   UNL     1       5.936  29.409  57.608  1.00  0.00     0.035 A 
HETATM   16  C   UNL     1       4.583  29.496  56.962  1.00  0.00     0.035 A 
ENDBRANCH   7  14
BRANCH  10  17
HETATM   17  C   UNL     1       7.813  25.412  54.472  1.00  0.00    -0.052 A 
HETATM   18  C   UNL     1       7.981  24.717  53.262  1.00  0.00     0.007 A 
HETATM   19  C   UNL     1       7.794  23.332  53.192  1.00  0.00     0.001 A 
HETATM   20  C   UNL     1       7.406  22.617  54.319  1.00  0.00     0.000 A 
HETATM   21  C   UNL     1       7.182  23.288  55.514  1.00  0.00     0.001 A 
HETATM   22  C   UNL     1       7.371  24.670  55.586  1.00  0.00     0.007 A 
ENDBRANCH  10  17
BRANCH   1  23
HETATM   23  C   UNL     1       4.403  27.322  49.777  1.00  0.00     0.323 C 
BRANCH  23  24
HETATM   24  C   UNL     1       3.457  27.600  48.671  1.00  0.00     0.198 A 
HETATM   25  O   UNL     1       3.656  28.726  47.942  1.00  0.00    -0.194 OA
HETATM   26  N   UNL     1       2.630  28.762  47.003  1.00  0.00    -0.112 NA
HETATM   27  C   UNL     1       1.917  27.659  47.267  1.00  0.00     0.152 A 
HETATM   28  C   UNL     1       0.687  27.312  46.528  1.00  0.00     0.096 C 
HETATM   29  N   UNL     1       2.417  26.887  48.297  1.00  0.00    -0.208 NA
ENDBRANCH  23  24
ENDBRANCH   1  23
TORSDOF 4
ENDMDL
MODEL 9
REMARK VINA RESULT:      -7.2      3.056      8.227
REMARK  4 active torsions:
REMARK  status: ('A' for Active; 'I' for Inactive)
REMARK    1  A    between atoms: C_5  and  C_6 
REMARK    2  A    between atoms: C_6  and  N_7 
REMARK    3  A    between atoms: N_13  and  C_15 
REMARK    4  A    between atoms: C_19  and  C_20 
ROOT
HETATM    1  N   UNL     1       6.253  26.829  52.224  1.00  0.00    -0.064 N 
HETATM    2  H   UNL     1       6.800  26.756  51.345  1.00  0.00     0.280 HD
HETATM    3  C   UNL     1       6.500  28.217  52.730  1.00  0.00     0.236 C 
HETATM    4  C   UNL     1       5.918  28.404  54.136  1.00  0.00     0.039 C 
HETATM    5  C   UNL     1       6.299  27.310  55.178  1.00  0.00    -0.013 C 
HETATM    6  C   UNL     1       7.755  27.467  55.692  1.00  0.00     0.245 C 
HETATM    7  N   UNL     1       7.906  28.642  56.627  1.00  0.00    -0.065 N 
HETATM    8  H   UNL     1       7.670  29.513  56.131  1.00  0.00     0.280 HD
HETATM    9  C   UNL     1       6.980  28.554  57.838  1.00  0.00     0.244 C 
HETATM   10  C   UNL     1       5.511  28.532  57.383  1.00  0.00     0.045 C 
HETATM   11  C   UNL     1       5.332  27.345  56.403  1.00  0.00     0.022 C 
HETATM   12  C   UNL     1       6.123  25.910  54.510  1.00  0.00     0.039 C 
HETATM   13  C   UNL     1       6.769  25.768  53.137  1.00  0.00     0.236 C 
ENDROOT
BRANCH   7  14
HETATM   14  C   UNL     1       9.329  28.780  57.091  1.00  0.00     0.188 A 
HETATM   15  C   UNL     1      10.210  29.722  56.320  1.00  0.00     0.035 A 
HETATM   16  C   UNL     1       9.728  30.096  57.693  1.00  0.00     0.035 A 
ENDBRANCH   7  14
BRANCH  10  17
HETATM   17  C   UNL     1       4.931  29.848  56.870  1.00  0.00    -0.052 A 
HETATM   18  C   UNL     1       5.638  31.063  56.868  1.00  0.00     0.007 A 
HETATM   19  C   UNL     1       5.053  32.239  56.387  1.00  0.00     0.001 A 
HETATM   20  C   UNL     1       3.742  32.234  55.926  1.00  0.00     0.000 A 
HETATM   21  C   UNL     1       3.005  31.058  55.966  1.00  0.00     0.001 A 
HETATM   22  C   UNL     1       3.588  29.883  56.445  1.00  0.00     0.007 A 
ENDBRANCH  10  17
BRANCH   1  23
HETATM   23  C   UNL     1       4.817  26.585  51.706  1.00  0.00     0.323 C 
BRANCH  23  24
HETATM   24  C   UNL     1       4.664  26.990  50.289  1.00  0.00     0.198 A 
HETATM   25  O   UNL     1       4.500  26.007  49.369  1.00  0.00    -0.194 OA
HETATM   26  N   UNL     1       4.412  26.644  48.136  1.00  0.00    -0.112 NA
HETATM   27  C   UNL     1       4.537  27.943  48.440  1.00  0.00     0.152 A 
HETATM   28  C   UNL     1       4.547  29.002  47.410  1.00  0.00     0.096 C 
HETATM   29  N   UNL     1       4.677  28.206  49.787  1.00  0.00    -0.208 NA
ENDBRANCH  23  24
ENDBRANCH   1  23
TORSDOF 4
ENDMDL
MODEL 10
REMARK VINA RESULT:      -7.2      3.927      6.885
REMARK  4 active torsions:
REMARK  status: ('A' for Active; 'I' for Inactive)
REMARK    1  A    between atoms: C_5  and  C_6 
REMARK    2  A    between atoms: C_6  and  N_7 
REMARK    3  A    between atoms: N_13  and  C_15 
REMARK    4  A    between atoms: C_19  and  C_20 
ROOT
HETATM    1  N   UNL     1       5.697  27.595  54.200  1.00  0.00    -0.064 N 
HETATM    2  H   UNL     1       6.519  27.598  54.834  1.00  0.00     0.280 HD
HETATM    3  C   UNL     1       6.255  27.828  52.829  1.00  0.00     0.236 C 
HETATM    4  C   UNL     1       5.134  28.056  51.808  1.00  0.00     0.039 C 
HETATM    5  C   UNL     1       4.060  29.111  52.206  1.00  0.00    -0.013 C 
HETATM    6  C   UNL     1       4.579  30.567  52.053  1.00  0.00     0.245 C 
HETATM    7  N   UNL     1       4.690  30.983  50.606  1.00  0.00    -0.065 N 
HETATM    8  H   UNL     1       5.363  30.374  50.120  1.00  0.00     0.280 HD
HETATM    9  C   UNL     1       3.364  30.868  49.857  1.00  0.00     0.244 C 
HETATM   10  C   UNL     1       2.873  29.411  49.865  1.00  0.00     0.045 C 
HETATM   11  C   UNL     1       2.771  28.950  51.341  1.00  0.00     0.022 C 
HETATM   12  C   UNL     1       3.639  28.855  53.687  1.00  0.00     0.039 C 
HETATM   13  C   UNL     1       4.797  28.691  54.664  1.00  0.00     0.236 C 
ENDROOT
BRANCH   7  14
HETATM   14  C   UNL     1       5.214  32.387  50.490  1.00  0.00     0.188 A 
HETATM   15  C   UNL     1       6.110  32.686  49.323  1.00  0.00     0.035 A 
HETATM   16  C   UNL     1       4.704  33.216  49.347  1.00  0.00     0.035 A 
ENDBRANCH   7  14
BRANCH  10  17
HETATM   17  C   UNL     1       3.619  28.430  48.963  1.00  0.00    -0.052 A 
HETATM   18  C   UNL     1       4.718  28.788  48.164  1.00  0.00     0.007 A 
HETATM   19  C   UNL     1       5.361  27.845  47.354  1.00  0.00     0.001 A 
HETATM   20  C   UNL     1       4.902  26.535  47.302  1.00  0.00     0.000 A 
HETATM   21  C   UNL     1       3.785  26.169  48.041  1.00  0.00     0.001 A 
HETATM   22  C   UNL     1       3.144  27.108  48.851  1.00  0.00     0.007 A 
ENDBRANCH  10  17
BRANCH   1  23
HETATM   23  C   UNL     1       5.144  26.170  54.430  1.00  0.00     0.323 C 
BRANCH  23  24
HETATM   24  C   UNL     1       6.190  25.136  54.253  1.00  0.00     0.198 A 
HETATM   25  O   UNL     1       7.262  25.177  55.083  1.00  0.00    -0.194 OA
HETATM   26  N   UNL     1       8.092  24.132  54.692  1.00  0.00    -0.112 NA
HETATM   27  C   UNL     1       7.438  23.574  53.664  1.00  0.00     0.152 A 
HETATM   28  C   UNL     1       7.985  22.435  52.899  1.00  0.00     0.096 C 
HETATM   29  N   UNL     1       6.226  24.163  53.368  1.00  0.00    -0.208 NA
ENDBRANCH  23  24
ENDBRANCH   1  23
TORSDOF 4
ENDMDL
