MODEL 1
REMARK VINA RESULT:      -8.8      0.000      0.000
REMARK  9 active torsions:
REMARK  status: ('A' for Active; 'I' for Inactive)
REMARK    1  A    between atoms: O_2  and  C_3 
REMARK    2  A    between atoms: C_3  and  C_4 
REMARK    3  A    between atoms: C_4  and  O_5 
REMARK    4  A    between atoms: O_5  and  C_6 
REMARK    5  A    between atoms: C_8  and  C_25 
REMARK    6  A    between atoms: C_11  and  C_12 
REMARK       I    between atoms: C_12  and  N_14 
REMARK    7  A    between atoms: N_14  and  C_15 
REMARK    8  A    between atoms: C_15  and  C_17 
REMARK    9  A    between atoms: C_21  and  O_22 
ROOT
HETATM    1  C   UNL     1       6.784  24.946  55.478  1.00  0.00     0.085 A 
HETATM    2  C   UNL     1       6.967  23.781  54.722  1.00  0.00     0.050 A 
HETATM    3  C   UNL     1       8.085  22.961  54.931  1.00  0.00    -0.020 A 
HETATM    4  C   UNL     1       9.019  23.334  55.908  1.00  0.00     0.013 A 
HETATM    5  C   UNL     1       8.821  24.481  56.684  1.00  0.00     0.021 A 
HETATM    6  C   UNL     1       7.686  25.279  56.497  1.00  0.00     0.065 A 
ENDROOT
BRANCH   6   7
HETATM    7  C   UNL     1       7.498  26.421  57.433  1.00  0.00     0.255 C 
HETATM    8  O   UNL     1       7.639  26.251  58.639  1.00  0.00    -0.268 OA
HETATM    9  N   UNL     1       7.115  27.614  56.866  1.00  0.00    -0.349 N 
HETATM   10  H   UNL     1       7.132  27.692  55.856  1.00  0.00     0.163 HD
BRANCH   9  11
HETATM   11  C   UNL     1       6.930  28.827  57.642  1.00  0.00     0.114 C 
HETATM   12  C   UNL     1       5.764  29.639  57.076  1.00  0.00     0.037 C 
BRANCH  11  13
HETATM   13  C   UNL     1       8.235  29.599  57.704  1.00  0.00    -0.033 A 
HETATM   14  C   UNL     1       9.205  29.385  56.712  1.00  0.00     0.009 A 
HETATM   15  C   UNL     1      10.408  30.089  56.730  1.00  0.00     0.003 A 
HETATM   16  C   UNL     1      10.648  31.028  57.730  1.00  0.00     0.037 A 
HETATM   17  C   UNL     1       9.688  31.280  58.712  1.00  0.00     0.068 A 
HETATM   18  C   UNL     1       8.487  30.566  58.696  1.00  0.00     0.046 A 
BRANCH  17  19
HETATM   19  O   UNL     1      10.041  32.238  59.622  1.00  0.00    -0.356 OA
HETATM   20  C   UNL     1       9.490  32.117  60.928  1.00  0.00     0.210 C 
ENDBRANCH  17  19
ENDBRANCH  11  13
ENDBRANCH   9  11
ENDBRANCH   6   7
BRANCH   1  21
HETATM   21  O   UNL     1       5.663  25.687  55.199  1.00  0.00    -0.348 OA
BRANCH  21  22
HETATM   22  C   UNL     1       5.496  25.889  53.780  1.00  0.00     0.201 C 
BRANCH  22  23
HETATM   23  C   UNL     1       6.448  26.973  53.279  1.00  0.00     0.193 C 
BRANCH  23  24
HETATM   24  O   UNL     1       6.201  28.196  53.982  1.00  0.00    -0.394 OA
HETATM   25  C   UNL     1       5.054  28.865  53.476  1.00  0.00     0.201 C 
ENDBRANCH  23  24
ENDBRANCH  22  23
ENDBRANCH  21  22
ENDBRANCH   1  21
BRANCH   3  26
HETATM   26  C   UNL     1       8.249  21.737  54.164  1.00  0.00     0.010 A 
HETATM   27  C   UNL     1       8.860  20.506  54.504  1.00  0.00     0.152 A 
HETATM   28  N   UNL     1       8.813  19.612  53.514  1.00  0.00    -0.187 NA
HETATM   29  N   UNL     1       8.177  20.266  52.530  1.00  0.00    -0.289 N 
HETATM   30  H   UNL     1       8.024  19.782  51.652  1.00  0.00     0.188 HD
HETATM   31  C   UNL     1       7.815  21.538  52.869  1.00  0.00     0.123 A 
ENDBRANCH   3  26
TORSDOF 9
ENDMDL
MODEL 2
REMARK VINA RESULT:      -8.4      3.297      7.092
REMARK  9 active torsions:
REMARK  status: ('A' for Active; 'I' for Inactive)
REMARK    1  A    between atoms: O_2  and  C_3 
REMARK    2  A    between atoms: C_3  and  C_4 
REMARK    3  A    between atoms: C_4  and  O_5 
REMARK    4  A    between atoms: O_5  and  C_6 
REMARK    5  A    between atoms: C_8  and  C_25 
REMARK    6  A    between atoms: C_11  and  C_12 
REMARK       I    between atoms: C_12  and  N_14 
REMARK    7  A    between atoms: N_14  and  C_15 
REMARK    8  A    between atoms: C_15  and  C_17 
REMARK    9  A    between atoms: C_21  and  O_22 
ROOT
HETATM    1  C   UNL     1       6.336  24.945  54.525  1.00  0.00     0.085 A 
HETATM    2  C   UNL     1       6.830  23.673  54.838  1.00  0.00     0.050 A 
HETATM    3  C   UNL     1       7.626  22.968  53.923  1.00  0.00    -0.020 A 
HETATM    4  C   UNL     1       7.913  23.562  52.686  1.00  0.00     0.013 A 
HETATM    5  C   UNL     1       7.444  24.846  52.384  1.00  0.00     0.021 A 
HETATM    6  C   UNL     1       6.679  25.560  53.314  1.00  0.00     0.065 A 
ENDROOT
BRANCH   6   7
HETATM    7  C   UNL     1       6.311  26.957  52.958  1.00  0.00     0.255 C 
HETATM    8  O   UNL     1       6.998  27.891  53.356  1.00  0.00    -0.268 OA
HETATM    9  N   UNL     1       5.157  27.112  52.225  1.00  0.00    -0.349 N 
HETATM   10  H   UNL     1       4.715  26.283  51.845  1.00  0.00     0.163 HD
BRANCH   9  11
HETATM   11  C   UNL     1       4.686  28.408  51.769  1.00  0.00     0.114 C 
HETATM   12  C   UNL     1       3.347  28.741  52.427  1.00  0.00     0.037 C 
BRANCH  11  13
HETATM   13  C   UNL     1       4.639  28.429  50.251  1.00  0.00    -0.033 A 
HETATM   14  C   UNL     1       4.829  29.645  49.577  1.00  0.00     0.009 A 
HETATM   15  C   UNL     1       4.808  29.697  48.184  1.00  0.00     0.003 A 
HETATM   16  C   UNL     1       4.613  28.529  47.449  1.00  0.00     0.037 A 
HETATM   17  C   UNL     1       4.450  27.303  48.096  1.00  0.00     0.068 A 
HETATM   18  C   UNL     1       4.463  27.257  49.492  1.00  0.00     0.046 A 
BRANCH  17  19
HETATM   19  O   UNL     1       4.288  26.234  47.257  1.00  0.00    -0.356 OA
HETATM   20  C   UNL     1       3.221  25.342  47.556  1.00  0.00     0.210 C 
ENDBRANCH  17  19
ENDBRANCH  11  13
ENDBRANCH   9  11
ENDBRANCH   6   7
BRANCH   1  21
HETATM   21  O   UNL     1       5.563  25.554  55.481  1.00  0.00    -0.348 OA
BRANCH  21  22
HETATM   22  C   UNL     1       6.045  25.277  56.813  1.00  0.00     0.201 C 
BRANCH  22  23
HETATM   23  C   UNL     1       7.106  26.298  57.220  1.00  0.00     0.193 C 
BRANCH  23  24
HETATM   24  O   UNL     1       7.998  25.713  58.175  1.00  0.00    -0.394 OA
HETATM   25  C   UNL     1       8.868  24.768  57.565  1.00  0.00     0.201 C 
ENDBRANCH  23  24
ENDBRANCH  22  23
ENDBRANCH  21  22
ENDBRANCH   1  21
BRANCH   3  26
HETATM   26  C   UNL     1       8.161  21.662  54.271  1.00  0.00     0.010 A 
HETATM   27  C   UNL     1       8.531  20.566  53.455  1.00  0.00     0.152 A 
HETATM   28  N   UNL     1       8.982  19.524  54.157  1.00  0.00    -0.187 NA
HETATM   29  N   UNL     1       8.899  19.944  55.429  1.00  0.00    -0.289 N 
HETATM   30  H   UNL     1       9.188  19.308  56.165  1.00  0.00     0.188 HD
HETATM   31  C   UNL     1       8.418  21.216  55.551  1.00  0.00     0.123 A 
ENDBRANCH   3  26
TORSDOF 9
ENDMDL
MODEL 3
REMARK VINA RESULT:      -8.1      2.824      8.023
REMARK  9 active torsions:
REMARK  status: ('A' for Active; 'I' for Inactive)
REMARK    1  A    between atoms: O_2  and  C_3 
REMARK    2  A    between atoms: C_3  and  C_4 
REMARK    3  A    between atoms: C_4  and  O_5 
REMARK    4  A    between atoms: O_5  and  C_6 
REMARK    5  A    between atoms: C_8  and  C_25 
REMARK    6  A    between atoms: C_11  and  C_12 
REMARK       I    between atoms: C_12  and  N_14 
REMARK    7  A    between atoms: N_14  and  C_15 
REMARK    8  A    between atoms: C_15  and  C_17 
REMARK    9  A    between atoms: C_21  and  O_22 
ROOT
HETATM    1  C   UNL     1       6.329  28.681  56.731  1.00  0.00     0.085 A 
HETATM    2  C   UNL     1       6.504  29.516  57.842  1.00  0.00     0.050 A 
HETATM    3  C   UNL     1       7.790  29.821  58.312  1.00  0.00    -0.020 A 
HETATM    4  C   UNL     1       8.896  29.270  57.649  1.00  0.00     0.013 A 
HETATM    5  C   UNL     1       8.722  28.460  56.522  1.00  0.00     0.021 A 
HETATM    6  C   UNL     1       7.438  28.186  56.034  1.00  0.00     0.065 A 
ENDROOT
BRANCH   6   7
HETATM    7  C   UNL     1       7.346  27.405  54.770  1.00  0.00     0.255 C 
HETATM    8  O   UNL     1       7.994  27.752  53.789  1.00  0.00    -0.268 OA
HETATM    9  N   UNL     1       6.471  26.344  54.775  1.00  0.00    -0.349 N 
HETATM   10  H   UNL     1       6.064  26.062  55.660  1.00  0.00     0.163 HD
BRANCH   9  11
HETATM   11  C   UNL     1       6.298  25.465  53.633  1.00  0.00     0.114 C 
HETATM   12  C   UNL     1       4.812  25.331  53.295  1.00  0.00     0.037 C 
BRANCH  11  13
HETATM   13  C   UNL     1       6.982  24.136  53.901  1.00  0.00    -0.033 A 
HETATM   14  C   UNL     1       7.358  23.328  52.818  1.00  0.00     0.009 A 
HETATM   15  C   UNL     1       8.002  22.110  53.029  1.00  0.00     0.003 A 
HETATM   16  C   UNL     1       8.293  21.694  54.326  1.00  0.00     0.037 A 
HETATM   17  C   UNL     1       7.955  22.494  55.420  1.00  0.00     0.068 A 
HETATM   18  C   UNL     1       7.301  23.710  55.204  1.00  0.00     0.046 A 
BRANCH  17  19
HETATM   19  O   UNL     1       8.314  21.978  56.635  1.00  0.00    -0.356 OA
HETATM   20  C   UNL     1       8.714  20.613  56.659  1.00  0.00     0.210 C 
ENDBRANCH  17  19
ENDBRANCH  11  13
ENDBRANCH   9  11
ENDBRANCH   6   7
BRANCH   1  21
HETATM   21  O   UNL     1       5.034  28.436  56.349  1.00  0.00    -0.348 OA
BRANCH  21  22
HETATM   22  C   UNL     1       4.345  29.651  55.986  1.00  0.00     0.201 C 
BRANCH  22  23
HETATM   23  C   UNL     1       4.479  29.914  54.487  1.00  0.00     0.193 C 
BRANCH  23  24
HETATM   24  O   UNL     1       4.338  28.685  53.766  1.00  0.00    -0.394 OA
HETATM   25  C   UNL     1       3.318  28.773  52.780  1.00  0.00     0.201 C 
ENDBRANCH  23  24
ENDBRANCH  22  23
ENDBRANCH  21  22
ENDBRANCH   1  21
BRANCH   3  26
HETATM   26  C   UNL     1       7.962  30.715  59.445  1.00  0.00     0.010 A 
HETATM   27  C   UNL     1       8.875  30.672  60.527  1.00  0.00     0.152 A 
HETATM   28  N   UNL     1       8.714  31.685  61.382  1.00  0.00    -0.187 NA
HETATM   29  N   UNL     1       7.694  32.380  60.857  1.00  0.00    -0.289 N 
HETATM   30  H   UNL     1       7.377  33.211  61.345  1.00  0.00     0.188 HD
HETATM   31  C   UNL     1       7.211  31.844  59.697  1.00  0.00     0.123 A 
ENDBRANCH   3  26
TORSDOF 9
ENDMDL
MODEL 4
REMARK VINA RESULT:      -7.9      1.593      2.379
REMARK  9 active torsions:
REMARK  status: ('A' for Active; 'I' for Inactive)
REMARK    1  A    between atoms: O_2  and  C_3 
REMARK    2  A    between atoms: C_3  and  C_4 
REMARK    3  A    between atoms: C_4  and  O_5 
REMARK    4  A    between atoms: O_5  and  C_6 
REMARK    5  A    between atoms: C_8  and  C_25 
REMARK    6  A    between atoms: C_11  and  C_12 
REMARK       I    between atoms: C_12  and  N_14 
REMARK    7  A    between atoms: N_14  and  C_15 
REMARK    8  A    between atoms: C_15  and  C_17 
REMARK    9  A    between atoms: C_21  and  O_22 
ROOT
HETATM    1  C   UNL     1       6.420  25.007  54.431  1.00  0.00     0.085 A 
HETATM    2  C   UNL     1       6.989  23.790  54.037  1.00  0.00     0.050 A 
HETATM    3  C   UNL     1       7.570  22.932  54.983  1.00  0.00    -0.020 A 
HETATM    4  C   UNL     1       7.574  23.321  56.329  1.00  0.00     0.013 A 
HETATM    5  C   UNL     1       6.979  24.523  56.728  1.00  0.00     0.021 A 
HETATM    6  C   UNL     1       6.369  25.361  55.785  1.00  0.00     0.065 A 
ENDROOT
BRANCH   6   7
HETATM    7  C   UNL     1       5.668  26.567  56.304  1.00  0.00     0.255 C 
HETATM    8  O   UNL     1       4.704  26.439  57.050  1.00  0.00    -0.268 OA
HETATM    9  N   UNL     1       6.135  27.780  55.854  1.00  0.00    -0.349 N 
HETATM   10  H   UNL     1       7.003  27.796  55.332  1.00  0.00     0.163 HD
BRANCH   9  11
HETATM   11  C   UNL     1       5.581  29.047  56.299  1.00  0.00     0.114 C 
HETATM   12  C   UNL     1       5.074  29.847  55.098  1.00  0.00     0.037 C 
BRANCH  11  13
HETATM   13  C   UNL     1       6.609  29.790  57.134  1.00  0.00    -0.033 A 
HETATM   14  C   UNL     1       6.179  30.794  58.014  1.00  0.00     0.009 A 
HETATM   15  C   UNL     1       7.095  31.485  58.806  1.00  0.00     0.003 A 
HETATM   16  C   UNL     1       8.449  31.166  58.739  1.00  0.00     0.037 A 
HETATM   17  C   UNL     1       8.899  30.151  57.892  1.00  0.00     0.068 A 
HETATM   18  C   UNL     1       7.979  29.468  57.093  1.00  0.00     0.046 A 
BRANCH  17  19
HETATM   19  O   UNL     1      10.248  29.927  57.937  1.00  0.00    -0.356 OA
HETATM   20  C   UNL     1      10.881  29.583  56.711  1.00  0.00     0.210 C 
ENDBRANCH  17  19
ENDBRANCH  11  13
ENDBRANCH   9  11
ENDBRANCH   6   7
BRANCH   1  21
HETATM   21  O   UNL     1       5.881  25.781  53.435  1.00  0.00    -0.348 OA
BRANCH  21  22
HETATM   22  C   UNL     1       6.230  25.285  52.125  1.00  0.00     0.201 C 
BRANCH  22  23
HETATM   23  C   UNL     1       5.341  25.922  51.058  1.00  0.00     0.193 C 
BRANCH  23  24
HETATM   24  O   UNL     1       4.964  27.241  51.468  1.00  0.00    -0.394 OA
HETATM   25  C   UNL     1       5.217  28.196  50.447  1.00  0.00     0.201 C 
ENDBRANCH  23  24
ENDBRANCH  22  23
ENDBRANCH  21  22
ENDBRANCH   1  21
BRANCH   3  26
HETATM   26  C   UNL     1       8.128  21.655  54.568  1.00  0.00     0.010 A 
HETATM   27  C   UNL     1       8.185  21.040  53.295  1.00  0.00     0.152 A 
HETATM   28  N   UNL     1       8.782  19.846  53.321  1.00  0.00    -0.187 NA
HETATM   29  N   UNL     1       9.108  19.687  54.613  1.00  0.00    -0.289 N 
HETATM   30  H   UNL     1       9.579  18.831  54.888  1.00  0.00     0.188 HD
HETATM   31  C   UNL     1       8.743  20.742  55.399  1.00  0.00     0.123 A 
ENDBRANCH   3  26
TORSDOF 9
ENDMDL
MODEL 5
REMARK VINA RESULT:      -7.8      3.307      6.959
REMARK  9 active torsions:
REMARK  status: ('A' for Active; 'I' for Inactive)
REMARK    1  A    between atoms: O_2  and  C_3 
REMARK    2  A    between atoms: C_3  and  C_4 
REMARK    3  A    between atoms: C_4  and  O_5 
REMARK    4  A    between atoms: O_5  and  C_6 
REMARK    5  A    between atoms: C_8  and  C_25 
REMARK    6  A    between atoms: C_11  and  C_12 
REMARK       I    between atoms: C_12  and  N_14 
REMARK    7  A    between atoms: N_14  and  C_15 
REMARK    8  A    between atoms: C_15  and  C_17 
REMARK    9  A    between atoms: C_21  and  O_22 
ROOT
HETATM    1  C   UNL     1       6.931  25.296  54.992  1.00  0.00     0.085 A 
HETATM    2  C   UNL     1       7.397  24.049  55.426  1.00  0.00     0.050 A 
HETATM    3  C   UNL     1       7.704  23.038  54.502  1.00  0.00    -0.020 A 
HETATM    4  C   UNL     1       7.530  23.302  53.136  1.00  0.00     0.013 A 
HETATM    5  C   UNL     1       7.093  24.557  52.701  1.00  0.00     0.021 A 
HETATM    6  C   UNL     1       6.821  25.575  53.624  1.00  0.00     0.065 A 
ENDROOT
BRANCH   6   7
HETATM    7  C   UNL     1       6.464  26.911  53.074  1.00  0.00     0.255 C 
HETATM    8  O   UNL     1       7.165  27.884  53.329  1.00  0.00    -0.268 OA
HETATM    9  N   UNL     1       5.305  26.973  52.335  1.00  0.00    -0.349 N 
HETATM   10  H   UNL     1       4.851  26.103  52.081  1.00  0.00     0.163 HD
BRANCH   9  11
HETATM   11  C   UNL     1       4.844  28.195  51.701  1.00  0.00     0.114 C 
HETATM   12  C   UNL     1       3.515  28.636  52.318  1.00  0.00     0.037 C 
BRANCH  11  13
HETATM   13  C   UNL     1       4.781  27.999  50.197  1.00  0.00    -0.033 A 
HETATM   14  C   UNL     1       4.664  26.699  49.681  1.00  0.00     0.009 A 
HETATM   15  C   UNL     1       4.588  26.484  48.306  1.00  0.00     0.003 A 
HETATM   16  C   UNL     1       4.610  27.569  47.432  1.00  0.00     0.037 A 
HETATM   17  C   UNL     1       4.696  28.873  47.922  1.00  0.00     0.068 A 
HETATM   18  C   UNL     1       4.781  29.084  49.300  1.00  0.00     0.046 A 
BRANCH  17  19
HETATM   19  O   UNL     1       4.688  29.845  46.959  1.00  0.00    -0.356 OA
HETATM   20  C   UNL     1       3.426  30.415  46.633  1.00  0.00     0.210 C 
ENDBRANCH  17  19
ENDBRANCH  11  13
ENDBRANCH   9  11
ENDBRANCH   6   7
BRANCH   1  21
HETATM   21  O   UNL     1       6.653  26.218  55.968  1.00  0.00    -0.348 OA
BRANCH  21  22
HETATM   22  C   UNL     1       7.700  26.278  56.960  1.00  0.00     0.201 C 
BRANCH  22  23
HETATM   23  C   UNL     1       8.268  27.693  57.052  1.00  0.00     0.193 C 
BRANCH  23  24
HETATM   24  O   UNL     1       7.969  28.251  58.337  1.00  0.00    -0.394 OA
HETATM   25  C   UNL     1       7.746  29.652  58.258  1.00  0.00     0.201 C 
ENDBRANCH  23  24
ENDBRANCH  22  23
ENDBRANCH  21  22
ENDBRANCH   1  21
BRANCH   3  26
HETATM   26  C   UNL     1       8.218  21.758  54.961  1.00  0.00     0.010 A 
HETATM   27  C   UNL     1       8.487  21.283  56.267  1.00  0.00     0.152 A 
HETATM   28  N   UNL     1       8.963  20.036  56.278  1.00  0.00    -0.187 NA
HETATM   29  N   UNL     1       9.007  19.705  54.978  1.00  0.00    -0.289 N 
HETATM   30  H   UNL     1       9.350  18.783  54.728  1.00  0.00     0.188 HD
HETATM   31  C   UNL     1       8.569  20.699  54.150  1.00  0.00     0.123 A 
ENDBRANCH   3  26
TORSDOF 9
ENDMDL
MODEL 6
REMARK VINA RESULT:      -7.5      4.788     10.442
REMARK  9 active torsions:
REMARK  status: ('A' for Active; 'I' for Inactive)
REMARK    1  A    between atoms: O_2  and  C_3 
REMARK    2  A    between atoms: C_3  and  C_4 
REMARK    3  A    between atoms: C_4  and  O_5 
REMARK    4  A    between atoms: O_5  and  C_6 
REMARK    5  A    between atoms: C_8  and  C_25 
REMARK    6  A    between atoms: C_11  and  C_12 
REMARK       I    between atoms: C_12  and  N_14 
REMARK    7  A    between atoms: N_14  and  C_15 
REMARK    8  A    between atoms: C_15  and  C_17 
REMARK    9  A    between atoms: C_21  and  O_22 
ROOT
HETATM    1  C   UNL     1       6.701  32.378  61.287  1.00  0.00     0.085 A 
HETATM    2  C   UNL     1       6.041  33.332  62.071  1.00  0.00     0.050 A 
HETATM    3  C   UNL     1       6.536  33.687  63.335  1.00  0.00    -0.020 A 
HETATM    4  C   UNL     1       7.702  33.063  63.798  1.00  0.00     0.013 A 
HETATM    5  C   UNL     1       8.379  32.131  63.003  1.00  0.00     0.021 A 
HETATM    6  C   UNL     1       7.900  31.805  61.727  1.00  0.00     0.065 A 
ENDROOT
BRANCH   6   7
HETATM    7  C   UNL     1       8.735  30.887  60.905  1.00  0.00     0.255 C 
HETATM    8  O   UNL     1       9.398  30.012  61.450  1.00  0.00    -0.268 OA
HETATM    9  N   UNL     1       8.745  31.126  59.550  1.00  0.00    -0.349 N 
HETATM   10  H   UNL     1       8.082  31.795  59.177  1.00  0.00     0.163 HD
BRANCH   9  11
HETATM   11  C   UNL     1       9.480  30.295  58.613  1.00  0.00     0.114 C 
HETATM   12  C   UNL     1      10.558  31.122  57.912  1.00  0.00     0.037 C 
BRANCH  11  13
HETATM   13  C   UNL     1       8.510  29.624  57.656  1.00  0.00    -0.033 A 
HETATM   14  C   UNL     1       7.197  29.367  58.081  1.00  0.00     0.009 A 
HETATM   15  C   UNL     1       6.277  28.767  57.222  1.00  0.00     0.003 A 
HETATM   16  C   UNL     1       6.655  28.433  55.924  1.00  0.00     0.037 A 
HETATM   17  C   UNL     1       7.947  28.705  55.468  1.00  0.00     0.068 A 
HETATM   18  C   UNL     1       8.869  29.298  56.335  1.00  0.00     0.046 A 
BRANCH  17  19
HETATM   19  O   UNL     1       8.181  28.346  54.169  1.00  0.00    -0.356 OA
HETATM   20  C   UNL     1       7.258  27.439  53.579  1.00  0.00     0.210 C 
ENDBRANCH  17  19
ENDBRANCH  11  13
ENDBRANCH   9  11
ENDBRANCH   6   7
BRANCH   1  21
HETATM   21  O   UNL     1       6.139  32.093  60.068  1.00  0.00    -0.348 OA
BRANCH  21  22
HETATM   22  C   UNL     1       4.965  32.897  59.821  1.00  0.00     0.201 C 
BRANCH  22  23
HETATM   23  C   UNL     1       3.830  32.032  59.275  1.00  0.00     0.193 C 
BRANCH  23  24
HETATM   24  O   UNL     1       3.149  32.732  58.228  1.00  0.00    -0.394 OA
HETATM   25  C   UNL     1       3.564  32.283  56.945  1.00  0.00     0.201 C 
ENDBRANCH  23  24
ENDBRANCH  22  23
ENDBRANCH  21  22
ENDBRANCH   1  21
BRANCH   3  26
HETATM   26  C   UNL     1       5.862  34.702  64.127  1.00  0.00     0.010 A 
HETATM   27  C   UNL     1       5.132  34.599  65.335  1.00  0.00     0.152 A 
HETATM   28  N   UNL     1       4.654  35.773  65.755  1.00  0.00    -0.187 NA
HETATM   29  N   UNL     1       5.071  36.635  64.815  1.00  0.00    -0.289 N 
HETATM   30  H   UNL     1       4.819  37.614  64.915  1.00  0.00     0.188 HD
HETATM   31  C   UNL     1       5.800  36.046  63.822  1.00  0.00     0.123 A 
ENDBRANCH   3  26
TORSDOF 9
ENDMDL
MODEL 7
REMARK VINA RESULT:      -7.3      2.999      8.398
REMARK  9 active torsions:
REMARK  status: ('A' for Active; 'I' for Inactive)
REMARK    1  A    between atoms: O_2  and  C_3 
REMARK    2  A    between atoms: C_3  and  C_4 
REMARK    3  A    between atoms: C_4  and  O_5 
REMARK    4  A    between atoms: O_5  and  C_6 
REMARK    5  A    between atoms: C_8  and  C_25 
REMARK    6  A    between atoms: C_11  and  C_12 
REMARK       I    between atoms: C_12  and  N_14 
REMARK    7  A    between atoms: N_14  and  C_15 
REMARK    8  A    between atoms: C_15  and  C_17 
REMARK    9  A    between atoms: C_21  and  O_22 
ROOT
HETATM    1  C   UNL     1       6.021  29.409  55.736  1.00  0.00     0.085 A 
HETATM    2  C   UNL     1       5.934  30.378  56.744  1.00  0.00     0.050 A 
HETATM    3  C   UNL     1       6.723  30.282  57.899  1.00  0.00    -0.020 A 
HETATM    4  C   UNL     1       7.598  29.194  58.027  1.00  0.00     0.013 A 
HETATM    5  C   UNL     1       7.707  28.242  57.007  1.00  0.00     0.021 A 
HETATM    6  C   UNL     1       6.942  28.360  55.839  1.00  0.00     0.065 A 
ENDROOT
BRANCH   6   7
HETATM    7  C   UNL     1       7.196  27.366  54.761  1.00  0.00     0.255 C 
HETATM    8  O   UNL     1       7.869  27.681  53.786  1.00  0.00    -0.268 OA
HETATM    9  N   UNL     1       6.593  26.139  54.913  1.00  0.00    -0.349 N 
HETATM   10  H   UNL     1       6.149  25.930  55.799  1.00  0.00     0.163 HD
BRANCH   9  11
HETATM   11  C   UNL     1       6.775  25.054  53.965  1.00  0.00     0.114 C 
HETATM   12  C   UNL     1       5.459  24.764  53.242  1.00  0.00     0.037 C 
BRANCH  11  13
HETATM   13  C   UNL     1       7.355  23.846  54.678  1.00  0.00    -0.033 A 
HETATM   14  C   UNL     1       7.698  23.950  56.035  1.00  0.00     0.009 A 
HETATM   15  C   UNL     1       8.218  22.856  56.724  1.00  0.00     0.003 A 
HETATM   16  C   UNL     1       8.387  21.639  56.067  1.00  0.00     0.037 A 
HETATM   17  C   UNL     1       8.027  21.501  54.725  1.00  0.00     0.068 A 
HETATM   18  C   UNL     1       7.514  22.603  54.036  1.00  0.00     0.046 A 
BRANCH  17  19
HETATM   19  O   UNL     1       8.225  20.250  54.208  1.00  0.00    -0.356 OA
HETATM   20  C   UNL     1       8.728  20.178  52.879  1.00  0.00     0.210 C 
ENDBRANCH  17  19
ENDBRANCH  11  13
ENDBRANCH   9  11
ENDBRANCH   6   7
BRANCH   1  21
HETATM   21  O   UNL     1       5.206  29.585  54.646  1.00  0.00    -0.348 OA
BRANCH  21  22
HETATM   22  C   UNL     1       4.078  28.686  54.673  1.00  0.00     0.201 C 
BRANCH  22  23
HETATM   23  C   UNL     1       3.761  28.184  53.265  1.00  0.00     0.193 C 
BRANCH  23  24
HETATM   24  O   UNL     1       4.596  28.855  52.314  1.00  0.00    -0.394 OA
HETATM   25  C   UNL     1       5.194  27.938  51.407  1.00  0.00     0.201 C 
ENDBRANCH  23  24
ENDBRANCH  22  23
ENDBRANCH  21  22
ENDBRANCH   1  21
BRANCH   3  26
HETATM   26  C   UNL     1       6.649  31.310  58.924  1.00  0.00     0.010 A 
HETATM   27  C   UNL     1       7.505  31.591  60.017  1.00  0.00     0.152 A 
HETATM   28  N   UNL     1       7.090  32.629  60.747  1.00  0.00    -0.187 NA
HETATM   29  N   UNL     1       5.964  33.017  60.130  1.00  0.00    -0.289 N 
HETATM   30  H   UNL     1       5.453  33.805  60.514  1.00  0.00     0.188 HD
HETATM   31  C   UNL     1       5.658  32.264  59.033  1.00  0.00     0.123 A 
ENDBRANCH   3  26
TORSDOF 9
ENDMDL
MODEL 8
REMARK VINA RESULT:      -7.3      2.054      3.709
REMARK  9 active torsions:
REMARK  status: ('A' for Active; 'I' for Inactive)
REMARK    1  A    between atoms: O_2  and  C_3 
REMARK    2  A    between atoms: C_3  and  C_4 
REMARK    3  A    between atoms: C_4  and  O_5 
REMARK    4  A    between atoms: O_5  and  C_6 
REMARK    5  A    between atoms: C_8  and  C_25 
REMARK    6  A    between atoms: C_11  and  C_12 
REMARK       I    between atoms: C_12  and  N_14 
REMARK    7  A    between atoms: N_14  and  C_15 
REMARK    8  A    between atoms: C_15  and  C_17 
REMARK    9  A    between atoms: C_21  and  O_22 
ROOT
HETATM    1  C   UNL     1       7.088  26.986  56.590  1.00  0.00     0.085 A 
HETATM    2  C   UNL     1       7.812  25.860  56.178  1.00  0.00     0.050 A 
HETATM    3  C   UNL     1       7.250  24.935  55.286  1.00  0.00    -0.020 A 
HETATM    4  C   UNL     1       5.948  25.158  54.819  1.00  0.00     0.013 A 
HETATM    5  C   UNL     1       5.235  26.298  55.207  1.00  0.00     0.021 A 
HETATM    6  C   UNL     1       5.812  27.238  56.071  1.00  0.00     0.065 A 
ENDROOT
BRANCH   6   7
HETATM    7  C   UNL     1       5.030  28.473  56.349  1.00  0.00     0.255 C 
HETATM    8  O   UNL     1       3.827  28.499  56.114  1.00  0.00    -0.268 OA
HETATM    9  N   UNL     1       5.744  29.551  56.817  1.00  0.00    -0.349 N 
HETATM   10  H   UNL     1       6.709  29.405  57.088  1.00  0.00     0.163 HD
BRANCH   9  11
HETATM   11  C   UNL     1       5.118  30.812  57.170  1.00  0.00     0.114 C 
HETATM   12  C   UNL     1       5.046  31.724  55.944  1.00  0.00     0.037 C 
BRANCH  11  13
HETATM   13  C   UNL     1       5.848  31.434  58.347  1.00  0.00    -0.033 A 
HETATM   14  C   UNL     1       5.125  32.197  59.276  1.00  0.00     0.009 A 
HETATM   15  C   UNL     1       5.762  32.768  60.377  1.00  0.00     0.003 A 
HETATM   16  C   UNL     1       7.126  32.568  60.570  1.00  0.00     0.037 A 
HETATM   17  C   UNL     1       7.862  31.788  59.676  1.00  0.00     0.068 A 
HETATM   18  C   UNL     1       7.222  31.225  58.569  1.00  0.00     0.046 A 
BRANCH  17  19
HETATM   19  O   UNL     1       9.187  31.655  59.993  1.00  0.00    -0.356 OA
HETATM   20  C   UNL     1       9.535  31.794  61.365  1.00  0.00     0.210 C 
ENDBRANCH  17  19
ENDBRANCH  11  13
ENDBRANCH   9  11
ENDBRANCH   6   7
BRANCH   1  21
HETATM   21  O   UNL     1       7.719  27.831  57.468  1.00  0.00    -0.348 OA
BRANCH  21  22
HETATM   22  C   UNL     1       9.039  28.190  57.009  1.00  0.00     0.201 C 
BRANCH  22  23
HETATM   23  C   UNL     1       8.954  29.255  55.917  1.00  0.00     0.193 C 
BRANCH  23  24
HETATM   24  O   UNL     1      10.194  29.968  55.840  1.00  0.00    -0.394 OA
HETATM   25  C   UNL     1      10.840  30.027  57.104  1.00  0.00     0.201 C 
ENDBRANCH  23  24
ENDBRANCH  22  23
ENDBRANCH  21  22
ENDBRANCH   1  21
BRANCH   3  26
HETATM   26  C   UNL     1       8.022  23.787  54.839  1.00  0.00     0.010 A 
HETATM   27  C   UNL     1       8.042  23.114  53.593  1.00  0.00     0.152 A 
HETATM   28  N   UNL     1       8.893  22.085  53.573  1.00  0.00    -0.187 NA
HETATM   29  N   UNL     1       9.419  22.089  54.807  1.00  0.00    -0.289 N 
HETATM   30  H   UNL     1      10.105  21.378  55.040  1.00  0.00     0.188 HD
HETATM   31  C   UNL     1       8.935  23.089  55.601  1.00  0.00     0.123 A 
ENDBRANCH   3  26
TORSDOF 9
ENDMDL
MODEL 9
REMARK VINA RESULT:      -7.2      2.761      8.785
REMARK  9 active torsions:
REMARK  status: ('A' for Active; 'I' for Inactive)
REMARK    1  A    between atoms: O_2  and  C_3 
REMARK    2  A    between atoms: C_3  and  C_4 
REMARK    3  A    between atoms: C_4  and  O_5 
REMARK    4  A    between atoms: O_5  and  C_6 
REMARK    5  A    between atoms: C_8  and  C_25 
REMARK    6  A    between atoms: C_11  and  C_12 
REMARK       I    between atoms: C_12  and  N_14 
REMARK    7  A    between atoms: N_14  and  C_15 
REMARK    8  A    between atoms: C_15  and  C_17 
REMARK    9  A    between atoms: C_21  and  O_22 
ROOT
HETATM    1  C   UNL     1       6.236  29.073  55.928  1.00  0.00     0.085 A 
HETATM    2  C   UNL     1       5.736  29.885  56.955  1.00  0.00     0.050 A 
HETATM    3  C   UNL     1       4.545  30.605  56.782  1.00  0.00    -0.020 A 
HETATM    4  C   UNL     1       3.867  30.498  55.560  1.00  0.00     0.013 A 
HETATM    5  C   UNL     1       4.349  29.664  54.545  1.00  0.00     0.021 A 
HETATM    6  C   UNL     1       5.521  28.920  54.734  1.00  0.00     0.065 A 
ENDROOT
BRANCH   6   7
HETATM    7  C   UNL     1       5.907  27.978  53.649  1.00  0.00     0.255 C 
HETATM    8  O   UNL     1       6.175  28.409  52.533  1.00  0.00    -0.268 OA
HETATM    9  N   UNL     1       5.885  26.640  53.970  1.00  0.00    -0.349 N 
HETATM   10  H   UNL     1       5.763  26.383  54.942  1.00  0.00     0.163 HD
BRANCH   9  11
HETATM   11  C   UNL     1       6.273  25.602  53.031  1.00  0.00     0.114 C 
HETATM   12  C   UNL     1       5.035  25.045  52.327  1.00  0.00     0.037 C 
BRANCH  11  13
HETATM   13  C   UNL     1       7.092  24.544  53.749  1.00  0.00    -0.033 A 
HETATM   14  C   UNL     1       7.631  24.836  55.011  1.00  0.00     0.009 A 
HETATM   15  C   UNL     1       8.375  23.881  55.704  1.00  0.00     0.003 A 
HETATM   16  C   UNL     1       8.574  22.619  55.149  1.00  0.00     0.037 A 
HETATM   17  C   UNL     1       8.023  22.296  53.907  1.00  0.00     0.068 A 
HETATM   18  C   UNL     1       7.286  23.258  53.212  1.00  0.00     0.046 A 
BRANCH  17  19
HETATM   19  O   UNL     1       8.277  21.018  53.487  1.00  0.00    -0.356 OA
HETATM   20  C   UNL     1       8.794  20.116  54.457  1.00  0.00     0.210 C 
ENDBRANCH  17  19
ENDBRANCH  11  13
ENDBRANCH   9  11
ENDBRANCH   6   7
BRANCH   1  21
HETATM   21  O   UNL     1       7.410  28.413  56.188  1.00  0.00    -0.348 OA
BRANCH  21  22
HETATM   22  C   UNL     1       8.559  29.251  55.945  1.00  0.00     0.201 C 
BRANCH  22  23
HETATM   23  C   UNL     1       9.682  28.917  56.926  1.00  0.00     0.193 C 
BRANCH  23  24
HETATM   24  O   UNL     1      10.731  29.883  56.807  1.00  0.00    -0.394 OA
HETATM   25  C   UNL     1      10.547  30.966  57.710  1.00  0.00     0.201 C 
ENDBRANCH  23  24
ENDBRANCH  22  23
ENDBRANCH  21  22
ENDBRANCH   1  21
BRANCH   3  26
HETATM   26  C   UNL     1       4.018  31.419  57.864  1.00  0.00     0.010 A 
HETATM   27  C   UNL     1       3.377  31.051  59.072  1.00  0.00     0.152 A 
HETATM   28  N   UNL     1       3.029  32.104  59.817  1.00  0.00    -0.187 NA
HETATM   29  N   UNL     1       3.438  33.153  59.088  1.00  0.00    -0.289 N 
HETATM   30  H   UNL     1       3.274  34.085  59.453  1.00  0.00     0.188 HD
HETATM   31  C   UNL     1       4.039  32.798  57.914  1.00  0.00     0.123 A 
ENDBRANCH   3  26
TORSDOF 9
ENDMDL
MODEL 10
REMARK VINA RESULT:      -7.1      5.467     10.509
REMARK  9 active torsions:
REMARK  status: ('A' for Active; 'I' for Inactive)
REMARK    1  A    between atoms: O_2  and  C_3 
REMARK    2  A    between atoms: C_3  and  C_4 
REMARK    3  A    between atoms: C_4  and  O_5 
REMARK    4  A    between atoms: O_5  and  C_6 
REMARK    5  A    between atoms: C_8  and  C_25 
REMARK    6  A    between atoms: C_11  and  C_12 
REMARK       I    between atoms: C_12  and  N_14 
REMARK    7  A    between atoms: N_14  and  C_15 
REMARK    8  A    between atoms: C_15  and  C_17 
REMARK    9  A    between atoms: C_21  and  O_22 
ROOT
HETATM    1  C   UNL     1       4.585  32.581  61.474  1.00  0.00     0.085 A 
HETATM    2  C   UNL     1       4.617  32.962  62.822  1.00  0.00     0.050 A 
HETATM    3  C   UNL     1       5.837  33.075  63.505  1.00  0.00    -0.020 A 
HETATM    4  C   UNL     1       7.023  32.794  62.812  1.00  0.00     0.013 A 
HETATM    5  C   UNL     1       6.993  32.442  61.458  1.00  0.00     0.021 A 
HETATM    6  C   UNL     1       5.776  32.364  60.770  1.00  0.00     0.065 A 
ENDROOT
BRANCH   6   7
HETATM    7  C   UNL     1       5.840  32.088  59.309  1.00  0.00     0.255 C 
HETATM    8  O   UNL     1       6.421  32.869  58.565  1.00  0.00    -0.268 OA
HETATM    9  N   UNL     1       5.176  30.964  58.875  1.00  0.00    -0.349 N 
HETATM   10  H   UNL     1       4.821  30.318  59.570  1.00  0.00     0.163 HD
BRANCH   9  11
HETATM   11  C   UNL     1       5.178  30.541  57.486  1.00  0.00     0.114 C 
HETATM   12  C   UNL     1       3.764  30.146  57.056  1.00  0.00     0.037 C 
BRANCH  11  13
HETATM   13  C   UNL     1       6.203  29.438  57.289  1.00  0.00    -0.033 A 
HETATM   14  C   UNL     1       5.761  28.129  57.038  1.00  0.00     0.009 A 
HETATM   15  C   UNL     1       6.676  27.097  56.837  1.00  0.00     0.003 A 
HETATM   16  C   UNL     1       8.042  27.364  56.869  1.00  0.00     0.037 A 
HETATM   17  C   UNL     1       8.507  28.662  57.088  1.00  0.00     0.068 A 
HETATM   18  C   UNL     1       7.587  29.693  57.298  1.00  0.00     0.046 A 
BRANCH  17  19
HETATM   19  O   UNL     1       9.869  28.790  57.075  1.00  0.00    -0.356 OA
HETATM   20  C   UNL     1      10.414  29.745  56.174  1.00  0.00     0.210 C 
ENDBRANCH  17  19
ENDBRANCH  11  13
ENDBRANCH   9  11
ENDBRANCH   6   7
BRANCH   1  21
HETATM   21  O   UNL     1       3.345  32.492  60.893  1.00  0.00    -0.348 OA
BRANCH  21  22
HETATM   22  C   UNL     1       3.006  33.697  60.174  1.00  0.00     0.201 C 
BRANCH  22  23
HETATM   23  C   UNL     1       1.825  34.402  60.839  1.00  0.00     0.193 C 
BRANCH  23  24
HETATM   24  O   UNL     1       0.784  34.610  59.878  1.00  0.00    -0.394 OA
HETATM   25  C   UNL     1       0.958  35.834  59.178  1.00  0.00     0.201 C 
ENDBRANCH  23  24
ENDBRANCH  22  23
ENDBRANCH  21  22
ENDBRANCH   1  21
BRANCH   3  26
HETATM   26  C   UNL     1       5.862  33.503  64.894  1.00  0.00     0.010 A 
HETATM   27  C   UNL     1       4.807  33.778  65.796  1.00  0.00     0.152 A 
HETATM   28  N   UNL     1       5.239  34.157  67.001  1.00  0.00    -0.187 NA
HETATM   29  N   UNL     1       6.575  34.132  66.877  1.00  0.00    -0.289 N 
HETATM   30  H   UNL     1       7.138  34.393  67.680  1.00  0.00     0.188 HD
HETATM   31  C   UNL     1       6.998  33.744  65.638  1.00  0.00     0.123 A 
ENDBRANCH   3  26
TORSDOF 9
ENDMDL
