MODEL 1
REMARK VINA RESULT:      -6.9      0.000      0.000
REMARK  4 active torsions:
REMARK  status: ('A' for Active; 'I' for Inactive)
REMARK    1  A    between atoms: O_2  and  C_3 
REMARK    2  A    between atoms: C_4  and  C_5 
REMARK    3  A    between atoms: C_9  and  N_10 
REMARK    4  A    between atoms: C_13  and  C_14 
ROOT
HETATM    1  C   UNL     1       5.512  32.817  63.171  1.00  0.00     0.167 C 
HETATM    2  N   UNL     1       6.648  32.464  62.322  1.00  0.00    -0.074 N 
HETATM    3  C   UNL     1       6.544  32.025  61.028  1.00  0.00     0.736 A 
HETATM    4  N   UNL     1       7.745  31.816  60.554  1.00  0.00     0.131 NA
HETATM    5  C   UNL     1       8.549  32.087  61.621  1.00  0.00     0.753 A 
HETATM    6  N   UNL     1       7.930  32.493  62.728  1.00  0.00     0.037 NA
HETATM    7  N   UNL     1       5.349  31.859  60.431  1.00  0.00    -0.214 N 
HETATM    8  C   UNL     1       4.115  32.292  61.075  1.00  0.00     0.135 C 
HETATM    9  C   UNL     1       4.250  32.125  62.605  1.00  0.00     0.063 C 
HETATM   10  H   UNL     1       5.318  31.664  59.436  1.00  0.00     0.178 HD
ENDROOT
BRANCH   1  11
HETATM   11  C   UNL     1       5.349  34.324  63.396  1.00  0.00     0.001 A 
HETATM   12  C   UNL     1       4.619  34.789  64.514  1.00  0.00     0.076 A 
HETATM   13  C   UNL     1       4.447  36.165  64.722  1.00  0.00     0.037 A 
HETATM   14  C   UNL     1       4.986  37.089  63.828  1.00  0.00     0.003 A 
HETATM   15  C   UNL     1       5.712  36.648  62.730  1.00  0.00     0.001 A 
HETATM   16  C   UNL     1       5.896  35.281  62.519  1.00  0.00     0.012 A 
BRANCH  12  17
HETATM   17  O   UNL     1       4.133  33.825  65.361  1.00  0.00    -0.355 OA
HETATM   18  C   UNL     1       4.474  33.943  66.738  1.00  0.00     0.210 C 
ENDBRANCH  12  17
ENDBRANCH   1  11
BRANCH   8  19
HETATM   19  C   UNL     1       3.657  33.675  60.628  1.00  0.00    -0.035 A 
HETATM   20  C   UNL     1       4.236  34.361  59.546  1.00  0.00     0.010 A 
HETATM   21  C   UNL     1       3.807  35.643  59.192  1.00  0.00     0.019 A 
HETATM   22  C   UNL     1       2.783  36.254  59.909  1.00  0.00     0.011 A 
HETATM   23 BR   UNL     1       2.220  37.997  59.446  1.00  0.00    -0.051 Br
HETATM   24  C   UNL     1       2.173  35.588  60.967  1.00  0.00     0.019 A 
HETATM   25  C   UNL     1       2.602  34.305  61.316  1.00  0.00     0.010 A 
ENDBRANCH   8  19
BRANCH   5  26
HETATM   26  N   UNL     1       9.864  31.965  61.472  1.00  0.00    -0.229 N 
HETATM   27  H   UNL     1      10.185  31.273  60.809  1.00  0.00     0.174 HD
HETATM   28  H   UNL     1      10.408  32.816  61.504  1.00  0.00     0.174 HD
ENDBRANCH   5  26
TORSDOF 4
ENDMDL
MODEL 2
REMARK VINA RESULT:      -6.7      2.653      3.958
REMARK  4 active torsions:
REMARK  status: ('A' for Active; 'I' for Inactive)
REMARK    1  A    between atoms: O_2  and  C_3 
REMARK    2  A    between atoms: C_4  and  C_5 
REMARK    3  A    between atoms: C_9  and  N_10 
REMARK    4  A    between atoms: C_13  and  C_14 
ROOT
HETATM    1  C   UNL     1       3.510  33.071  63.164  1.00  0.00     0.167 C 
HETATM    2  N   UNL     1       3.378  32.790  61.736  1.00  0.00    -0.074 N 
HETATM    3  C   UNL     1       2.827  33.650  60.822  1.00  0.00     0.736 A 
HETATM    4  N   UNL     1       2.880  33.099  59.637  1.00  0.00     0.131 NA
HETATM    5  C   UNL     1       3.420  31.873  59.890  1.00  0.00     0.753 A 
HETATM    6  N   UNL     1       3.749  31.633  61.158  1.00  0.00     0.037 NA
HETATM    7  N   UNL     1       2.331  34.847  61.187  1.00  0.00    -0.214 N 
HETATM    8  C   UNL     1       2.500  35.355  62.542  1.00  0.00     0.135 C 
HETATM    9  C   UNL     1       2.491  34.172  63.537  1.00  0.00     0.063 C 
HETATM   10  H   UNL     1       2.056  35.507  60.467  1.00  0.00     0.178 HD
ENDROOT
BRANCH   1  11
HETATM   11  C   UNL     1       4.946  33.374  63.608  1.00  0.00     0.001 A 
HETATM   12  C   UNL     1       5.229  33.561  64.980  1.00  0.00     0.076 A 
HETATM   13  C   UNL     1       6.534  33.856  65.398  1.00  0.00     0.037 A 
HETATM   14  C   UNL     1       7.565  33.975  64.467  1.00  0.00     0.003 A 
HETATM   15  C   UNL     1       7.305  33.785  63.117  1.00  0.00     0.001 A 
HETATM   16  C   UNL     1       6.011  33.482  62.692  1.00  0.00     0.012 A 
BRANCH  12  17
HETATM   17  O   UNL     1       4.169  33.412  65.841  1.00  0.00    -0.355 OA
HETATM   18  C   UNL     1       4.151  34.245  66.994  1.00  0.00     0.210 C 
ENDBRANCH  12  17
ENDBRANCH   1  11
BRANCH   8  19
HETATM   19  C   UNL     1       3.691  36.294  62.688  1.00  0.00    -0.035 A 
HETATM   20  C   UNL     1       4.152  36.759  63.932  1.00  0.00     0.010 A 
HETATM   21  C   UNL     1       5.229  37.646  64.017  1.00  0.00     0.019 A 
HETATM   22  C   UNL     1       5.867  38.075  62.856  1.00  0.00     0.011 A 
HETATM   23 BR   UNL     1       7.306  39.294  62.969  1.00  0.00    -0.051 Br
HETATM   24  C   UNL     1       5.450  37.610  61.614  1.00  0.00     0.019 A 
HETATM   25  C   UNL     1       4.375  36.720  61.533  1.00  0.00     0.010 A 
ENDBRANCH   8  19
BRANCH   5  26
HETATM   26  N   UNL     1       3.610  31.040  58.872  1.00  0.00    -0.229 N 
HETATM   27  H   UNL     1       2.791  30.565  58.514  1.00  0.00     0.174 HD
HETATM   28  H   UNL     1       4.286  31.318  58.174  1.00  0.00     0.174 HD
ENDBRANCH   5  26
TORSDOF 4
ENDMDL
MODEL 3
REMARK VINA RESULT:      -6.6     10.014     12.474
REMARK  4 active torsions:
REMARK  status: ('A' for Active; 'I' for Inactive)
REMARK    1  A    between atoms: O_2  and  C_3 
REMARK    2  A    between atoms: C_4  and  C_5 
REMARK    3  A    between atoms: C_9  and  N_10 
REMARK    4  A    between atoms: C_13  and  C_14 
ROOT
HETATM    1  C   UNL     1       6.859  27.694  54.067  1.00  0.00     0.167 C 
HETATM    2  N   UNL     1       5.686  27.661  53.195  1.00  0.00    -0.074 N 
HETATM    3  C   UNL     1       5.596  26.927  52.041  1.00  0.00     0.736 A 
HETATM    4  N   UNL     1       4.413  27.108  51.516  1.00  0.00     0.131 NA
HETATM    5  C   UNL     1       3.835  28.011  52.358  1.00  0.00     0.753 A 
HETATM    6  N   UNL     1       4.569  28.381  53.406  1.00  0.00     0.037 NA
HETATM    7  N   UNL     1       6.622  26.176  51.600  1.00  0.00    -0.214 N 
HETATM    8  C   UNL     1       7.819  25.978  52.407  1.00  0.00     0.135 C 
HETATM    9  C   UNL     1       8.089  27.251  53.242  1.00  0.00     0.063 C 
HETATM   10  H   UNL     1       6.471  25.545  50.819  1.00  0.00     0.178 HD
ENDROOT
BRANCH   1  11
HETATM   11  C   UNL     1       6.679  26.927  55.381  1.00  0.00     0.001 A 
HETATM   12  C   UNL     1       7.548  27.183  56.466  1.00  0.00     0.076 A 
HETATM   13  C   UNL     1       7.406  26.476  57.667  1.00  0.00     0.037 A 
HETATM   14  C   UNL     1       6.412  25.507  57.805  1.00  0.00     0.003 A 
HETATM   15  C   UNL     1       5.545  25.250  56.752  1.00  0.00     0.001 A 
HETATM   16  C   UNL     1       5.673  25.956  55.555  1.00  0.00     0.012 A 
BRANCH  12  17
HETATM   17  O   UNL     1       8.491  28.162  56.266  1.00  0.00    -0.355 OA
HETATM   18  C   UNL     1       8.903  28.905  57.407  1.00  0.00     0.210 C 
ENDBRANCH  12  17
ENDBRANCH   1  11
BRANCH   8  19
HETATM   19  C   UNL     1       7.792  24.686  53.216  1.00  0.00    -0.035 A 
HETATM   20  C   UNL     1       8.403  24.558  54.475  1.00  0.00     0.010 A 
HETATM   21  C   UNL     1       8.382  23.344  55.167  1.00  0.00     0.019 A 
HETATM   22  C   UNL     1       7.740  22.241  54.613  1.00  0.00     0.011 A 
HETATM   23 BR   UNL     1       7.734  20.593  55.536  1.00  0.00    -0.051 Br
HETATM   24  C   UNL     1       7.103  22.346  53.380  1.00  0.00     0.019 A 
HETATM   25  C   UNL     1       7.122  23.563  52.693  1.00  0.00     0.010 A 
ENDBRANCH   8  19
BRANCH   5  26
HETATM   26  N   UNL     1       2.598  28.421  52.099  1.00  0.00    -0.229 N 
HETATM   27  H   UNL     1       2.268  28.302  51.150  1.00  0.00     0.174 HD
HETATM   28  H   UNL     1       1.905  28.265  52.818  1.00  0.00     0.174 HD
ENDBRANCH   5  26
TORSDOF 4
ENDMDL
MODEL 4
REMARK VINA RESULT:      -5.9      3.691      5.899
REMARK  4 active torsions:
REMARK  status: ('A' for Active; 'I' for Inactive)
REMARK    1  A    between atoms: O_2  and  C_3 
REMARK    2  A    between atoms: C_4  and  C_5 
REMARK    3  A    between atoms: C_9  and  N_10 
REMARK    4  A    between atoms: C_13  and  C_14 
ROOT
HETATM    1  C   UNL     1       3.406  35.687  63.033  1.00  0.00     0.167 C 
HETATM    2  N   UNL     1       4.238  36.882  63.161  1.00  0.00    -0.074 N 
HETATM    3  C   UNL     1       5.220  37.048  64.103  1.00  0.00     0.736 A 
HETATM    4  N   UNL     1       5.780  38.217  63.928  1.00  0.00     0.131 NA
HETATM    5  C   UNL     1       5.062  38.753  62.901  1.00  0.00     0.753 A 
HETATM    6  N   UNL     1       4.108  37.977  62.390  1.00  0.00     0.037 NA
HETATM    7  N   UNL     1       5.485  36.102  65.023  1.00  0.00    -0.214 N 
HETATM    8  C   UNL     1       4.853  34.790  64.964  1.00  0.00     0.135 C 
HETATM    9  C   UNL     1       3.427  34.935  64.385  1.00  0.00     0.063 C 
HETATM   10  H   UNL     1       6.304  36.204  65.613  1.00  0.00     0.178 HD
ENDROOT
BRANCH   1  11
HETATM   11  C   UNL     1       3.758  34.810  61.826  1.00  0.00     0.001 A 
HETATM   12  C   UNL     1       2.754  34.023  61.217  1.00  0.00     0.076 A 
HETATM   13  C   UNL     1       3.066  33.204  60.123  1.00  0.00     0.037 A 
HETATM   14  C   UNL     1       4.369  33.150  59.628  1.00  0.00     0.003 A 
HETATM   15  C   UNL     1       5.364  33.923  60.211  1.00  0.00     0.001 A 
HETATM   16  C   UNL     1       5.061  34.749  61.294  1.00  0.00     0.012 A 
BRANCH  12  17
HETATM   17  O   UNL     1       1.492  34.141  61.745  1.00  0.00    -0.355 OA
HETATM   18  C   UNL     1       0.488  34.694  60.902  1.00  0.00     0.210 C 
ENDBRANCH  12  17
ENDBRANCH   1  11
BRANCH   8  19
HETATM   19  C   UNL     1       5.713  33.739  64.272  1.00  0.00    -0.035 A 
HETATM   20  C   UNL     1       5.180  32.574  63.693  1.00  0.00     0.010 A 
HETATM   21  C   UNL     1       6.009  31.620  63.098  1.00  0.00     0.019 A 
HETATM   22  C   UNL     1       7.386  31.822  63.063  1.00  0.00     0.011 A 
HETATM   23 BR   UNL     1       8.509  30.520  62.282  1.00  0.00    -0.051 Br
HETATM   24  C   UNL     1       7.938  32.979  63.604  1.00  0.00     0.019 A 
HETATM   25  C   UNL     1       7.105  33.933  64.195  1.00  0.00     0.010 A 
ENDBRANCH   8  19
BRANCH   5  26
HETATM   26  N   UNL     1       5.381  39.969  62.470  1.00  0.00    -0.229 N 
HETATM   27  H   UNL     1       5.117  40.199  61.520  1.00  0.00     0.174 HD
HETATM   28  H   UNL     1       5.299  40.726  63.135  1.00  0.00     0.174 HD
ENDBRANCH   5  26
TORSDOF 4
ENDMDL
MODEL 5
REMARK VINA RESULT:      -5.9      3.096      5.017
REMARK  4 active torsions:
REMARK  status: ('A' for Active; 'I' for Inactive)
REMARK    1  A    between atoms: O_2  and  C_3 
REMARK    2  A    between atoms: C_4  and  C_5 
REMARK    3  A    between atoms: C_9  and  N_10 
REMARK    4  A    between atoms: C_13  and  C_14 
ROOT
HETATM    1  C   UNL     1       2.816  35.300  62.414  1.00  0.00     0.167 C 
HETATM    2  N   UNL     1       4.028  35.870  63.000  1.00  0.00    -0.074 N 
HETATM    3  C   UNL     1       5.100  35.136  63.434  1.00  0.00     0.736 A 
HETATM    4  N   UNL     1       6.018  35.952  63.883  1.00  0.00     0.131 NA
HETATM    5  C   UNL     1       5.432  37.176  63.756  1.00  0.00     0.753 A 
HETATM    6  N   UNL     1       4.215  37.185  63.216  1.00  0.00     0.037 NA
HETATM    7  N   UNL     1       5.109  33.791  63.372  1.00  0.00    -0.214 N 
HETATM    8  C   UNL     1       4.048  33.058  62.693  1.00  0.00     0.135 C 
HETATM    9  C   UNL     1       2.714  33.821  62.855  1.00  0.00     0.063 C 
HETATM   10  H   UNL     1       5.970  33.294  63.576  1.00  0.00     0.178 HD
ENDROOT
BRANCH   1  11
HETATM   11  C   UNL     1       2.700  35.509  60.900  1.00  0.00     0.001 A 
HETATM   12  C   UNL     1       1.459  35.292  60.257  1.00  0.00     0.076 A 
HETATM   13  C   UNL     1       1.343  35.462  58.871  1.00  0.00     0.037 A 
HETATM   14  C   UNL     1       2.448  35.840  58.109  1.00  0.00     0.003 A 
HETATM   15  C   UNL     1       3.671  36.065  58.727  1.00  0.00     0.001 A 
HETATM   16  C   UNL     1       3.794  35.907  60.107  1.00  0.00     0.012 A 
BRANCH  12  17
HETATM   17  O   UNL     1       0.411  34.940  61.071  1.00  0.00    -0.355 OA
HETATM   18  C   UNL     1      -0.790  34.523  60.434  1.00  0.00     0.210 C 
ENDBRANCH  12  17
ENDBRANCH   1  11
BRANCH   8  19
HETATM   19  C   UNL     1       4.396  32.691  61.255  1.00  0.00    -0.035 A 
HETATM   20  C   UNL     1       5.682  32.856  60.713  1.00  0.00     0.010 A 
HETATM   21  C   UNL     1       5.949  32.538  59.378  1.00  0.00     0.019 A 
HETATM   22  C   UNL     1       4.934  32.038  58.569  1.00  0.00     0.011 A 
HETATM   23 BR   UNL     1       5.288  31.631  56.758  1.00  0.00    -0.051 Br
HETATM   24  C   UNL     1       3.658  31.838  59.086  1.00  0.00     0.019 A 
HETATM   25  C   UNL     1       3.395  32.155  60.422  1.00  0.00     0.010 A 
ENDBRANCH   8  19
BRANCH   5  26
HETATM   26  N   UNL     1       6.114  38.251  64.137  1.00  0.00    -0.229 N 
HETATM   27  H   UNL     1       5.698  39.150  63.935  1.00  0.00     0.174 HD
HETATM   28  H   UNL     1       6.604  38.191  65.019  1.00  0.00     0.174 HD
ENDBRANCH   5  26
TORSDOF 4
ENDMDL
MODEL 6
REMARK VINA RESULT:      -5.8     24.878     27.357
REMARK  4 active torsions:
REMARK  status: ('A' for Active; 'I' for Inactive)
REMARK    1  A    between atoms: O_2  and  C_3 
REMARK    2  A    between atoms: C_4  and  C_5 
REMARK    3  A    between atoms: C_9  and  N_10 
REMARK    4  A    between atoms: C_13  and  C_14 
ROOT
HETATM    1  C   UNL     1      16.182  10.136  53.501  1.00  0.00     0.167 C 
HETATM    2  N   UNL     1      16.451   9.244  54.627  1.00  0.00    -0.074 N 
HETATM    3  C   UNL     1      16.240   9.569  55.942  1.00  0.00     0.736 A 
HETATM    4  N   UNL     1      16.565   8.544  56.688  1.00  0.00     0.131 NA
HETATM    5  C   UNL     1      17.026   7.636  55.782  1.00  0.00     0.753 A 
HETATM    6  N   UNL     1      16.974   8.011  54.505  1.00  0.00     0.037 NA
HETATM    7  N   UNL     1      15.777  10.779  56.307  1.00  0.00    -0.214 N 
HETATM    8  C   UNL     1      15.324  11.746  55.316  1.00  0.00     0.135 C 
HETATM    9  C   UNL     1      16.163  11.590  54.028  1.00  0.00     0.063 C 
HETATM   10  H   UNL     1      15.507  10.933  57.273  1.00  0.00     0.178 HD
ENDROOT
BRANCH   1  11
HETATM   11  C   UNL     1      14.943   9.752  52.685  1.00  0.00     0.001 A 
HETATM   12  C   UNL     1      14.836  10.167  51.338  1.00  0.00     0.076 A 
HETATM   13  C   UNL     1      13.701   9.838  50.586  1.00  0.00     0.037 A 
HETATM   14  C   UNL     1      12.662   9.104  51.157  1.00  0.00     0.003 A 
HETATM   15  C   UNL     1      12.756   8.682  52.476  1.00  0.00     0.001 A 
HETATM   16  C   UNL     1      13.886   8.997  53.230  1.00  0.00     0.012 A 
BRANCH  12  17
HETATM   17  O   UNL     1      15.904  10.870  50.837  1.00  0.00    -0.355 OA
HETATM   18  C   UNL     1      16.735  10.199  49.897  1.00  0.00     0.210 C 
ENDBRANCH  12  17
ENDBRANCH   1  11
BRANCH   8  19
HETATM   19  C   UNL     1      13.816  11.719  55.095  1.00  0.00    -0.035 A 
HETATM   20  C   UNL     1      12.937  10.978  55.903  1.00  0.00     0.010 A 
HETATM   21  C   UNL     1      11.564  10.955  55.643  1.00  0.00     0.019 A 
HETATM   22  C   UNL     1      11.048  11.684  54.576  1.00  0.00     0.011 A 
HETATM   23 BR   UNL     1       9.195  11.632  54.210  1.00  0.00    -0.051 Br
HETATM   24  C   UNL     1      11.891  12.448  53.776  1.00  0.00     0.019 A 
HETATM   25  C   UNL     1      13.263  12.472  54.040  1.00  0.00     0.010 A 
ENDBRANCH   8  19
BRANCH   5  26
HETATM   26  N   UNL     1      17.450   6.457  56.223  1.00  0.00    -0.229 N 
HETATM   27  H   UNL     1      17.148   6.182  57.149  1.00  0.00     0.174 HD
HETATM   28  H   UNL     1      17.502   5.708  55.547  1.00  0.00     0.174 HD
ENDBRANCH   5  26
TORSDOF 4
ENDMDL
MODEL 7
REMARK VINA RESULT:      -5.7     13.127     15.523
REMARK  4 active torsions:
REMARK  status: ('A' for Active; 'I' for Inactive)
REMARK    1  A    between atoms: O_2  and  C_3 
REMARK    2  A    between atoms: C_4  and  C_5 
REMARK    3  A    between atoms: C_9  and  N_10 
REMARK    4  A    between atoms: C_13  and  C_14 
ROOT
HETATM    1  C   UNL     1       2.790  30.381  47.116  1.00  0.00     0.167 C 
HETATM    2  N   UNL     1       3.873  31.281  46.726  1.00  0.00    -0.074 N 
HETATM    3  C   UNL     1       4.441  32.215  47.552  1.00  0.00     0.736 A 
HETATM    4  N   UNL     1       5.390  32.835  46.899  1.00  0.00     0.131 NA
HETATM    5  C   UNL     1       5.322  32.282  45.655  1.00  0.00     0.753 A 
HETATM    6  N   UNL     1       4.414  31.321  45.495  1.00  0.00     0.037 NA
HETATM    7  N   UNL     1       4.015  32.395  48.816  1.00  0.00    -0.214 N 
HETATM    8  C   UNL     1       3.039  31.497  49.420  1.00  0.00     0.135 C 
HETATM    9  C   UNL     1       2.062  30.997  48.333  1.00  0.00     0.063 C 
HETATM   10  H   UNL     1       4.547  32.999  49.434  1.00  0.00     0.178 HD
ENDROOT
BRANCH   1  11
HETATM   11  C   UNL     1       3.232  28.927  47.322  1.00  0.00     0.001 A 
HETATM   12  C   UNL     1       2.266  27.896  47.319  1.00  0.00     0.076 A 
HETATM   13  C   UNL     1       2.654  26.565  47.525  1.00  0.00     0.037 A 
HETATM   14  C   UNL     1       3.994  26.243  47.741  1.00  0.00     0.003 A 
HETATM   15  C   UNL     1       4.955  27.245  47.738  1.00  0.00     0.001 A 
HETATM   16  C   UNL     1       4.580  28.572  47.526  1.00  0.00     0.012 A 
BRANCH  12  17
HETATM   17  O   UNL     1       0.970  28.282  47.082  1.00  0.00    -0.355 OA
HETATM   18  C   UNL     1       0.204  27.471  46.200  1.00  0.00     0.210 C 
ENDBRANCH  12  17
ENDBRANCH   1  11
BRANCH   8  19
HETATM   19  C   UNL     1       3.676  30.392  50.256  1.00  0.00    -0.035 A 
HETATM   20  C   UNL     1       5.054  30.334  50.524  1.00  0.00     0.010 A 
HETATM   21  C   UNL     1       5.601  29.283  51.267  1.00  0.00     0.019 A 
HETATM   22  C   UNL     1       4.772  28.280  51.762  1.00  0.00     0.011 A 
HETATM   23 BR   UNL     1       5.514  26.847  52.744  1.00  0.00    -0.051 Br
HETATM   24  C   UNL     1       3.401  28.327  51.534  1.00  0.00     0.019 A 
HETATM   25  C   UNL     1       2.858  29.381  50.794  1.00  0.00     0.010 A 
ENDBRANCH   8  19
BRANCH   5  26
HETATM   26  N   UNL     1       6.171  32.705  44.724  1.00  0.00    -0.229 N 
HETATM   27  H   UNL     1       7.076  33.024  45.044  1.00  0.00     0.174 HD
HETATM   28  H   UNL     1       6.177  32.201  43.848  1.00  0.00     0.174 HD
ENDBRANCH   5  26
TORSDOF 4
ENDMDL
MODEL 8
REMARK VINA RESULT:      -5.6     24.396     26.591
REMARK  4 active torsions:
REMARK  status: ('A' for Active; 'I' for Inactive)
REMARK    1  A    between atoms: O_2  and  C_3 
REMARK    2  A    between atoms: C_4  and  C_5 
REMARK    3  A    between atoms: C_9  and  N_10 
REMARK    4  A    between atoms: C_13  and  C_14 
ROOT
HETATM    1  C   UNL     1      12.123  11.504  52.878  1.00  0.00     0.167 C 
HETATM    2  N   UNL     1      13.395  11.196  52.228  1.00  0.00    -0.074 N 
HETATM    3  C   UNL     1      14.624  11.347  52.816  1.00  0.00     0.736 A 
HETATM    4  N   UNL     1      15.547  10.967  51.970  1.00  0.00     0.131 NA
HETATM    5  C   UNL     1      14.831  10.647  50.855  1.00  0.00     0.753 A 
HETATM    6  N   UNL     1      13.509  10.764  50.959  1.00  0.00     0.037 NA
HETATM    7  N   UNL     1      14.756  11.826  54.067  1.00  0.00    -0.214 N 
HETATM    8  C   UNL     1      13.595  12.055  54.916  1.00  0.00     0.135 C 
HETATM    9  C   UNL     1      12.398  12.487  54.040  1.00  0.00     0.063 C 
HETATM   10  H   UNL     1      15.668  11.795  54.512  1.00  0.00     0.178 HD
ENDROOT
BRANCH   1  11
HETATM   11  C   UNL     1      11.318  10.265  53.287  1.00  0.00     0.001 A 
HETATM   12  C   UNL     1       9.941  10.391  53.578  1.00  0.00     0.076 A 
HETATM   13  C   UNL     1       9.196   9.270  53.970  1.00  0.00     0.037 A 
HETATM   14  C   UNL     1       9.805   8.021  54.084  1.00  0.00     0.003 A 
HETATM   15  C   UNL     1      11.155   7.879  53.793  1.00  0.00     0.001 A 
HETATM   16  C   UNL     1      11.903   8.988  53.394  1.00  0.00     0.012 A 
BRANCH  12  17
HETATM   17  O   UNL     1       9.404  11.646  53.427  1.00  0.00    -0.355 OA
HETATM   18  C   UNL     1       8.334  12.000  54.295  1.00  0.00     0.210 C 
ENDBRANCH  12  17
ENDBRANCH   1  11
BRANCH   8  19
HETATM   19  C   UNL     1      13.301  10.894  55.859  1.00  0.00    -0.035 A 
HETATM   20  C   UNL     1      14.199   9.834  56.070  1.00  0.00     0.010 A 
HETATM   21  C   UNL     1      13.874   8.771  56.919  1.00  0.00     0.019 A 
HETATM   22  C   UNL     1      12.649   8.761  57.579  1.00  0.00     0.011 A 
HETATM   23 BR   UNL     1      12.200   7.313  58.706  1.00  0.00    -0.051 Br
HETATM   24  C   UNL     1      11.753   9.812  57.411  1.00  0.00     0.019 A 
HETATM   25  C   UNL     1      12.082  10.874  56.564  1.00  0.00     0.010 A 
ENDBRANCH   8  19
BRANCH   5  26
HETATM   26  N   UNL     1      15.486  10.216  49.782  1.00  0.00    -0.229 N 
HETATM   27  H   UNL     1      16.475  10.423  49.738  1.00  0.00     0.174 HD
HETATM   28  H   UNL     1      15.218   9.313  49.415  1.00  0.00     0.174 HD
ENDBRANCH   5  26
TORSDOF 4
ENDMDL
MODEL 9
REMARK VINA RESULT:      -5.6     11.828     14.180
REMARK  4 active torsions:
REMARK  status: ('A' for Active; 'I' for Inactive)
REMARK    1  A    between atoms: O_2  and  C_3 
REMARK    2  A    between atoms: C_4  and  C_5 
REMARK    3  A    between atoms: C_9  and  N_10 
REMARK    4  A    between atoms: C_13  and  C_14 
ROOT
HETATM    1  C   UNL     1       3.871  28.909  47.982  1.00  0.00     0.167 C 
HETATM    2  N   UNL     1       3.804  27.478  48.271  1.00  0.00    -0.074 N 
HETATM    3  C   UNL     1       4.608  26.829  49.172  1.00  0.00     0.736 A 
HETATM    4  N   UNL     1       4.276  25.565  49.201  1.00  0.00     0.131 NA
HETATM    5  C   UNL     1       3.299  25.480  48.254  1.00  0.00     0.753 A 
HETATM    6  N   UNL     1       2.967  26.623  47.657  1.00  0.00     0.037 NA
HETATM    7  N   UNL     1       5.565  27.478  49.862  1.00  0.00    -0.214 N 
HETATM    8  C   UNL     1       5.687  28.929  49.806  1.00  0.00     0.135 C 
HETATM    9  C   UNL     1       5.268  29.424  48.403  1.00  0.00     0.063 C 
HETATM   10  H   UNL     1       6.046  26.993  50.613  1.00  0.00     0.178 HD
ENDROOT
BRANCH   1  11
HETATM   11  C   UNL     1       2.706  29.717  48.565  1.00  0.00     0.001 A 
HETATM   12  C   UNL     1       2.422  31.003  48.052  1.00  0.00     0.076 A 
HETATM   13  C   UNL     1       1.371  31.760  48.588  1.00  0.00     0.037 A 
HETATM   14  C   UNL     1       0.599  31.258  49.635  1.00  0.00     0.003 A 
HETATM   15  C   UNL     1       0.861  29.993  50.144  1.00  0.00     0.001 A 
HETATM   16  C   UNL     1       1.899  29.229  49.611  1.00  0.00     0.012 A 
BRANCH  12  17
HETATM   17  O   UNL     1       3.210  31.426  47.010  1.00  0.00    -0.355 OA
HETATM   18  C   UNL     1       3.845  32.691  47.152  1.00  0.00     0.210 C 
ENDBRANCH  12  17
ENDBRANCH   1  11
BRANCH   8  19
HETATM   19  C   UNL     1       4.987  29.636  50.961  1.00  0.00    -0.035 A 
HETATM   20  C   UNL     1       4.464  28.953  52.072  1.00  0.00     0.010 A 
HETATM   21  C   UNL     1       3.800  29.638  53.093  1.00  0.00     0.019 A 
HETATM   22  C   UNL     1       3.658  31.021  53.022  1.00  0.00     0.011 A 
HETATM   23 BR   UNL     1       2.738  31.944  54.390  1.00  0.00    -0.051 Br
HETATM   24  C   UNL     1       4.190  31.725  51.948  1.00  0.00     0.019 A 
HETATM   25  C   UNL     1       4.856  31.038  50.930  1.00  0.00     0.010 A 
ENDBRANCH   8  19
BRANCH   5  26
HETATM   26  N   UNL     1       2.736  24.298  48.026  1.00  0.00    -0.229 N 
HETATM   27  H   UNL     1       2.914  23.875  47.125  1.00  0.00     0.174 HD
HETATM   28  H   UNL     1       2.696  23.654  48.804  1.00  0.00     0.174 HD
ENDBRANCH   5  26
TORSDOF 4
ENDMDL
MODEL 10
REMARK VINA RESULT:      -5.6     11.168     13.016
REMARK  4 active torsions:
REMARK  status: ('A' for Active; 'I' for Inactive)
REMARK    1  A    between atoms: O_2  and  C_3 
REMARK    2  A    between atoms: C_4  and  C_5 
REMARK    3  A    between atoms: C_9  and  N_10 
REMARK    4  A    between atoms: C_13  and  C_14 
ROOT
HETATM    1  C   UNL     1       3.557  29.224  51.435  1.00  0.00     0.167 C 
HETATM    2  N   UNL     1       4.311  28.019  51.092  1.00  0.00    -0.074 N 
HETATM    3  C   UNL     1       4.042  27.216  50.014  1.00  0.00     0.736 A 
HETATM    4  N   UNL     1       4.912  26.240  49.987  1.00  0.00     0.131 NA
HETATM    5  C   UNL     1       5.658  26.459  51.107  1.00  0.00     0.753 A 
HETATM    6  N   UNL     1       5.336  27.538  51.818  1.00  0.00     0.037 NA
HETATM    7  N   UNL     1       3.018  27.472  49.179  1.00  0.00    -0.214 N 
HETATM    8  C   UNL     1       2.245  28.702  49.284  1.00  0.00     0.135 C 
HETATM    9  C   UNL     1       2.166  29.132  50.766  1.00  0.00     0.063 C 
HETATM   10  H   UNL     1       2.935  26.934  48.322  1.00  0.00     0.178 HD
ENDROOT
BRANCH   1  11
HETATM   11  C   UNL     1       4.305  30.530  51.144  1.00  0.00     0.001 A 
HETATM   12  C   UNL     1       3.904  31.723  51.785  1.00  0.00     0.076 A 
HETATM   13  C   UNL     1       4.567  32.928  51.515  1.00  0.00     0.037 A 
HETATM   14  C   UNL     1       5.624  32.965  50.606  1.00  0.00     0.003 A 
HETATM   15  C   UNL     1       6.035  31.799  49.974  1.00  0.00     0.001 A 
HETATM   16  C   UNL     1       5.387  30.594  50.244  1.00  0.00     0.012 A 
BRANCH  12  17
HETATM   17  O   UNL     1       2.869  31.609  52.681  1.00  0.00    -0.355 OA
HETATM   18  C   UNL     1       3.172  31.838  54.052  1.00  0.00     0.210 C 
ENDBRANCH  12  17
ENDBRANCH   1  11
BRANCH   8  19
HETATM   19  C   UNL     1       2.721  29.794  48.333  1.00  0.00    -0.035 A 
HETATM   20  C   UNL     1       3.676  29.570  47.327  1.00  0.00     0.010 A 
HETATM   21  C   UNL     1       4.109  30.609  46.499  1.00  0.00     0.019 A 
HETATM   22  C   UNL     1       3.583  31.888  46.659  1.00  0.00     0.011 A 
HETATM   23 BR   UNL     1       4.187  33.298  45.556  1.00  0.00    -0.051 Br
HETATM   24  C   UNL     1       2.617  32.133  47.629  1.00  0.00     0.019 A 
HETATM   25  C   UNL     1       2.184  31.091  48.453  1.00  0.00     0.010 A 
ENDBRANCH   8  19
BRANCH   5  26
HETATM   26  N   UNL     1       6.651  25.620  51.384  1.00  0.00    -0.229 N 
HETATM   27  H   UNL     1       7.457  26.009  51.855  1.00  0.00     0.174 HD
HETATM   28  H   UNL     1       6.394  24.686  51.670  1.00  0.00     0.174 HD
ENDBRANCH   5  26
TORSDOF 4
ENDMDL
