MODEL 1
REMARK VINA RESULT:      -9.6      0.000      0.000
REMARK  8 active torsions:
REMARK  status: ('A' for Active; 'I' for Inactive)
REMARK    1  A    between atoms: C_4  and  O_5 
REMARK    2  A    between atoms: O_5  and  C_6 
REMARK    3  A    between atoms: C_6  and  C_7 
REMARK       I    between atoms: C_7  and  N_8 
REMARK    4  A    between atoms: N_8  and  N_9 
REMARK       I    between atoms: N_9  and  C_10 
REMARK    5  A    between atoms: C_10  and  C_11 
REMARK    6  A    between atoms: C_11  and  C_12 
REMARK    7  A    between atoms: C_12  and  N_13 
REMARK    8  A    between atoms: C_12  and  C_17 
REMARK       I    between atoms: N_13  and  C_14 
REMARK       I    between atoms: C_14  and  N_15 
ROOT
HETATM    1  N   UNL     1       7.079  27.556  57.140  1.00  0.00    -0.267 N 
HETATM    2  C   UNL     1       7.208  26.214  57.464  1.00  0.00     0.238 C 
HETATM    3  O   UNL     1       8.016  25.789  58.286  1.00  0.00    -0.272 OA
HETATM    4  H   UNL     1       6.247  27.871  56.645  1.00  0.00     0.190 HD
ENDROOT
BRANCH   2   5
HETATM    5  C   UNL     1       6.240  25.327  56.718  1.00  0.00     0.134 C 
BRANCH   5   6
HETATM    6  C   UNL     1       6.479  25.332  55.197  1.00  0.00     0.130 C 
BRANCH   6   7
HETATM    7  N   UNL     1       5.280  25.690  54.435  1.00  0.00    -0.334 N 
HETATM    8  C   UNL     1       5.027  26.980  54.080  1.00  0.00     0.314 C 
HETATM    9  N   UNL     1       3.821  27.122  53.483  1.00  0.00    -0.352 N 
HETATM   10  O   UNL     1       5.750  27.934  54.314  1.00  0.00    -0.248 OA
HETATM   11  H   UNL     1       3.473  26.343  52.941  1.00  0.00     0.160 HD
HETATM   12  H   UNL     1       3.656  28.039  53.086  1.00  0.00     0.160 HD
HETATM   13  H   UNL     1       4.448  25.113  54.544  1.00  0.00     0.165 HD
ENDBRANCH   6   7
BRANCH   6  14
HETATM   14  C   UNL     1       7.149  24.056  54.698  1.00  0.00    -0.013 A 
HETATM   15  C   UNL     1       7.708  23.983  53.404  1.00  0.00     0.042 A 
HETATM   16 CL   UNL     1       7.687  25.323  52.308  1.00  0.00    -0.084 Cl
HETATM   17  C   UNL     1       8.313  22.808  52.943  1.00  0.00     0.024 A 
HETATM   18  C   UNL     1       8.378  21.684  53.760  1.00  0.00     0.002 A 
HETATM   19  C   UNL     1       7.848  21.738  55.045  1.00  0.00     0.001 A 
HETATM   20  C   UNL     1       7.248  22.911  55.511  1.00  0.00     0.011 A 
ENDBRANCH   6  14
ENDBRANCH   5   6
ENDBRANCH   2   5
BRANCH   1  21
HETATM   21  N   UNL     1       7.656  28.492  58.003  1.00  0.00    -0.266 N 
HETATM   22  C   UNL     1       8.777  29.188  57.575  1.00  0.00     0.260 C 
HETATM   23  O   UNL     1       9.386  28.918  56.538  1.00  0.00    -0.269 OA
HETATM   24  H   UNL     1       7.045  28.914  58.701  1.00  0.00     0.190 HD
BRANCH  22  25
HETATM   25  C   UNL     1       9.145  30.355  58.488  1.00  0.00     0.280 C 
BRANCH  25  26
HETATM   26  O   UNL     1       8.720  30.036  59.811  1.00  0.00    -0.342 OA
BRANCH  26  27
HETATM   27  C   UNL     1       8.083  31.009  60.526  1.00  0.00     0.069 A 
HETATM   28  C   UNL     1       8.353  31.371  61.847  1.00  0.00     0.043 A 
HETATM   29  C   UNL     1       7.636  32.411  62.459  1.00  0.00    -0.059 A 
HETATM   30  C   UNL     1       7.953  32.843  63.861  1.00  0.00     0.048 C 
HETATM   31  C   UNL     1       6.655  33.094  61.728  1.00  0.00     0.007 A 
HETATM   32  C   UNL     1       6.383  32.736  60.410  1.00  0.00     0.003 A 
HETATM   33  C   UNL     1       7.099  31.698  59.813  1.00  0.00     0.037 A 
ENDBRANCH  26  27
ENDBRANCH  25  26
ENDBRANCH  22  25
ENDBRANCH   1  21
TORSDOF 8
ENDMDL
MODEL 2
REMARK VINA RESULT:      -9.5      0.706      1.220
REMARK  8 active torsions:
REMARK  status: ('A' for Active; 'I' for Inactive)
REMARK    1  A    between atoms: C_4  and  O_5 
REMARK    2  A    between atoms: O_5  and  C_6 
REMARK    3  A    between atoms: C_6  and  C_7 
REMARK       I    between atoms: C_7  and  N_8 
REMARK    4  A    between atoms: N_8  and  N_9 
REMARK       I    between atoms: N_9  and  C_10 
REMARK    5  A    between atoms: C_10  and  C_11 
REMARK    6  A    between atoms: C_11  and  C_12 
REMARK    7  A    between atoms: C_12  and  N_13 
REMARK    8  A    between atoms: C_12  and  C_17 
REMARK       I    between atoms: N_13  and  C_14 
REMARK       I    between atoms: C_14  and  N_15 
ROOT
HETATM    1  N   UNL     1       7.038  27.229  57.043  1.00  0.00    -0.267 N 
HETATM    2  C   UNL     1       7.424  25.919  57.277  1.00  0.00     0.238 C 
HETATM    3  O   UNL     1       8.408  25.609  57.945  1.00  0.00    -0.272 OA
HETATM    4  H   UNL     1       6.100  27.417  56.695  1.00  0.00     0.190 HD
ENDROOT
BRANCH   2   5
HETATM    5  C   UNL     1       6.501  24.905  56.643  1.00  0.00     0.134 C 
BRANCH   5   6
HETATM    6  C   UNL     1       6.688  24.802  55.118  1.00  0.00     0.130 C 
BRANCH   6   7
HETATM    7  N   UNL     1       5.484  25.174  54.372  1.00  0.00    -0.334 N 
HETATM    8  C   UNL     1       5.273  26.455  53.963  1.00  0.00     0.314 C 
HETATM    9  N   UNL     1       4.058  26.620  53.392  1.00  0.00    -0.352 N 
HETATM   10  O   UNL     1       6.041  27.388  54.133  1.00  0.00    -0.248 OA
HETATM   11  H   UNL     1       3.664  25.831  52.896  1.00  0.00     0.160 HD
HETATM   12  H   UNL     1       3.919  27.523  52.957  1.00  0.00     0.160 HD
HETATM   13  H   UNL     1       4.633  24.636  54.530  1.00  0.00     0.165 HD
ENDBRANCH   6   7
BRANCH   6  14
HETATM   14  C   UNL     1       7.275  23.463  54.683  1.00  0.00    -0.013 A 
HETATM   15  C   UNL     1       7.769  23.273  53.374  1.00  0.00     0.042 A 
HETATM   16 CL   UNL     1       7.758  24.533  52.187  1.00  0.00    -0.084 Cl
HETATM   17  C   UNL     1       8.297  22.041  52.973  1.00  0.00     0.024 A 
HETATM   18  C   UNL     1       8.349  20.974  53.864  1.00  0.00     0.002 A 
HETATM   19  C   UNL     1       7.883  21.142  55.163  1.00  0.00     0.001 A 
HETATM   20  C   UNL     1       7.360  22.373  55.571  1.00  0.00     0.011 A 
ENDBRANCH   6  14
ENDBRANCH   5   6
ENDBRANCH   2   5
BRANCH   1  21
HETATM   21  N   UNL     1       7.590  28.225  57.854  1.00  0.00    -0.266 N 
HETATM   22  C   UNL     1       8.498  29.112  57.293  1.00  0.00     0.260 C 
HETATM   23  O   UNL     1       8.964  28.976  56.159  1.00  0.00    -0.269 OA
HETATM   24  H   UNL     1       7.042  28.519  58.661  1.00  0.00     0.190 HD
BRANCH  22  25
HETATM   25  C   UNL     1       8.818  30.298  58.199  1.00  0.00     0.280 C 
BRANCH  25  26
HETATM   26  O   UNL     1       7.636  30.640  58.919  1.00  0.00    -0.342 OA
BRANCH  26  27
HETATM   27  C   UNL     1       7.784  31.262  60.125  1.00  0.00     0.069 A 
HETATM   28  C   UNL     1       7.036  32.346  60.588  1.00  0.00     0.043 A 
HETATM   29  C   UNL     1       7.275  32.878  61.866  1.00  0.00    -0.059 A 
HETATM   30  C   UNL     1       6.444  34.009  62.396  1.00  0.00     0.048 C 
HETATM   31  C   UNL     1       8.261  32.302  62.678  1.00  0.00     0.007 A 
HETATM   32  C   UNL     1       9.008  31.221  62.218  1.00  0.00     0.003 A 
HETATM   33  C   UNL     1       8.765  30.703  60.946  1.00  0.00     0.037 A 
ENDBRANCH  26  27
ENDBRANCH  25  26
ENDBRANCH  22  25
ENDBRANCH   1  21
TORSDOF 8
ENDMDL
MODEL 3
REMARK VINA RESULT:      -8.9      1.881      2.363
REMARK  8 active torsions:
REMARK  status: ('A' for Active; 'I' for Inactive)
REMARK    1  A    between atoms: C_4  and  O_5 
REMARK    2  A    between atoms: O_5  and  C_6 
REMARK    3  A    between atoms: C_6  and  C_7 
REMARK       I    between atoms: C_7  and  N_8 
REMARK    4  A    between atoms: N_8  and  N_9 
REMARK       I    between atoms: N_9  and  C_10 
REMARK    5  A    between atoms: C_10  and  C_11 
REMARK    6  A    between atoms: C_11  and  C_12 
REMARK    7  A    between atoms: C_12  and  N_13 
REMARK    8  A    between atoms: C_12  and  C_17 
REMARK       I    between atoms: N_13  and  C_14 
REMARK       I    between atoms: C_14  and  N_15 
ROOT
HETATM    1  N   UNL     1       8.481  27.140  57.011  1.00  0.00    -0.267 N 
HETATM    2  C   UNL     1       8.388  25.846  57.497  1.00  0.00     0.238 C 
HETATM    3  O   UNL     1       8.043  25.574  58.644  1.00  0.00    -0.272 OA
HETATM    4  H   UNL     1       8.536  27.291  56.005  1.00  0.00     0.190 HD
ENDROOT
BRANCH   2   5
HETATM    5  C   UNL     1       8.736  24.797  56.467  1.00  0.00     0.134 C 
BRANCH   5   6
HETATM    6  C   UNL     1       7.528  24.387  55.604  1.00  0.00     0.130 C 
BRANCH   6   7
HETATM    7  N   UNL     1       6.257  24.478  56.326  1.00  0.00    -0.334 N 
HETATM    8  C   UNL     1       5.486  25.598  56.261  1.00  0.00     0.314 C 
HETATM    9  N   UNL     1       4.413  25.532  57.083  1.00  0.00    -0.352 N 
HETATM   10  O   UNL     1       5.735  26.592  55.601  1.00  0.00    -0.248 OA
HETATM   11  H   UNL     1       4.013  24.619  57.257  1.00  0.00     0.160 HD
HETATM   12  H   UNL     1       3.747  26.285  56.964  1.00  0.00     0.160 HD
HETATM   13  H   UNL     1       6.151  23.942  57.187  1.00  0.00     0.165 HD
ENDBRANCH   6   7
BRANCH   6  14
HETATM   14  C   UNL     1       7.728  23.046  54.905  1.00  0.00    -0.013 A 
HETATM   15  C   UNL     1       8.015  21.875  55.640  1.00  0.00     0.042 A 
HETATM   16 CL   UNL     1       8.145  21.873  57.367  1.00  0.00    -0.084 Cl
HETATM   17  C   UNL     1       8.209  20.648  54.997  1.00  0.00     0.024 A 
HETATM   18  C   UNL     1       8.118  20.558  53.612  1.00  0.00     0.002 A 
HETATM   19  C   UNL     1       7.821  21.694  52.868  1.00  0.00     0.001 A 
HETATM   20  C   UNL     1       7.621  22.922  53.507  1.00  0.00     0.011 A 
ENDBRANCH   6  14
ENDBRANCH   5   6
ENDBRANCH   2   5
BRANCH   1  21
HETATM   21  N   UNL     1       7.856  28.156  57.739  1.00  0.00    -0.266 N 
HETATM   22  C   UNL     1       8.090  29.475  57.376  1.00  0.00     0.260 C 
HETATM   23  O   UNL     1       8.940  29.807  56.547  1.00  0.00    -0.269 OA
HETATM   24  H   UNL     1       6.984  27.917  58.209  1.00  0.00     0.190 HD
BRANCH  22  25
HETATM   25  C   UNL     1       7.154  30.463  58.066  1.00  0.00     0.280 C 
BRANCH  25  26
HETATM   26  O   UNL     1       7.911  31.614  58.431  1.00  0.00    -0.342 OA
BRANCH  26  27
HETATM   27  C   UNL     1       8.055  31.886  59.761  1.00  0.00     0.069 A 
HETATM   28  C   UNL     1       7.081  32.430  60.600  1.00  0.00     0.043 A 
HETATM   29  C   UNL     1       7.354  32.638  61.962  1.00  0.00    -0.059 A 
HETATM   30  C   UNL     1       6.298  33.173  62.885  1.00  0.00     0.048 C 
HETATM   31  C   UNL     1       8.607  32.280  62.476  1.00  0.00     0.007 A 
HETATM   32  C   UNL     1       9.581  31.739  61.641  1.00  0.00     0.003 A 
HETATM   33  C   UNL     1       9.301  31.540  60.289  1.00  0.00     0.037 A 
ENDBRANCH  26  27
ENDBRANCH  25  26
ENDBRANCH  22  25
ENDBRANCH   1  21
TORSDOF 8
ENDMDL
MODEL 4
REMARK VINA RESULT:      -8.8      2.217      3.578
REMARK  8 active torsions:
REMARK  status: ('A' for Active; 'I' for Inactive)
REMARK    1  A    between atoms: C_4  and  O_5 
REMARK    2  A    between atoms: O_5  and  C_6 
REMARK    3  A    between atoms: C_6  and  C_7 
REMARK       I    between atoms: C_7  and  N_8 
REMARK    4  A    between atoms: N_8  and  N_9 
REMARK       I    between atoms: N_9  and  C_10 
REMARK    5  A    between atoms: C_10  and  C_11 
REMARK    6  A    between atoms: C_11  and  C_12 
REMARK    7  A    between atoms: C_12  and  N_13 
REMARK    8  A    between atoms: C_12  and  C_17 
REMARK       I    between atoms: N_13  and  C_14 
REMARK       I    between atoms: C_14  and  N_15 
ROOT
HETATM    1  N   UNL     1       5.059  29.103  57.687  1.00  0.00    -0.267 N 
HETATM    2  C   UNL     1       5.194  28.770  56.349  1.00  0.00     0.238 C 
HETATM    3  O   UNL     1       5.327  29.599  55.453  1.00  0.00    -0.272 OA
HETATM    4  H   UNL     1       5.194  28.383  58.395  1.00  0.00     0.190 HD
ENDROOT
BRANCH   2   5
HETATM    5  C   UNL     1       5.179  27.280  56.102  1.00  0.00     0.134 C 
BRANCH   5   6
HETATM    6  C   UNL     1       6.587  26.657  56.136  1.00  0.00     0.130 C 
BRANCH   6   7
HETATM    7  N   UNL     1       7.653  27.660  56.074  1.00  0.00    -0.334 N 
HETATM    8  C   UNL     1       8.246  28.132  57.205  1.00  0.00     0.314 C 
HETATM    9  N   UNL     1       9.123  29.130  56.947  1.00  0.00    -0.352 N 
HETATM   10  O   UNL     1       7.993  27.769  58.342  1.00  0.00    -0.248 OA
HETATM   11  H   UNL     1       9.610  29.107  56.061  1.00  0.00     0.160 HD
HETATM   12  H   UNL     1       9.679  29.414  57.744  1.00  0.00     0.160 HD
HETATM   13  H   UNL     1       7.657  28.312  55.291  1.00  0.00     0.165 HD
ENDBRANCH   6   7
BRANCH   6  14
HETATM   14  C   UNL     1       6.761  25.531  55.121  1.00  0.00    -0.013 A 
HETATM   15  C   UNL     1       7.708  24.504  55.326  1.00  0.00     0.042 A 
HETATM   16 CL   UNL     1       8.717  24.440  56.731  1.00  0.00    -0.084 Cl
HETATM   17  C   UNL     1       7.874  23.478  54.390  1.00  0.00     0.024 A 
HETATM   18  C   UNL     1       7.101  23.449  53.233  1.00  0.00     0.002 A 
HETATM   19  C   UNL     1       6.151  24.441  53.018  1.00  0.00     0.001 A 
HETATM   20  C   UNL     1       5.977  25.466  53.953  1.00  0.00     0.011 A 
ENDBRANCH   6  14
ENDBRANCH   5   6
ENDBRANCH   2   5
BRANCH   1  21
HETATM   21  N   UNL     1       5.409  30.400  58.074  1.00  0.00    -0.266 N 
HETATM   22  C   UNL     1       4.423  31.228  58.591  1.00  0.00     0.260 C 
HETATM   23  O   UNL     1       3.224  30.937  58.585  1.00  0.00    -0.269 OA
HETATM   24  H   UNL     1       6.380  30.555  58.342  1.00  0.00     0.190 HD
BRANCH  22  25
HETATM   25  C   UNL     1       4.978  32.505  59.215  1.00  0.00     0.280 C 
BRANCH  25  26
HETATM   26  O   UNL     1       6.368  32.581  58.913  1.00  0.00    -0.342 OA
BRANCH  26  27
HETATM   27  C   UNL     1       7.253  32.393  59.935  1.00  0.00     0.069 A 
HETATM   28  C   UNL     1       7.034  32.695  61.280  1.00  0.00     0.043 A 
HETATM   29  C   UNL     1       8.025  32.427  62.239  1.00  0.00    -0.059 A 
HETATM   30  C   UNL     1       7.781  32.700  63.694  1.00  0.00     0.048 C 
HETATM   31  C   UNL     1       9.231  31.839  61.836  1.00  0.00     0.007 A 
HETATM   32  C   UNL     1       9.453  31.537  60.495  1.00  0.00     0.003 A 
HETATM   33  C   UNL     1       8.463  31.811  59.550  1.00  0.00     0.037 A 
ENDBRANCH  26  27
ENDBRANCH  25  26
ENDBRANCH  22  25
ENDBRANCH   1  21
TORSDOF 8
ENDMDL
MODEL 5
REMARK VINA RESULT:      -8.8      4.749      9.105
REMARK  8 active torsions:
REMARK  status: ('A' for Active; 'I' for Inactive)
REMARK    1  A    between atoms: C_4  and  O_5 
REMARK    2  A    between atoms: O_5  and  C_6 
REMARK    3  A    between atoms: C_6  and  C_7 
REMARK       I    between atoms: C_7  and  N_8 
REMARK    4  A    between atoms: N_8  and  N_9 
REMARK       I    between atoms: N_9  and  C_10 
REMARK    5  A    between atoms: C_10  and  C_11 
REMARK    6  A    between atoms: C_11  and  C_12 
REMARK    7  A    between atoms: C_12  and  N_13 
REMARK    8  A    between atoms: C_12  and  C_17 
REMARK       I    between atoms: N_13  and  C_14 
REMARK       I    between atoms: C_14  and  N_15 
ROOT
HETATM    1  N   UNL     1       4.129  26.654  53.332  1.00  0.00    -0.267 N 
HETATM    2  C   UNL     1       4.811  25.448  53.321  1.00  0.00     0.238 C 
HETATM    3  O   UNL     1       5.011  24.791  52.303  1.00  0.00    -0.272 OA
HETATM    4  H   UNL     1       4.203  27.260  54.148  1.00  0.00     0.190 HD
ENDROOT
BRANCH   2   5
HETATM    5  C   UNL     1       5.302  25.029  54.686  1.00  0.00     0.134 C 
BRANCH   5   6
HETATM    6  C   UNL     1       6.824  25.200  54.850  1.00  0.00     0.130 C 
BRANCH   6   7
HETATM    7  N   UNL     1       7.339  26.388  54.166  1.00  0.00    -0.334 N 
HETATM    8  C   UNL     1       7.769  27.474  54.865  1.00  0.00     0.314 C 
HETATM    9  N   UNL     1       8.099  28.508  54.057  1.00  0.00    -0.352 N 
HETATM   10  O   UNL     1       7.804  27.566  56.081  1.00  0.00    -0.248 OA
HETATM   11  H   UNL     1       8.464  28.287  53.140  1.00  0.00     0.160 HD
HETATM   12  H   UNL     1       8.548  29.283  54.530  1.00  0.00     0.160 HD
HETATM   13  H   UNL     1       6.988  26.599  53.233  1.00  0.00     0.165 HD
ENDBRANCH   6   7
BRANCH   6  14
HETATM   14  C   UNL     1       7.601  23.930  54.516  1.00  0.00    -0.013 A 
HETATM   15  C   UNL     1       8.594  23.432  55.386  1.00  0.00     0.042 A 
HETATM   16 CL   UNL     1       8.989  24.207  56.883  1.00  0.00    -0.084 Cl
HETATM   17  C   UNL     1       9.314  22.273  55.074  1.00  0.00     0.024 A 
HETATM   18  C   UNL     1       9.058  21.584  53.893  1.00  0.00     0.002 A 
HETATM   19  C   UNL     1       8.073  22.047  53.027  1.00  0.00     0.001 A 
HETATM   20  C   UNL     1       7.348  23.201  53.338  1.00  0.00     0.011 A 
ENDBRANCH   6  14
ENDBRANCH   5   6
ENDBRANCH   2   5
BRANCH   1  21
HETATM   21  N   UNL     1       3.942  27.309  52.111  1.00  0.00    -0.266 N 
HETATM   22  C   UNL     1       4.901  28.220  51.693  1.00  0.00     0.260 C 
HETATM   23  O   UNL     1       5.830  28.601  52.408  1.00  0.00    -0.269 OA
HETATM   24  H   UNL     1       3.371  26.832  51.415  1.00  0.00     0.190 HD
BRANCH  22  25
HETATM   25  C   UNL     1       4.718  28.660  50.242  1.00  0.00     0.280 C 
BRANCH  25  26
HETATM   26  O   UNL     1       3.325  28.638  49.942  1.00  0.00    -0.342 OA
BRANCH  26  27
HETATM   27  C   UNL     1       2.909  27.848  48.909  1.00  0.00     0.069 A 
HETATM   28  C   UNL     1       1.769  28.046  48.129  1.00  0.00     0.043 A 
HETATM   29  C   UNL     1       1.468  27.167  47.075  1.00  0.00    -0.059 A 
HETATM   30  C   UNL     1       0.274  27.398  46.198  1.00  0.00     0.048 C 
HETATM   31  C   UNL     1       2.332  26.097  46.804  1.00  0.00     0.007 A 
HETATM   32  C   UNL     1       3.469  25.897  47.581  1.00  0.00     0.003 A 
HETATM   33  C   UNL     1       3.757  26.774  48.628  1.00  0.00     0.037 A 
ENDBRANCH  26  27
ENDBRANCH  25  26
ENDBRANCH  22  25
ENDBRANCH   1  21
TORSDOF 8
ENDMDL
MODEL 6
REMARK VINA RESULT:      -8.8      3.263      9.813
REMARK  8 active torsions:
REMARK  status: ('A' for Active; 'I' for Inactive)
REMARK    1  A    between atoms: C_4  and  O_5 
REMARK    2  A    between atoms: O_5  and  C_6 
REMARK    3  A    between atoms: C_6  and  C_7 
REMARK       I    between atoms: C_7  and  N_8 
REMARK    4  A    between atoms: N_8  and  N_9 
REMARK       I    between atoms: N_9  and  C_10 
REMARK    5  A    between atoms: C_10  and  C_11 
REMARK    6  A    between atoms: C_11  and  C_12 
REMARK    7  A    between atoms: C_12  and  N_13 
REMARK    8  A    between atoms: C_12  and  C_17 
REMARK       I    between atoms: N_13  and  C_14 
REMARK       I    between atoms: C_14  and  N_15 
ROOT
HETATM    1  N   UNL     1       6.212  29.580  57.956  1.00  0.00    -0.267 N 
HETATM    2  C   UNL     1       7.404  30.050  58.484  1.00  0.00     0.238 C 
HETATM    3  O   UNL     1       8.362  29.327  58.747  1.00  0.00    -0.272 OA
HETATM    4  H   UNL     1       5.557  30.241  57.540  1.00  0.00     0.190 HD
ENDROOT
BRANCH   2   5
HETATM    5  C   UNL     1       7.416  31.547  58.686  1.00  0.00     0.134 C 
BRANCH   5   6
HETATM    6  C   UNL     1       7.202  31.950  60.157  1.00  0.00     0.130 C 
BRANCH   6   7
HETATM    7  N   UNL     1       7.554  30.884  61.096  1.00  0.00    -0.334 N 
HETATM    8  C   UNL     1       8.719  30.919  61.801  1.00  0.00     0.314 C 
HETATM    9  N   UNL     1       8.915  29.793  62.526  1.00  0.00    -0.352 N 
HETATM   10  O   UNL     1       9.546  31.815  61.759  1.00  0.00    -0.248 OA
HETATM   11  H   UNL     1       8.097  29.313  62.874  1.00  0.00     0.160 HD
HETATM   12  H   UNL     1       9.700  29.839  63.164  1.00  0.00     0.160 HD
HETATM   13  H   UNL     1       7.198  29.946  60.918  1.00  0.00     0.165 HD
ENDBRANCH   6   7
BRANCH   6  14
HETATM   14  C   UNL     1       5.820  32.544  60.412  1.00  0.00    -0.013 A 
HETATM   15  C   UNL     1       5.577  33.376  61.526  1.00  0.00     0.042 A 
HETATM   16 CL   UNL     1       6.817  33.792  62.661  1.00  0.00    -0.084 Cl
HETATM   17  C   UNL     1       4.307  33.911  61.765  1.00  0.00     0.024 A 
HETATM   18  C   UNL     1       3.252  33.633  60.901  1.00  0.00     0.002 A 
HETATM   19  C   UNL     1       3.471  32.828  59.789  1.00  0.00     0.001 A 
HETATM   20  C   UNL     1       4.740  32.296  59.543  1.00  0.00     0.011 A 
ENDBRANCH   6  14
ENDBRANCH   5   6
ENDBRANCH   2   5
BRANCH   1  21
HETATM   21  N   UNL     1       6.206  28.297  57.402  1.00  0.00    -0.266 N 
HETATM   22  C   UNL     1       5.205  27.968  56.499  1.00  0.00     0.260 C 
HETATM   23  O   UNL     1       4.232  28.692  56.275  1.00  0.00    -0.269 OA
HETATM   24  H   UNL     1       7.100  27.812  57.351  1.00  0.00     0.190 HD
BRANCH  22  25
HETATM   25  C   UNL     1       5.460  26.650  55.773  1.00  0.00     0.280 C 
BRANCH  25  26
HETATM   26  O   UNL     1       6.702  26.754  55.082  1.00  0.00    -0.342 OA
BRANCH  26  27
HETATM   27  C   UNL     1       7.134  25.665  54.381  1.00  0.00     0.069 A 
HETATM   28  C   UNL     1       7.242  24.362  54.869  1.00  0.00     0.043 A 
HETATM   29  C   UNL     1       7.680  23.324  54.029  1.00  0.00    -0.059 A 
HETATM   30  C   UNL     1       7.752  21.911  54.528  1.00  0.00     0.048 C 
HETATM   31  C   UNL     1       7.992  23.605  52.693  1.00  0.00     0.007 A 
HETATM   32  C   UNL     1       7.884  24.905  52.204  1.00  0.00     0.003 A 
HETATM   33  C   UNL     1       7.453  25.929  53.047  1.00  0.00     0.037 A 
ENDBRANCH  26  27
ENDBRANCH  25  26
ENDBRANCH  22  25
ENDBRANCH   1  21
TORSDOF 8
ENDMDL
MODEL 7
REMARK VINA RESULT:      -8.7      1.741      2.554
REMARK  8 active torsions:
REMARK  status: ('A' for Active; 'I' for Inactive)
REMARK    1  A    between atoms: C_4  and  O_5 
REMARK    2  A    between atoms: O_5  and  C_6 
REMARK    3  A    between atoms: C_6  and  C_7 
REMARK       I    between atoms: C_7  and  N_8 
REMARK    4  A    between atoms: N_8  and  N_9 
REMARK       I    between atoms: N_9  and  C_10 
REMARK    5  A    between atoms: C_10  and  C_11 
REMARK    6  A    between atoms: C_11  and  C_12 
REMARK    7  A    between atoms: C_12  and  N_13 
REMARK    8  A    between atoms: C_12  and  C_17 
REMARK       I    between atoms: N_13  and  C_14 
REMARK       I    between atoms: C_14  and  N_15 
ROOT
HETATM    1  N   UNL     1       7.533  28.652  58.456  1.00  0.00    -0.267 N 
HETATM    2  C   UNL     1       8.362  28.085  57.502  1.00  0.00     0.238 C 
HETATM    3  O   UNL     1       9.354  28.647  57.045  1.00  0.00    -0.272 OA
HETATM    4  H   UNL     1       6.880  28.058  58.965  1.00  0.00     0.190 HD
ENDROOT
BRANCH   2   5
HETATM    5  C   UNL     1       7.935  26.695  57.093  1.00  0.00     0.134 C 
BRANCH   5   6
HETATM    6  C   UNL     1       7.091  26.687  55.805  1.00  0.00     0.130 C 
BRANCH   6   7
HETATM    7  N   UNL     1       5.662  26.877  56.061  1.00  0.00    -0.334 N 
HETATM    8  C   UNL     1       5.054  28.072  55.824  1.00  0.00     0.314 C 
HETATM    9  N   UNL     1       3.763  28.082  56.229  1.00  0.00    -0.352 N 
HETATM   10  O   UNL     1       5.595  29.063  55.363  1.00  0.00    -0.248 OA
HETATM   11  H   UNL     1       3.254  27.209  56.189  1.00  0.00     0.160 HD
HETATM   12  H   UNL     1       3.243  28.904  55.949  1.00  0.00     0.160 HD
HETATM   13  H   UNL     1       5.224  26.319  56.792  1.00  0.00     0.165 HD
ENDBRANCH   6   7
BRANCH   6  14
HETATM   14  C   UNL     1       7.388  25.487  54.911  1.00  0.00    -0.013 A 
HETATM   15  C   UNL     1       7.260  25.573  53.508  1.00  0.00     0.042 A 
HETATM   16 CL   UNL     1       6.778  27.031  52.708  1.00  0.00    -0.084 Cl
HETATM   17  C   UNL     1       7.521  24.468  52.689  1.00  0.00     0.024 A 
HETATM   18  C   UNL     1       7.918  23.258  53.248  1.00  0.00     0.002 A 
HETATM   19  C   UNL     1       8.066  23.154  54.626  1.00  0.00     0.001 A 
HETATM   20  C   UNL     1       7.812  24.256  55.448  1.00  0.00     0.011 A 
ENDBRANCH   6  14
ENDBRANCH   5   6
ENDBRANCH   2   5
BRANCH   1  21
HETATM   21  N   UNL     1       8.012  29.760  59.161  1.00  0.00    -0.266 N 
HETATM   22  C   UNL     1       7.455  31.004  58.903  1.00  0.00     0.260 C 
HETATM   23  O   UNL     1       6.668  31.213  57.977  1.00  0.00    -0.269 OA
HETATM   24  H   UNL     1       8.428  29.581  60.074  1.00  0.00     0.190 HD
BRANCH  22  25
HETATM   25  C   UNL     1       7.871  32.070  59.913  1.00  0.00     0.280 C 
BRANCH  25  26
HETATM   26  O   UNL     1       6.692  32.598  60.515  1.00  0.00    -0.342 OA
BRANCH  26  27
HETATM   27  C   UNL     1       6.790  33.083  61.787  1.00  0.00     0.069 A 
HETATM   28  C   UNL     1       6.030  34.118  62.334  1.00  0.00     0.043 A 
HETATM   29  C   UNL     1       6.216  34.504  63.672  1.00  0.00    -0.059 A 
HETATM   30  C   UNL     1       5.370  35.581  64.286  1.00  0.00     0.048 C 
HETATM   31  C   UNL     1       7.160  33.830  64.458  1.00  0.00     0.007 A 
HETATM   32  C   UNL     1       7.919  32.797  63.915  1.00  0.00     0.003 A 
HETATM   33  C   UNL     1       7.729  32.424  62.584  1.00  0.00     0.037 A 
ENDBRANCH  26  27
ENDBRANCH  25  26
ENDBRANCH  22  25
ENDBRANCH   1  21
TORSDOF 8
ENDMDL
MODEL 8
REMARK VINA RESULT:      -8.6      2.361      3.664
REMARK  8 active torsions:
REMARK  status: ('A' for Active; 'I' for Inactive)
REMARK    1  A    between atoms: C_4  and  O_5 
REMARK    2  A    between atoms: O_5  and  C_6 
REMARK    3  A    between atoms: C_6  and  C_7 
REMARK       I    between atoms: C_7  and  N_8 
REMARK    4  A    between atoms: N_8  and  N_9 
REMARK       I    between atoms: N_9  and  C_10 
REMARK    5  A    between atoms: C_10  and  C_11 
REMARK    6  A    between atoms: C_11  and  C_12 
REMARK    7  A    between atoms: C_12  and  N_13 
REMARK    8  A    between atoms: C_12  and  C_17 
REMARK       I    between atoms: N_13  and  C_14 
REMARK       I    between atoms: C_14  and  N_15 
ROOT
HETATM    1  N   UNL     1       8.595  26.375  56.771  1.00  0.00    -0.267 N 
HETATM    2  C   UNL     1       8.697  25.101  57.307  1.00  0.00     0.238 C 
HETATM    3  O   UNL     1       8.445  24.836  58.479  1.00  0.00    -0.272 OA
HETATM    4  H   UNL     1       8.581  26.490  55.759  1.00  0.00     0.190 HD
ENDROOT
BRANCH   2   5
HETATM    5  C   UNL     1       9.131  24.065  56.298  1.00  0.00     0.134 C 
BRANCH   5   6
HETATM    6  C   UNL     1       7.943  23.321  55.660  1.00  0.00     0.130 C 
BRANCH   6   7
HETATM    7  N   UNL     1       8.236  21.912  55.386  1.00  0.00    -0.334 N 
HETATM    8  C   UNL     1       8.382  21.011  56.397  1.00  0.00     0.314 C 
HETATM    9  N   UNL     1       8.760  19.792  55.948  1.00  0.00    -0.352 N 
HETATM   10  O   UNL     1       8.260  21.254  57.586  1.00  0.00    -0.248 OA
HETATM   11  H   UNL     1       8.444  19.513  55.029  1.00  0.00     0.160 HD
HETATM   12  H   UNL     1       8.749  19.065  56.652  1.00  0.00     0.160 HD
HETATM   13  H   UNL     1       8.752  21.682  54.538  1.00  0.00     0.165 HD
ENDBRANCH   6   7
BRANCH   6  14
HETATM   14  C   UNL     1       7.359  24.058  54.459  1.00  0.00    -0.013 A 
HETATM   15  C   UNL     1       6.194  24.845  54.582  1.00  0.00     0.042 A 
HETATM   16 CL   UNL     1       5.363  25.043  56.088  1.00  0.00    -0.084 Cl
HETATM   17  C   UNL     1       5.652  25.512  53.478  1.00  0.00     0.024 A 
HETATM   18  C   UNL     1       6.259  25.413  52.229  1.00  0.00     0.002 A 
HETATM   19  C   UNL     1       7.415  24.655  52.087  1.00  0.00     0.001 A 
HETATM   20  C   UNL     1       7.964  23.991  53.189  1.00  0.00     0.011 A 
ENDBRANCH   6  14
ENDBRANCH   5   6
ENDBRANCH   2   5
BRANCH   1  21
HETATM   21  N   UNL     1       7.875  27.331  57.495  1.00  0.00    -0.266 N 
HETATM   22  C   UNL     1       8.395  28.613  57.601  1.00  0.00     0.260 C 
HETATM   23  O   UNL     1       9.529  28.917  57.225  1.00  0.00    -0.269 OA
HETATM   24  H   UNL     1       6.868  27.194  57.564  1.00  0.00     0.190 HD
BRANCH  22  25
HETATM   25  C   UNL     1       7.401  29.617  58.179  1.00  0.00     0.280 C 
BRANCH  25  26
HETATM   26  O   UNL     1       8.084  30.850  58.390  1.00  0.00    -0.342 OA
BRANCH  26  27
HETATM   27  C   UNL     1       8.166  31.322  59.668  1.00  0.00     0.069 A 
HETATM   28  C   UNL     1       7.361  32.313  60.232  1.00  0.00     0.043 A 
HETATM   29  C   UNL     1       7.535  32.691  61.574  1.00  0.00    -0.059 A 
HETATM   30  C   UNL     1       6.642  33.717  62.206  1.00  0.00     0.048 C 
HETATM   31  C   UNL     1       8.515  32.053  62.346  1.00  0.00     0.007 A 
HETATM   32  C   UNL     1       9.320  31.065  61.785  1.00  0.00     0.003 A 
HETATM   33  C   UNL     1       9.141  30.700  60.451  1.00  0.00     0.037 A 
ENDBRANCH  26  27
ENDBRANCH  25  26
ENDBRANCH  22  25
ENDBRANCH   1  21
TORSDOF 8
ENDMDL
MODEL 9
REMARK VINA RESULT:      -8.4      5.790      8.942
REMARK  8 active torsions:
REMARK  status: ('A' for Active; 'I' for Inactive)
REMARK    1  A    between atoms: C_4  and  O_5 
REMARK    2  A    between atoms: O_5  and  C_6 
REMARK    3  A    between atoms: C_6  and  C_7 
REMARK       I    between atoms: C_7  and  N_8 
REMARK    4  A    between atoms: N_8  and  N_9 
REMARK       I    between atoms: N_9  and  C_10 
REMARK    5  A    between atoms: C_10  and  C_11 
REMARK    6  A    between atoms: C_11  and  C_12 
REMARK    7  A    between atoms: C_12  and  N_13 
REMARK    8  A    between atoms: C_12  and  C_17 
REMARK       I    between atoms: N_13  and  C_14 
REMARK       I    between atoms: C_14  and  N_15 
ROOT
HETATM    1  N   UNL     1       3.520  27.442  53.202  1.00  0.00    -0.267 N 
HETATM    2  C   UNL     1       3.777  28.700  52.679  1.00  0.00     0.238 C 
HETATM    3  O   UNL     1       4.569  29.494  53.179  1.00  0.00    -0.272 OA
HETATM    4  H   UNL     1       3.048  26.749  52.623  1.00  0.00     0.190 HD
ENDROOT
BRANCH   2   5
HETATM    5  C   UNL     1       2.998  28.990  51.418  1.00  0.00     0.134 C 
BRANCH   5   6
HETATM    6  C   UNL     1       3.869  28.921  50.151  1.00  0.00     0.130 C 
BRANCH   6   7
HETATM    7  N   UNL     1       4.098  30.235  49.546  1.00  0.00    -0.334 N 
HETATM    8  C   UNL     1       5.300  30.864  49.656  1.00  0.00     0.314 C 
HETATM    9  N   UNL     1       5.278  32.111  49.131  1.00  0.00    -0.352 N 
HETATM   10  O   UNL     1       6.287  30.414  50.215  1.00  0.00    -0.248 OA
HETATM   11  H   UNL     1       4.660  32.278  48.349  1.00  0.00     0.160 HD
HETATM   12  H   UNL     1       6.185  32.557  49.074  1.00  0.00     0.160 HD
HETATM   13  H   UNL     1       3.302  30.862  49.439  1.00  0.00     0.165 HD
ENDBRANCH   6   7
BRANCH   6  14
HETATM   14  C   UNL     1       3.380  27.876  49.152  1.00  0.00    -0.013 A 
HETATM   15  C   UNL     1       2.170  28.050  48.447  1.00  0.00     0.042 A 
HETATM   16 CL   UNL     1       1.172  29.451  48.650  1.00  0.00    -0.084 Cl
HETATM   17  C   UNL     1       1.717  27.087  47.540  1.00  0.00     0.024 A 
HETATM   18  C   UNL     1       2.459  25.932  47.312  1.00  0.00     0.002 A 
HETATM   19  C   UNL     1       3.662  25.745  47.984  1.00  0.00     0.001 A 
HETATM   20  C   UNL     1       4.121  26.708  48.887  1.00  0.00     0.011 A 
ENDBRANCH   6  14
ENDBRANCH   5   6
ENDBRANCH   2   5
BRANCH   1  21
HETATM   21  N   UNL     1       4.422  26.930  54.139  1.00  0.00    -0.266 N 
HETATM   22  C   UNL     1       5.408  26.056  53.704  1.00  0.00     0.260 C 
HETATM   23  O   UNL     1       5.439  25.584  52.565  1.00  0.00    -0.269 OA
HETATM   24  H   UNL     1       4.587  27.489  54.974  1.00  0.00     0.190 HD
BRANCH  22  25
HETATM   25  C   UNL     1       6.476  25.782  54.758  1.00  0.00     0.280 C 
BRANCH  25  26
HETATM   26  O   UNL     1       7.565  25.114  54.127  1.00  0.00    -0.342 OA
BRANCH  26  27
HETATM   27  C   UNL     1       7.703  23.773  54.346  1.00  0.00     0.069 A 
HETATM   28  C   UNL     1       7.892  22.795  53.368  1.00  0.00     0.043 A 
HETATM   29  C   UNL     1       8.044  21.447  53.733  1.00  0.00    -0.059 A 
HETATM   30  C   UNL     1       8.298  20.393  52.696  1.00  0.00     0.048 C 
HETATM   31  C   UNL     1       8.020  21.094  55.089  1.00  0.00     0.007 A 
HETATM   32  C   UNL     1       7.831  22.068  56.066  1.00  0.00     0.003 A 
HETATM   33  C   UNL     1       7.677  23.403  55.693  1.00  0.00     0.037 A 
ENDBRANCH  26  27
ENDBRANCH  25  26
ENDBRANCH  22  25
ENDBRANCH   1  21
TORSDOF 8
ENDMDL
MODEL 10
REMARK VINA RESULT:      -8.4      3.395     10.055
REMARK  8 active torsions:
REMARK  status: ('A' for Active; 'I' for Inactive)
REMARK    1  A    between atoms: C_4  and  O_5 
REMARK    2  A    between atoms: O_5  and  C_6 
REMARK    3  A    between atoms: C_6  and  C_7 
REMARK       I    between atoms: C_7  and  N_8 
REMARK    4  A    between atoms: N_8  and  N_9 
REMARK       I    between atoms: N_9  and  C_10 
REMARK    5  A    between atoms: C_10  and  C_11 
REMARK    6  A    between atoms: C_11  and  C_12 
REMARK    7  A    between atoms: C_12  and  N_13 
REMARK    8  A    between atoms: C_12  and  C_17 
REMARK       I    between atoms: N_13  and  C_14 
REMARK       I    between atoms: C_14  and  N_15 
ROOT
HETATM    1  N   UNL     1       7.195  30.263  58.814  1.00  0.00    -0.267 N 
HETATM    2  C   UNL     1       6.794  31.585  58.710  1.00  0.00     0.238 C 
HETATM    3  O   UNL     1       6.186  32.037  57.743  1.00  0.00    -0.272 OA
HETATM    4  H   UNL     1       7.474  29.896  59.722  1.00  0.00     0.190 HD
ENDROOT
BRANCH   2   5
HETATM    5  C   UNL     1       7.163  32.414  59.918  1.00  0.00     0.134 C 
BRANCH   5   6
HETATM    6  C   UNL     1       5.963  32.685  60.843  1.00  0.00     0.130 C 
BRANCH   6   7
HETATM    7  N   UNL     1       4.943  33.531  60.219  1.00  0.00    -0.334 N 
HETATM    8  C   UNL     1       3.678  33.074  60.007  1.00  0.00     0.314 C 
HETATM    9  N   UNL     1       2.920  33.959  59.320  1.00  0.00    -0.352 N 
HETATM   10  O   UNL     1       3.259  31.974  60.328  1.00  0.00    -0.248 OA
HETATM   11  H   UNL     1       3.115  34.942  59.450  1.00  0.00     0.160 HD
HETATM   12  H   UNL     1       1.940  33.712  59.261  1.00  0.00     0.160 HD
HETATM   13  H   UNL     1       5.247  34.249  59.564  1.00  0.00     0.165 HD
ENDBRANCH   6   7
BRANCH   6  14
HETATM   14  C   UNL     1       6.381  33.169  62.228  1.00  0.00    -0.013 A 
HETATM   15  C   UNL     1       7.288  32.430  63.017  1.00  0.00     0.042 A 
HETATM   16 CL   UNL     1       7.996  30.947  62.472  1.00  0.00    -0.084 Cl
HETATM   17  C   UNL     1       7.662  32.870  64.292  1.00  0.00     0.024 A 
HETATM   18  C   UNL     1       7.145  34.054  64.807  1.00  0.00     0.002 A 
HETATM   19  C   UNL     1       6.261  34.807  64.042  1.00  0.00     0.001 A 
HETATM   20  C   UNL     1       5.889  34.375  62.765  1.00  0.00     0.011 A 
ENDBRANCH   6  14
ENDBRANCH   5   6
ENDBRANCH   2   5
BRANCH   1  21
HETATM   21  N   UNL     1       6.613  29.335  57.945  1.00  0.00    -0.266 N 
HETATM   22  C   UNL     1       7.370  28.251  57.525  1.00  0.00     0.260 C 
HETATM   23  O   UNL     1       8.577  28.140  57.753  1.00  0.00    -0.269 OA
HETATM   24  H   UNL     1       5.598  29.253  57.971  1.00  0.00     0.190 HD
BRANCH  22  25
HETATM   25  C   UNL     1       6.547  27.186  56.805  1.00  0.00     0.280 C 
BRANCH  25  26
HETATM   26  O   UNL     1       7.206  25.932  56.960  1.00  0.00    -0.342 OA
BRANCH  26  27
HETATM   27  C   UNL     1       7.311  25.127  55.863  1.00  0.00     0.069 A 
HETATM   28  C   UNL     1       7.449  25.553  54.540  1.00  0.00     0.043 A 
HETATM   29  C   UNL     1       7.572  24.614  53.502  1.00  0.00    -0.059 A 
HETATM   30  C   UNL     1       7.772  25.060  52.084  1.00  0.00     0.048 C 
HETATM   31  C   UNL     1       7.570  23.247  53.807  1.00  0.00     0.007 A 
HETATM   32  C   UNL     1       7.433  22.820  55.125  1.00  0.00     0.003 A 
HETATM   33  C   UNL     1       7.307  23.760  56.148  1.00  0.00     0.037 A 
ENDBRANCH  26  27
ENDBRANCH  25  26
ENDBRANCH  22  25
ENDBRANCH   1  21
TORSDOF 8
ENDMDL
