MODEL 1
REMARK VINA RESULT:      -9.7      0.000      0.000
REMARK  5 active torsions:
REMARK  status: ('A' for Active; 'I' for Inactive)
REMARK    1  A    between atoms: C_4  and  C_5 
REMARK    2  A    between atoms: N_7  and  C_8 
REMARK    3  A    between atoms: C_8  and  C_9 
REMARK    4  A    between atoms: C_9  and  N_10 
REMARK       I    between atoms: N_10  and  C_11 
REMARK    5  A    between atoms: C_11  and  C_12 
ROOT
HETATM    1  N   UNL     1       6.172  25.859  51.256  1.00  0.00    -0.359 N 
HETATM    2  C   UNL     1       6.089  25.360  52.539  1.00  0.00     0.230 C 
HETATM    3  O   UNL     1       5.013  25.090  53.075  1.00  0.00    -0.272 OA
HETATM    4  H   UNL     1       7.070  26.205  50.939  1.00  0.00     0.162 HD
ENDROOT
BRANCH   1   5
HETATM    5  C   UNL     1       4.998  26.258  50.495  1.00  0.00     0.144 C 
BRANCH   5   6
HETATM    6  C   UNL     1       5.178  27.511  49.633  1.00  0.00     0.174 C 
BRANCH   6   7
HETATM    7  N   UNL     1       4.785  28.718  50.357  1.00  0.00    -0.233 N 
HETATM    8  N   UNL     1       4.738  28.609  51.731  1.00  0.00    -0.169 NA
HETATM    9  C   UNL     1       4.444  29.669  52.420  1.00  0.00     0.087 A 
HETATM   10  C   UNL     1       4.116  30.978  51.815  1.00  0.00     0.040 A 
HETATM   11  C   UNL     1       4.214  31.072  50.488  1.00  0.00     0.078 A 
HETATM   12  C   UNL     1       4.619  29.911  49.671  1.00  0.00     0.263 A 
HETATM   13  O   UNL     1       4.770  30.059  48.460  1.00  0.00    -0.267 OA
BRANCH   9  14
HETATM   14  C   UNL     1       4.406  29.576  53.910  1.00  0.00    -0.006 A 
HETATM   15  C   UNL     1       4.603  30.695  54.730  1.00  0.00     0.014 A 
HETATM   16  C   UNL     1       4.571  30.560  56.121  1.00  0.00     0.001 A 
HETATM   17  C   UNL     1       4.352  29.311  56.698  1.00  0.00     0.000 A 
HETATM   18  C   UNL     1       4.171  28.190  55.889  1.00  0.00     0.001 A 
HETATM   19  C   UNL     1       4.203  28.320  54.500  1.00  0.00     0.014 A 
ENDBRANCH   9  14
ENDBRANCH   6   7
ENDBRANCH   5   6
ENDBRANCH   1   5
BRANCH   2  20
HETATM   20  C   UNL     1       7.418  25.219  53.306  1.00  0.00     0.149 C 
HETATM   21  C   UNL     1       7.598  23.796  53.782  1.00  0.00    -0.007 A 
HETATM   22  C   UNL     1       7.618  23.508  55.147  1.00  0.00     0.083 A 
HETATM   23  C   UNL     1       7.729  22.741  52.861  1.00  0.00     0.011 A 
HETATM   24  C   UNL     1       7.750  22.191  55.591  1.00  0.00     0.038 A 
HETATM   25  O   UNL     1       7.510  24.467  56.124  1.00  0.00    -0.310 OA
HETATM   26  C   UNL     1       7.875  21.150  54.671  1.00  0.00     0.003 A 
HETATM   27  C   UNL     1       7.866  21.426  53.305  1.00  0.00     0.001 A 
HETATM   28  C   UNL     1       7.599  25.787  55.757  1.00  0.00     0.083 A 
HETATM   29  C   UNL     1       7.572  26.222  54.428  1.00  0.00    -0.007 A 
HETATM   30  C   UNL     1       7.713  26.708  56.801  1.00  0.00     0.038 A 
HETATM   31  C   UNL     1       7.674  27.596  54.159  1.00  0.00     0.011 A 
HETATM   32  C   UNL     1       7.793  28.514  55.203  1.00  0.00     0.001 A 
HETATM   33  C   UNL     1       7.811  28.071  56.523  1.00  0.00     0.003 A 
ENDBRANCH   2  20
TORSDOF 5
ENDMDL
MODEL 2
REMARK VINA RESULT:      -9.6      2.030      4.436
REMARK  5 active torsions:
REMARK  status: ('A' for Active; 'I' for Inactive)
REMARK    1  A    between atoms: C_4  and  C_5 
REMARK    2  A    between atoms: N_7  and  C_8 
REMARK    3  A    between atoms: C_8  and  C_9 
REMARK    4  A    between atoms: C_9  and  N_10 
REMARK       I    between atoms: N_10  and  C_11 
REMARK    5  A    between atoms: C_11  and  C_12 
ROOT
HETATM    1  N   UNL     1       5.707  25.477  52.780  1.00  0.00    -0.359 N 
HETATM    2  C   UNL     1       6.904  24.915  53.173  1.00  0.00     0.230 C 
HETATM    3  O   UNL     1       7.970  25.170  52.610  1.00  0.00    -0.272 OA
HETATM    4  H   UNL     1       4.854  25.105  53.182  1.00  0.00     0.162 HD
ENDROOT
BRANCH   1   5
HETATM    5  C   UNL     1       5.581  26.285  51.577  1.00  0.00     0.144 C 
BRANCH   5   6
HETATM    6  C   UNL     1       5.785  27.788  51.781  1.00  0.00     0.174 C 
BRANCH   6   7
HETATM    7  N   UNL     1       5.461  28.190  53.148  1.00  0.00    -0.233 N 
HETATM    8  N   UNL     1       6.534  28.492  53.959  1.00  0.00    -0.169 NA
HETATM    9  C   UNL     1       6.294  28.904  55.166  1.00  0.00     0.087 A 
HETATM   10  C   UNL     1       4.934  29.029  55.736  1.00  0.00     0.040 A 
HETATM   11  C   UNL     1       3.911  28.779  54.919  1.00  0.00     0.078 A 
HETATM   12  C   UNL     1       4.137  28.380  53.516  1.00  0.00     0.263 A 
HETATM   13  O   UNL     1       3.168  28.231  52.776  1.00  0.00    -0.267 OA
BRANCH   9  14
HETATM   14  C   UNL     1       7.442  29.253  56.054  1.00  0.00    -0.006 A 
HETATM   15  C   UNL     1       8.772  29.037  55.669  1.00  0.00     0.014 A 
HETATM   16  C   UNL     1       9.816  29.368  56.537  1.00  0.00     0.001 A 
HETATM   17  C   UNL     1       9.539  29.904  57.793  1.00  0.00     0.000 A 
HETATM   18  C   UNL     1       8.218  30.105  58.190  1.00  0.00     0.001 A 
HETATM   19  C   UNL     1       7.172  29.776  57.326  1.00  0.00     0.014 A 
ENDBRANCH   9  14
ENDBRANCH   6   7
ENDBRANCH   5   6
ENDBRANCH   1   5
BRANCH   2  20
HETATM   20  C   UNL     1       6.835  23.888  54.319  1.00  0.00     0.149 C 
HETATM   21  C   UNL     1       7.194  24.544  55.632  1.00  0.00    -0.007 A 
HETATM   22  C   UNL     1       8.341  24.153  56.323  1.00  0.00     0.083 A 
HETATM   23  C   UNL     1       6.392  25.568  56.166  1.00  0.00     0.011 A 
HETATM   24  C   UNL     1       8.695  24.780  57.519  1.00  0.00     0.038 A 
HETATM   25  O   UNL     1       9.182  23.157  55.891  1.00  0.00    -0.310 OA
HETATM   26  C   UNL     1       7.896  25.798  58.041  1.00  0.00     0.003 A 
HETATM   27  C   UNL     1       6.743  26.190  57.364  1.00  0.00     0.001 A 
HETATM   28  C   UNL     1       8.773  22.363  54.849  1.00  0.00     0.083 A 
HETATM   29  C   UNL     1       7.655  22.643  54.058  1.00  0.00    -0.007 A 
HETATM   30  C   UNL     1       9.552  21.231  54.597  1.00  0.00     0.038 A 
HETATM   31  C   UNL     1       7.318  21.762  53.017  1.00  0.00     0.011 A 
HETATM   32  C   UNL     1       8.095  20.629  52.771  1.00  0.00     0.001 A 
HETATM   33  C   UNL     1       9.212  20.364  53.560  1.00  0.00     0.003 A 
ENDBRANCH   2  20
TORSDOF 5
ENDMDL
MODEL 3
REMARK VINA RESULT:      -9.5      4.343      6.686
REMARK  5 active torsions:
REMARK  status: ('A' for Active; 'I' for Inactive)
REMARK    1  A    between atoms: C_4  and  C_5 
REMARK    2  A    between atoms: N_7  and  C_8 
REMARK    3  A    between atoms: C_8  and  C_9 
REMARK    4  A    between atoms: C_9  and  N_10 
REMARK       I    between atoms: N_10  and  C_11 
REMARK    5  A    between atoms: C_11  and  C_12 
ROOT
HETATM    1  N   UNL     1       6.109  27.535  56.389  1.00  0.00    -0.359 N 
HETATM    2  C   UNL     1       6.533  27.334  55.092  1.00  0.00     0.230 C 
HETATM    3  O   UNL     1       7.465  27.969  54.596  1.00  0.00    -0.272 OA
HETATM    4  H   UNL     1       5.242  27.095  56.677  1.00  0.00     0.162 HD
ENDROOT
BRANCH   1   5
HETATM    5  C   UNL     1       6.616  28.617  57.218  1.00  0.00     0.144 C 
BRANCH   5   6
HETATM    6  C   UNL     1       7.972  28.347  57.877  1.00  0.00     0.174 C 
BRANCH   6   7
HETATM    7  N   UNL     1       8.625  29.591  58.281  1.00  0.00    -0.233 N 
HETATM    8  N   UNL     1       8.080  30.231  59.374  1.00  0.00    -0.169 NA
HETATM    9  C   UNL     1       8.658  31.312  59.802  1.00  0.00     0.087 A 
HETATM   10  C   UNL     1       9.843  31.919  59.159  1.00  0.00     0.040 A 
HETATM   11  C   UNL     1      10.381  31.258  58.134  1.00  0.00     0.078 A 
HETATM   12  C   UNL     1       9.802  29.985  57.661  1.00  0.00     0.263 A 
HETATM   13  O   UNL     1      10.370  29.369  56.763  1.00  0.00    -0.267 OA
BRANCH   9  14
HETATM   14  C   UNL     1       8.094  32.010  60.995  1.00  0.00    -0.006 A 
HETATM   15  C   UNL     1       8.723  31.969  62.247  1.00  0.00     0.014 A 
HETATM   16  C   UNL     1       8.154  32.627  63.340  1.00  0.00     0.001 A 
HETATM   17  C   UNL     1       6.953  33.320  63.193  1.00  0.00     0.000 A 
HETATM   18  C   UNL     1       6.313  33.351  61.954  1.00  0.00     0.001 A 
HETATM   19  C   UNL     1       6.878  32.695  60.860  1.00  0.00     0.014 A 
ENDBRANCH   9  14
ENDBRANCH   6   7
ENDBRANCH   5   6
ENDBRANCH   1   5
BRANCH   2  20
HETATM   20  C   UNL     1       5.732  26.315  54.259  1.00  0.00     0.149 C 
HETATM   21  C   UNL     1       6.548  25.062  54.042  1.00  0.00    -0.007 A 
HETATM   22  C   UNL     1       6.953  24.700  52.755  1.00  0.00     0.083 A 
HETATM   23  C   UNL     1       6.926  24.253  55.127  1.00  0.00     0.011 A 
HETATM   24  C   UNL     1       7.735  23.562  52.554  1.00  0.00     0.038 A 
HETATM   25  O   UNL     1       6.625  25.416  51.630  1.00  0.00    -0.310 OA
HETATM   26  C   UNL     1       8.110  22.767  53.637  1.00  0.00     0.003 A 
HETATM   27  C   UNL     1       7.704  23.113  54.924  1.00  0.00     0.001 A 
HETATM   28  C   UNL     1       5.684  26.410  51.739  1.00  0.00     0.083 A 
HETATM   29  C   UNL     1       5.201  26.885  52.962  1.00  0.00    -0.007 A 
HETATM   30  C   UNL     1       5.221  26.950  50.537  1.00  0.00     0.038 A 
HETATM   31  C   UNL     1       4.235  27.904  52.963  1.00  0.00     0.011 A 
HETATM   32  C   UNL     1       3.769  28.438  51.761  1.00  0.00     0.001 A 
HETATM   33  C   UNL     1       4.263  27.963  50.549  1.00  0.00     0.003 A 
ENDBRANCH   2  20
TORSDOF 5
ENDMDL
MODEL 4
REMARK VINA RESULT:      -9.5      4.139      6.363
REMARK  5 active torsions:
REMARK  status: ('A' for Active; 'I' for Inactive)
REMARK    1  A    between atoms: C_4  and  C_5 
REMARK    2  A    between atoms: N_7  and  C_8 
REMARK    3  A    between atoms: C_8  and  C_9 
REMARK    4  A    between atoms: C_9  and  N_10 
REMARK       I    between atoms: N_10  and  C_11 
REMARK    5  A    between atoms: C_11  and  C_12 
ROOT
HETATM    1  N   UNL     1       7.181  26.090  57.156  1.00  0.00    -0.359 N 
HETATM    2  C   UNL     1       7.803  24.980  56.622  1.00  0.00     0.230 C 
HETATM    3  O   UNL     1       9.018  24.799  56.707  1.00  0.00    -0.272 OA
HETATM    4  H   UNL     1       6.210  26.251  56.913  1.00  0.00     0.162 HD
ENDROOT
BRANCH   1   5
HETATM    5  C   UNL     1       7.923  27.208  57.716  1.00  0.00     0.144 C 
BRANCH   5   6
HETATM    6  C   UNL     1       7.665  28.559  57.043  1.00  0.00     0.174 C 
BRANCH   6   7
HETATM    7  N   UNL     1       8.448  29.624  57.667  1.00  0.00    -0.233 N 
HETATM    8  N   UNL     1       7.905  30.185  58.804  1.00  0.00    -0.169 NA
HETATM    9  C   UNL     1       8.588  31.099  59.423  1.00  0.00     0.087 A 
HETATM   10  C   UNL     1       9.899  31.602  58.957  1.00  0.00     0.040 A 
HETATM   11  C   UNL     1      10.426  31.012  57.884  1.00  0.00     0.078 A 
HETATM   12  C   UNL     1       9.718  29.917  57.192  1.00  0.00     0.263 A 
HETATM   13  O   UNL     1      10.271  29.349  56.253  1.00  0.00    -0.267 OA
BRANCH   9  14
HETATM   14  C   UNL     1       8.026  31.706  60.665  1.00  0.00    -0.006 A 
HETATM   15  C   UNL     1       6.761  32.309  60.692  1.00  0.00     0.014 A 
HETATM   16  C   UNL     1       6.278  32.876  61.874  1.00  0.00     0.001 A 
HETATM   17  C   UNL     1       7.056  32.852  63.030  1.00  0.00     0.000 A 
HETATM   18  C   UNL     1       8.323  32.269  63.008  1.00  0.00     0.001 A 
HETATM   19  C   UNL     1       8.808  31.702  61.829  1.00  0.00     0.014 A 
ENDBRANCH   9  14
ENDBRANCH   6   7
ENDBRANCH   5   6
ENDBRANCH   1   5
BRANCH   2  20
HETATM   20  C   UNL     1       6.904  23.999  55.845  1.00  0.00     0.149 C 
HETATM   21  C   UNL     1       7.628  22.691  55.624  1.00  0.00    -0.007 A 
HETATM   22  C   UNL     1       7.955  22.278  54.331  1.00  0.00     0.083 A 
HETATM   23  C   UNL     1       7.997  21.881  56.712  1.00  0.00     0.011 A 
HETATM   24  C   UNL     1       8.654  21.087  54.125  1.00  0.00     0.038 A 
HETATM   25  O   UNL     1       7.629  22.991  53.204  1.00  0.00    -0.310 OA
HETATM   26  C   UNL     1       9.021  20.291  55.210  1.00  0.00     0.003 A 
HETATM   27  C   UNL     1       8.690  20.688  56.504  1.00  0.00     0.001 A 
HETATM   28  C   UNL     1       6.759  24.046  53.327  1.00  0.00     0.083 A 
HETATM   29  C   UNL     1       6.359  24.577  54.557  1.00  0.00    -0.007 A 
HETATM   30  C   UNL     1       6.283  24.592  52.133  1.00  0.00     0.038 A 
HETATM   31  C   UNL     1       5.461  25.656  54.574  1.00  0.00     0.011 A 
HETATM   32  C   UNL     1       4.982  26.196  53.379  1.00  0.00     0.001 A 
HETATM   33  C   UNL     1       5.394  25.665  52.159  1.00  0.00     0.003 A 
ENDBRANCH   2  20
TORSDOF 5
ENDMDL
MODEL 5
REMARK VINA RESULT:      -9.2      2.640      4.453
REMARK  5 active torsions:
REMARK  status: ('A' for Active; 'I' for Inactive)
REMARK    1  A    between atoms: C_4  and  C_5 
REMARK    2  A    between atoms: N_7  and  C_8 
REMARK    3  A    between atoms: C_8  and  C_9 
REMARK    4  A    between atoms: C_9  and  N_10 
REMARK       I    between atoms: N_10  and  C_11 
REMARK    5  A    between atoms: C_11  and  C_12 
ROOT
HETATM    1  N   UNL     1       6.349  25.511  51.542  1.00  0.00    -0.359 N 
HETATM    2  C   UNL     1       6.157  24.990  52.805  1.00  0.00     0.230 C 
HETATM    3  O   UNL     1       5.036  24.760  53.261  1.00  0.00    -0.272 OA
HETATM    4  H   UNL     1       7.282  25.821  51.294  1.00  0.00     0.162 HD
ENDROOT
BRANCH   1   5
HETATM    5  C   UNL     1       5.249  25.979  50.714  1.00  0.00     0.144 C 
BRANCH   5   6
HETATM    6  C   UNL     1       5.364  27.431  50.242  1.00  0.00     0.174 C 
BRANCH   6   7
HETATM    7  N   UNL     1       4.075  28.117  50.307  1.00  0.00    -0.233 N 
HETATM    8  N   UNL     1       3.325  28.102  49.151  1.00  0.00    -0.169 NA
HETATM    9  C   UNL     1       2.150  28.653  49.175  1.00  0.00     0.087 A 
HETATM   10  C   UNL     1       1.586  29.333  50.361  1.00  0.00     0.040 A 
HETATM   11  C   UNL     1       2.308  29.293  51.481  1.00  0.00     0.078 A 
HETATM   12  C   UNL     1       3.617  28.611  51.519  1.00  0.00     0.263 A 
HETATM   13  O   UNL     1       4.216  28.532  52.589  1.00  0.00    -0.267 OA
BRANCH   9  14
HETATM   14  C   UNL     1       1.314  28.632  47.938  1.00  0.00    -0.006 A 
HETATM   15  C   UNL     1       0.891  29.808  47.305  1.00  0.00     0.014 A 
HETATM   16  C   UNL     1       0.100  29.742  46.155  1.00  0.00     0.001 A 
HETATM   17  C   UNL     1      -0.280  28.505  45.638  1.00  0.00     0.000 A 
HETATM   18  C   UNL     1       0.123  27.330  46.271  1.00  0.00     0.001 A 
HETATM   19  C   UNL     1       0.913  27.392  47.420  1.00  0.00     0.014 A 
ENDBRANCH   9  14
ENDBRANCH   6   7
ENDBRANCH   5   6
ENDBRANCH   1   5
BRANCH   2  20
HETATM   20  C   UNL     1       7.423  24.772  53.655  1.00  0.00     0.149 C 
HETATM   21  C   UNL     1       7.627  23.298  53.920  1.00  0.00    -0.007 A 
HETATM   22  C   UNL     1       7.547  22.800  55.222  1.00  0.00     0.083 A 
HETATM   23  C   UNL     1       7.881  22.407  52.863  1.00  0.00     0.011 A 
HETATM   24  C   UNL     1       7.701  21.434  55.467  1.00  0.00     0.038 A 
HETATM   25  O   UNL     1       7.316  23.589  56.321  1.00  0.00    -0.310 OA
HETATM   26  C   UNL     1       7.949  20.555  54.412  1.00  0.00     0.003 A 
HETATM   27  C   UNL     1       8.040  21.043  53.110  1.00  0.00     0.001 A 
HETATM   28  C   UNL     1       7.375  24.953  56.171  1.00  0.00     0.083 A 
HETATM   29  C   UNL     1       7.438  25.590  54.928  1.00  0.00    -0.007 A 
HETATM   30  C   UNL     1       7.360  25.701  57.350  1.00  0.00     0.038 A 
HETATM   31  C   UNL     1       7.500  26.993  54.884  1.00  0.00     0.011 A 
HETATM   32  C   UNL     1       7.491  27.738  56.064  1.00  0.00     0.001 A 
HETATM   33  C   UNL     1       7.420  27.093  57.296  1.00  0.00     0.003 A 
ENDBRANCH   2  20
TORSDOF 5
ENDMDL
MODEL 6
REMARK VINA RESULT:      -9.0      5.139      7.601
REMARK  5 active torsions:
REMARK  status: ('A' for Active; 'I' for Inactive)
REMARK    1  A    between atoms: C_4  and  C_5 
REMARK    2  A    between atoms: N_7  and  C_8 
REMARK    3  A    between atoms: C_8  and  C_9 
REMARK    4  A    between atoms: C_9  and  N_10 
REMARK       I    between atoms: N_10  and  C_11 
REMARK    5  A    between atoms: C_11  and  C_12 
ROOT
HETATM    1  N   UNL     1       6.740  29.093  56.770  1.00  0.00    -0.359 N 
HETATM    2  C   UNL     1       6.238  27.893  56.309  1.00  0.00     0.230 C 
HETATM    3  O   UNL     1       5.155  27.443  56.684  1.00  0.00    -0.272 OA
HETATM    4  H   UNL     1       7.700  29.324  56.542  1.00  0.00     0.162 HD
ENDROOT
BRANCH   1   5
HETATM    5  C   UNL     1       6.112  29.839  57.848  1.00  0.00     0.144 C 
BRANCH   5   6
HETATM    6  C   UNL     1       6.757  31.192  58.162  1.00  0.00     0.174 C 
BRANCH   6   7
HETATM    7  N   UNL     1       7.515  31.145  59.411  1.00  0.00    -0.233 N 
HETATM    8  N   UNL     1       6.940  31.782  60.490  1.00  0.00    -0.169 NA
HETATM    9  C   UNL     1       7.551  31.723  61.634  1.00  0.00     0.087 A 
HETATM   10  C   UNL     1       8.850  31.046  61.837  1.00  0.00     0.040 A 
HETATM   11  C   UNL     1       9.364  30.397  60.792  1.00  0.00     0.078 A 
HETATM   12  C   UNL     1       8.665  30.374  59.491  1.00  0.00     0.263 A 
HETATM   13  O   UNL     1       9.134  29.703  58.575  1.00  0.00    -0.267 OA
BRANCH   9  14
HETATM   14  C   UNL     1       6.935  32.390  62.818  1.00  0.00    -0.006 A 
HETATM   15  C   UNL     1       5.548  32.539  62.951  1.00  0.00     0.014 A 
HETATM   16  C   UNL     1       5.014  33.181  64.072  1.00  0.00     0.001 A 
HETATM   17  C   UNL     1       5.860  33.685  65.058  1.00  0.00     0.000 A 
HETATM   18  C   UNL     1       7.242  33.557  64.925  1.00  0.00     0.001 A 
HETATM   19  C   UNL     1       7.779  32.916  63.807  1.00  0.00     0.014 A 
ENDBRANCH   9  14
ENDBRANCH   6   7
ENDBRANCH   5   6
ENDBRANCH   1   5
BRANCH   2  20
HETATM   20  C   UNL     1       7.140  27.099  55.344  1.00  0.00     0.149 C 
HETATM   21  C   UNL     1       6.476  26.974  53.993  1.00  0.00    -0.007 A 
HETATM   22  C   UNL     1       6.093  25.721  53.511  1.00  0.00     0.083 A 
HETATM   23  C   UNL     1       6.217  28.112  53.211  1.00  0.00     0.011 A 
HETATM   24  C   UNL     1       5.449  25.603  52.278  1.00  0.00     0.038 A 
HETATM   25  O   UNL     1       6.312  24.548  54.192  1.00  0.00    -0.310 OA
HETATM   26  C   UNL     1       5.192  26.739  51.510  1.00  0.00     0.003 A 
HETATM   27  C   UNL     1       5.578  27.994  51.976  1.00  0.00     0.001 A 
HETATM   28  C   UNL     1       7.130  24.577  55.295  1.00  0.00     0.083 A 
HETATM   29  C   UNL     1       7.574  25.759  55.896  1.00  0.00    -0.007 A 
HETATM   30  C   UNL     1       7.502  23.335  55.815  1.00  0.00     0.038 A 
HETATM   31  C   UNL     1       8.412  25.678  57.020  1.00  0.00     0.011 A 
HETATM   32  C   UNL     1       8.788  24.437  57.534  1.00  0.00     0.001 A 
HETATM   33  C   UNL     1       8.333  23.266  56.933  1.00  0.00     0.003 A 
ENDBRANCH   2  20
TORSDOF 5
ENDMDL
MODEL 7
REMARK VINA RESULT:      -9.0      2.293      3.965
REMARK  5 active torsions:
REMARK  status: ('A' for Active; 'I' for Inactive)
REMARK    1  A    between atoms: C_4  and  C_5 
REMARK    2  A    between atoms: N_7  and  C_8 
REMARK    3  A    between atoms: C_8  and  C_9 
REMARK    4  A    between atoms: C_9  and  N_10 
REMARK       I    between atoms: N_10  and  C_11 
REMARK    5  A    between atoms: C_11  and  C_12 
ROOT
HETATM    1  N   UNL     1       6.212  26.037  51.989  1.00  0.00    -0.359 N 
HETATM    2  C   UNL     1       6.114  25.233  53.105  1.00  0.00     0.230 C 
HETATM    3  O   UNL     1       5.036  24.801  53.516  1.00  0.00    -0.272 OA
HETATM    4  H   UNL     1       7.104  26.481  51.802  1.00  0.00     0.162 HD
ENDROOT
BRANCH   1   5
HETATM    5  C   UNL     1       5.044  26.570  51.305  1.00  0.00     0.144 C 
BRANCH   5   6
HETATM    6  C   UNL     1       4.739  25.928  49.949  1.00  0.00     0.174 C 
BRANCH   6   7
HETATM    7  N   UNL     1       4.152  26.894  49.021  1.00  0.00    -0.233 N 
HETATM    8  N   UNL     1       4.693  28.162  49.049  1.00  0.00    -0.169 NA
HETATM    9  C   UNL     1       4.241  29.040  48.208  1.00  0.00     0.087 A 
HETATM   10  C   UNL     1       3.149  28.771  47.247  1.00  0.00     0.040 A 
HETATM   11  C   UNL     1       2.674  27.526  47.205  1.00  0.00     0.078 A 
HETATM   12  C   UNL     1       3.212  26.476  48.092  1.00  0.00     0.263 A 
HETATM   13  O   UNL     1       2.799  25.325  47.970  1.00  0.00    -0.267 OA
BRANCH   9  14
HETATM   14  C   UNL     1       4.827  30.413  48.210  1.00  0.00    -0.006 A 
HETATM   15  C   UNL     1       4.641  31.303  47.143  1.00  0.00     0.014 A 
HETATM   16  C   UNL     1       5.218  32.575  47.181  1.00  0.00     0.001 A 
HETATM   17  C   UNL     1       5.987  32.962  48.276  1.00  0.00     0.000 A 
HETATM   18  C   UNL     1       6.191  32.077  49.334  1.00  0.00     0.001 A 
HETATM   19  C   UNL     1       5.617  30.805  49.300  1.00  0.00     0.014 A 
ENDBRANCH   9  14
ENDBRANCH   6   7
ENDBRANCH   5   6
ENDBRANCH   1   5
BRANCH   2  20
HETATM   20  C   UNL     1       7.425  24.953  53.864  1.00  0.00     0.149 C 
HETATM   21  C   UNL     1       7.624  23.464  54.033  1.00  0.00    -0.007 A 
HETATM   22  C   UNL     1       7.615  22.893  55.307  1.00  0.00     0.083 A 
HETATM   23  C   UNL     1       7.802  22.632  52.915  1.00  0.00     0.011 A 
HETATM   24  C   UNL     1       7.764  21.514  55.465  1.00  0.00     0.038 A 
HETATM   25  O   UNL     1       7.460  23.621  56.461  1.00  0.00    -0.310 OA
HETATM   26  C   UNL     1       7.936  20.694  54.350  1.00  0.00     0.003 A 
HETATM   27  C   UNL     1       7.956  21.255  53.074  1.00  0.00     0.001 A 
HETATM   28  C   UNL     1       7.530  24.990  56.385  1.00  0.00     0.083 A 
HETATM   29  C   UNL     1       7.528  25.697  55.179  1.00  0.00    -0.007 A 
HETATM   30  C   UNL     1       7.595  25.670  57.603  1.00  0.00     0.038 A 
HETATM   31  C   UNL     1       7.607  27.099  55.210  1.00  0.00     0.011 A 
HETATM   32  C   UNL     1       7.678  27.775  56.428  1.00  0.00     0.001 A 
HETATM   33  C   UNL     1       7.671  27.062  57.624  1.00  0.00     0.003 A 
ENDBRANCH   2  20
TORSDOF 5
ENDMDL
MODEL 8
REMARK VINA RESULT:      -8.9      3.846      5.796
REMARK  5 active torsions:
REMARK  status: ('A' for Active; 'I' for Inactive)
REMARK    1  A    between atoms: C_4  and  C_5 
REMARK    2  A    between atoms: N_7  and  C_8 
REMARK    3  A    between atoms: C_8  and  C_9 
REMARK    4  A    between atoms: C_9  and  N_10 
REMARK       I    between atoms: N_10  and  C_11 
REMARK    5  A    between atoms: C_11  and  C_12 
ROOT
HETATM    1  N   UNL     1       7.676  26.567  55.976  1.00  0.00    -0.359 N 
HETATM    2  C   UNL     1       6.500  25.878  56.191  1.00  0.00     0.230 C 
HETATM    3  O   UNL     1       5.980  25.790  57.304  1.00  0.00    -0.272 OA
HETATM    4  H   UNL     1       8.126  26.466  55.074  1.00  0.00     0.162 HD
ENDROOT
BRANCH   1   5
HETATM    5  C   UNL     1       8.476  27.104  57.066  1.00  0.00     0.144 C 
BRANCH   5   6
HETATM    6  C   UNL     1       8.911  28.562  56.892  1.00  0.00     0.174 C 
BRANCH   6   7
HETATM    7  N   UNL     1       7.896  29.485  57.397  1.00  0.00    -0.233 N 
HETATM    8  N   UNL     1       8.137  30.025  58.642  1.00  0.00    -0.169 NA
HETATM    9  C   UNL     1       7.290  30.890  59.111  1.00  0.00     0.087 A 
HETATM   10  C   UNL     1       6.058  31.299  58.401  1.00  0.00     0.040 A 
HETATM   11  C   UNL     1       5.870  30.801  57.179  1.00  0.00     0.078 A 
HETATM   12  C   UNL     1       6.847  29.872  56.577  1.00  0.00     0.263 A 
HETATM   13  O   UNL     1       6.674  29.495  55.420  1.00  0.00    -0.267 OA
BRANCH   9  14
HETATM   14  C   UNL     1       7.542  31.499  60.450  1.00  0.00    -0.006 A 
HETATM   15  C   UNL     1       6.854  32.638  60.890  1.00  0.00     0.014 A 
HETATM   16  C   UNL     1       7.131  33.183  62.147  1.00  0.00     0.001 A 
HETATM   17  C   UNL     1       8.099  32.602  62.964  1.00  0.00     0.000 A 
HETATM   18  C   UNL     1       8.800  31.479  62.525  1.00  0.00     0.001 A 
HETATM   19  C   UNL     1       8.527  30.932  61.271  1.00  0.00     0.014 A 
ENDBRANCH   9  14
ENDBRANCH   6   7
ENDBRANCH   5   6
ENDBRANCH   1   5
BRANCH   2  20
HETATM   20  C   UNL     1       5.897  25.157  54.970  1.00  0.00     0.149 C 
HETATM   21  C   UNL     1       6.825  24.060  54.501  1.00  0.00    -0.007 A 
HETATM   22  C   UNL     1       7.427  24.138  53.244  1.00  0.00     0.083 A 
HETATM   23  C   UNL     1       7.109  22.957  55.325  1.00  0.00     0.011 A 
HETATM   24  C   UNL     1       8.311  23.144  52.820  1.00  0.00     0.038 A 
HETATM   25  O   UNL     1       7.205  25.166  52.361  1.00  0.00    -0.310 OA
HETATM   26  C   UNL     1       8.591  22.055  53.646  1.00  0.00     0.003 A 
HETATM   27  C   UNL     1       7.988  21.962  54.899  1.00  0.00     0.001 A 
HETATM   28  C   UNL     1       6.187  26.049  52.629  1.00  0.00     0.083 A 
HETATM   29  C   UNL     1       5.509  26.097  53.850  1.00  0.00    -0.007 A 
HETATM   30  C   UNL     1       5.855  26.932  51.599  1.00  0.00     0.038 A 
HETATM   31  C   UNL     1       4.479  27.036  54.021  1.00  0.00     0.011 A 
HETATM   32  C   UNL     1       4.145  27.914  52.988  1.00  0.00     0.001 A 
HETATM   33  C   UNL     1       4.833  27.863  51.779  1.00  0.00     0.003 A 
ENDBRANCH   2  20
TORSDOF 5
ENDMDL
MODEL 9
REMARK VINA RESULT:      -8.8      3.981      8.380
REMARK  5 active torsions:
REMARK  status: ('A' for Active; 'I' for Inactive)
REMARK    1  A    between atoms: C_4  and  C_5 
REMARK    2  A    between atoms: N_7  and  C_8 
REMARK    3  A    between atoms: C_8  and  C_9 
REMARK    4  A    between atoms: C_9  and  N_10 
REMARK       I    between atoms: N_10  and  C_11 
REMARK    5  A    between atoms: C_11  and  C_12 
ROOT
HETATM    1  N   UNL     1       6.946  28.991  57.959  1.00  0.00    -0.359 N 
HETATM    2  C   UNL     1       7.993  29.888  58.008  1.00  0.00     0.230 C 
HETATM    3  O   UNL     1       9.165  29.545  57.842  1.00  0.00    -0.272 OA
HETATM    4  H   UNL     1       6.033  29.312  58.259  1.00  0.00     0.162 HD
ENDROOT
BRANCH   1   5
HETATM    5  C   UNL     1       7.152  27.554  57.869  1.00  0.00     0.144 C 
BRANCH   5   6
HETATM    6  C   UNL     1       6.134  26.806  57.004  1.00  0.00     0.174 C 
BRANCH   6   7
HETATM    7  N   UNL     1       6.725  26.372  55.740  1.00  0.00    -0.233 N 
HETATM    8  N   UNL     1       6.956  25.019  55.615  1.00  0.00    -0.169 NA
HETATM    9  C   UNL     1       7.432  24.579  54.490  1.00  0.00     0.087 A 
HETATM   10  C   UNL     1       7.779  25.452  53.348  1.00  0.00     0.040 A 
HETATM   11  C   UNL     1       7.502  26.750  53.473  1.00  0.00     0.078 A 
HETATM   12  C   UNL     1       6.891  27.283  54.707  1.00  0.00     0.263 A 
HETATM   13  O   UNL     1       6.583  28.471  54.754  1.00  0.00    -0.267 OA
BRANCH   9  14
HETATM   14  C   UNL     1       7.673  23.114  54.329  1.00  0.00    -0.006 A 
HETATM   15  C   UNL     1       7.867  22.526  53.072  1.00  0.00     0.014 A 
HETATM   16  C   UNL     1       8.077  21.149  52.966  1.00  0.00     0.001 A 
HETATM   17  C   UNL     1       8.085  20.352  54.110  1.00  0.00     0.000 A 
HETATM   18  C   UNL     1       7.875  20.927  55.363  1.00  0.00     0.001 A 
HETATM   19  C   UNL     1       7.664  22.303  55.472  1.00  0.00     0.014 A 
ENDBRANCH   9  14
ENDBRANCH   6   7
ENDBRANCH   5   6
ENDBRANCH   1   5
BRANCH   2  20
HETATM   20  C   UNL     1       7.631  31.345  58.353  1.00  0.00     0.149 C 
HETATM   21  C   UNL     1       8.026  31.658  59.778  1.00  0.00    -0.007 A 
HETATM   22  C   UNL     1       7.049  31.955  60.730  1.00  0.00     0.083 A 
HETATM   23  C   UNL     1       9.376  31.638  60.170  1.00  0.00     0.011 A 
HETATM   24  C   UNL     1       7.407  32.212  62.055  1.00  0.00     0.038 A 
HETATM   25  O   UNL     1       5.707  32.011  60.445  1.00  0.00    -0.310 OA
HETATM   26  C   UNL     1       8.749  32.186  62.437  1.00  0.00     0.003 A 
HETATM   27  C   UNL     1       9.734  31.901  61.492  1.00  0.00     0.001 A 
HETATM   28  C   UNL     1       5.317  31.986  59.128  1.00  0.00     0.083 A 
HETATM   29  C   UNL     1       6.183  31.685  58.073  1.00  0.00    -0.007 A 
HETATM   30  C   UNL     1       3.973  32.273  58.881  1.00  0.00     0.038 A 
HETATM   31  C   UNL     1       5.685  31.690  56.760  1.00  0.00     0.011 A 
HETATM   32  C   UNL     1       4.342  31.983  56.515  1.00  0.00     0.001 A 
HETATM   33  C   UNL     1       3.487  32.273  57.575  1.00  0.00     0.003 A 
ENDBRANCH   2  20
TORSDOF 5
ENDMDL
MODEL 10
REMARK VINA RESULT:      -8.7      2.196      8.178
REMARK  5 active torsions:
REMARK  status: ('A' for Active; 'I' for Inactive)
REMARK    1  A    between atoms: C_4  and  C_5 
REMARK    2  A    between atoms: N_7  and  C_8 
REMARK    3  A    between atoms: C_8  and  C_9 
REMARK    4  A    between atoms: C_9  and  N_10 
REMARK       I    between atoms: N_10  and  C_11 
REMARK    5  A    between atoms: C_11  and  C_12 
ROOT
HETATM    1  N   UNL     1       4.252  27.081  52.147  1.00  0.00    -0.359 N 
HETATM    2  C   UNL     1       5.053  27.004  51.027  1.00  0.00     0.230 C 
HETATM    3  O   UNL     1       6.054  26.287  50.978  1.00  0.00    -0.272 OA
HETATM    4  H   UNL     1       3.542  27.804  52.174  1.00  0.00     0.162 HD
ENDROOT
BRANCH   1   5
HETATM    5  C   UNL     1       4.611  26.452  53.409  1.00  0.00     0.144 C 
BRANCH   5   6
HETATM    6  C   UNL     1       5.587  27.250  54.277  1.00  0.00     0.174 C 
BRANCH   6   7
HETATM    7  N   UNL     1       6.414  26.368  55.099  1.00  0.00    -0.233 N 
HETATM    8  N   UNL     1       6.628  25.102  54.598  1.00  0.00    -0.169 NA
HETATM    9  C   UNL     1       7.398  24.299  55.267  1.00  0.00     0.087 A 
HETATM   10  C   UNL     1       8.028  24.652  56.558  1.00  0.00     0.040 A 
HETATM   11  C   UNL     1       7.846  25.897  56.999  1.00  0.00     0.078 A 
HETATM   12  C   UNL     1       7.039  26.866  56.232  1.00  0.00     0.263 A 
HETATM   13  O   UNL     1       6.958  28.024  56.635  1.00  0.00    -0.267 OA
BRANCH   9  14
HETATM   14  C   UNL     1       7.657  22.930  54.731  1.00  0.00    -0.006 A 
HETATM   15  C   UNL     1       7.763  22.676  53.357  1.00  0.00     0.014 A 
HETATM   16  C   UNL     1       7.994  21.377  52.899  1.00  0.00     0.001 A 
HETATM   17  C   UNL     1       8.110  20.325  53.806  1.00  0.00     0.000 A 
HETATM   18  C   UNL     1       7.989  20.567  55.174  1.00  0.00     0.001 A 
HETATM   19  C   UNL     1       7.758  21.864  55.636  1.00  0.00     0.014 A 
ENDBRANCH   9  14
ENDBRANCH   6   7
ENDBRANCH   5   6
ENDBRANCH   1   5
BRANCH   2  20
HETATM   20  C   UNL     1       4.673  27.921  49.849  1.00  0.00     0.149 C 
HETATM   21  C   UNL     1       4.195  29.260  50.362  1.00  0.00    -0.007 A 
HETATM   22  C   UNL     1       2.875  29.662  50.156  1.00  0.00     0.083 A 
HETATM   23  C   UNL     1       5.064  30.110  51.068  1.00  0.00     0.011 A 
HETATM   24  C   UNL     1       2.420  30.884  50.658  1.00  0.00     0.038 A 
HETATM   25  O   UNL     1       1.953  28.910  49.470  1.00  0.00    -0.310 OA
HETATM   26  C   UNL     1       3.288  31.720  51.361  1.00  0.00     0.003 A 
HETATM   27  C   UNL     1       4.612  31.333  51.564  1.00  0.00     0.001 A 
HETATM   28  C   UNL     1       2.394  27.814  48.771  1.00  0.00     0.083 A 
HETATM   29  C   UNL     1       3.684  27.289  48.893  1.00  0.00    -0.007 A 
HETATM   30  C   UNL     1       1.467  27.220  47.912  1.00  0.00     0.038 A 
HETATM   31  C   UNL     1       4.038  26.165  48.129  1.00  0.00     0.011 A 
HETATM   32  C   UNL     1       3.111  25.576  47.267  1.00  0.00     0.001 A 
HETATM   33  C   UNL     1       1.826  26.102  47.160  1.00  0.00     0.003 A 
ENDBRANCH   2  20
TORSDOF 5
ENDMDL
