MODEL 1
REMARK VINA RESULT:      -9.7      0.000      0.000
REMARK  7 active torsions:
REMARK  status: ('A' for Active; 'I' for Inactive)
REMARK    1  A    between atoms: C_2  and  O_3 
REMARK    2  A    between atoms: O_3  and  C_4 
REMARK    3  A    between atoms: C_7  and  N_8 
REMARK       I    between atoms: N_8  and  C_9 
REMARK    4  A    between atoms: C_9  and  C_10 
REMARK    5  A    between atoms: C_10  and  S_11 
REMARK    6  A    between atoms: S_11  and  C_12 
REMARK    7  A    between atoms: N_13  and  C_14 
ROOT
HETATM    1  C   UNL     1       6.501  27.642  55.323  1.00  0.00     0.177 A 
HETATM    2  N   UNL     1       6.108  26.734  54.314  1.00  0.00    -0.276 N 
HETATM    3  C   UNL     1       5.079  27.155  53.395  1.00  0.00     0.124 A 
HETATM    4  N   UNL     1       4.660  26.414  52.386  1.00  0.00    -0.384 N 
HETATM    5  H   UNL     1       3.956  26.754  51.749  1.00  0.00     0.157 HD
HETATM    6  H   UNL     1       5.065  25.502  52.220  1.00  0.00     0.157 HD
HETATM    7  C   UNL     1       4.543  28.462  53.602  1.00  0.00     0.081 A 
HETATM    8  C   UNL     1       5.084  29.252  54.612  1.00  0.00     0.187 A 
HETATM    9  N   UNL     1       4.503  30.439  54.695  1.00  0.00    -0.153 NA
HETATM   10  N   UNL     1       3.574  30.403  53.722  1.00  0.00    -0.280 N 
HETATM   11  H   UNL     1       2.987  31.222  53.595  1.00  0.00     0.189 HD
HETATM   12  C   UNL     1       3.544  29.212  53.025  1.00  0.00     0.042 A 
HETATM   13  C   UNL     1       2.567  28.973  51.942  1.00  0.00     0.071 C 
HETATM   14  N   UNL     1       6.080  28.861  55.495  1.00  0.00    -0.202 NA
ENDROOT
BRANCH   1  15
HETATM   15  S   UNL     1       7.682  27.106  56.546  1.00  0.00    -0.082 SA
BRANCH  15  16
HETATM   16  C   UNL     1       7.575  28.485  57.729  1.00  0.00     0.185 C 
BRANCH  16  17
HETATM   17  C   UNL     1       8.820  29.336  57.638  1.00  0.00     0.231 C 
HETATM   18  N   UNL     1       9.198  30.207  58.615  1.00  0.00    -0.327 N 
HETATM   19  H   UNL     1      10.145  30.531  58.444  1.00  0.00     0.169 HD
HETATM   20  O   UNL     1       9.587  29.203  56.675  1.00  0.00    -0.272 OA
BRANCH  18  21
HETATM   21  C   UNL     1       8.562  30.761  59.738  1.00  0.00     0.034 A 
HETATM   22  C   UNL     1       7.437  31.578  59.706  1.00  0.00     0.032 A 
HETATM   23  C   UNL     1       6.920  32.120  60.891  1.00  0.00     0.039 A 
HETATM   24  C   UNL     1       7.519  31.862  62.124  1.00  0.00     0.068 A 
HETATM   25  C   UNL     1       8.646  31.048  62.164  1.00  0.00     0.039 A 
HETATM   26  C   UNL     1       9.166  30.512  60.979  1.00  0.00     0.032 A 
BRANCH  24  27
HETATM   27  O   UNL     1       6.921  32.468  63.192  1.00  0.00    -0.352 OA
BRANCH  27  28
HETATM   28  C   UNL     1       7.776  33.097  64.146  1.00  0.00     0.171 C 
HETATM   29  C   UNL     1       6.914  33.583  65.298  1.00  0.00     0.034 C 
ENDBRANCH  27  28
ENDBRANCH  24  27
ENDBRANCH  18  21
ENDBRANCH  16  17
ENDBRANCH  15  16
ENDBRANCH   1  15
BRANCH   2  30
HETATM   30  C   UNL     1       6.748  25.470  54.150  1.00  0.00     0.043 A 
HETATM   31  C   UNL     1       6.489  24.425  55.051  1.00  0.00     0.031 A 
HETATM   32  C   UNL     1       7.067  23.168  54.862  1.00  0.00     0.021 A 
HETATM   33  C   UNL     1       7.903  22.949  53.769  1.00  0.00     0.011 A 
HETATM   34 BR   UNL     1       8.680  21.246  53.510  1.00  0.00    -0.051 Br
HETATM   35  C   UNL     1       8.167  23.974  52.863  1.00  0.00     0.021 A 
HETATM   36  C   UNL     1       7.587  25.231  53.051  1.00  0.00     0.031 A 
ENDBRANCH   2  30
TORSDOF 7
ENDMDL
MODEL 2
REMARK VINA RESULT:      -9.7      3.226      5.320
REMARK  7 active torsions:
REMARK  status: ('A' for Active; 'I' for Inactive)
REMARK    1  A    between atoms: C_2  and  O_3 
REMARK    2  A    between atoms: O_3  and  C_4 
REMARK    3  A    between atoms: C_7  and  N_8 
REMARK       I    between atoms: N_8  and  C_9 
REMARK    4  A    between atoms: C_9  and  C_10 
REMARK    5  A    between atoms: C_10  and  S_11 
REMARK    6  A    between atoms: S_11  and  C_12 
REMARK    7  A    between atoms: N_13  and  C_14 
ROOT
HETATM    1  C   UNL     1       7.024  28.736  57.432  1.00  0.00     0.177 A 
HETATM    2  N   UNL     1       6.018  28.410  56.494  1.00  0.00    -0.276 N 
HETATM    3  C   UNL     1       5.978  27.056  55.996  1.00  0.00     0.124 A 
HETATM    4  N   UNL     1       5.059  26.621  55.153  1.00  0.00    -0.384 N 
HETATM    5  H   UNL     1       5.049  25.660  54.847  1.00  0.00     0.157 HD
HETATM    6  H   UNL     1       4.332  27.243  54.825  1.00  0.00     0.157 HD
HETATM    7  C   UNL     1       6.976  26.168  56.499  1.00  0.00     0.081 A 
HETATM    8  C   UNL     1       7.861  26.638  57.464  1.00  0.00     0.187 A 
HETATM    9  N   UNL     1       8.731  25.716  57.848  1.00  0.00    -0.153 NA
HETATM   10  N   UNL     1       8.395  24.641  57.111  1.00  0.00    -0.280 N 
HETATM   11  H   UNL     1       8.939  23.792  57.234  1.00  0.00     0.189 HD
HETATM   12  C   UNL     1       7.333  24.862  56.257  1.00  0.00     0.042 A 
HETATM   13  C   UNL     1       6.841  23.808  55.344  1.00  0.00     0.071 C 
HETATM   14  N   UNL     1       7.903  27.934  57.957  1.00  0.00    -0.202 NA
ENDROOT
BRANCH   1  15
HETATM   15  S   UNL     1       7.175  30.428  57.973  1.00  0.00    -0.082 SA
BRANCH  15  16
HETATM   16  C   UNL     1       8.658  30.304  59.020  1.00  0.00     0.185 C 
BRANCH  16  17
HETATM   17  C   UNL     1       9.247  31.678  59.240  1.00  0.00     0.231 C 
HETATM   18  N   UNL     1       8.917  32.467  60.301  1.00  0.00    -0.327 N 
HETATM   19  H   UNL     1       9.556  33.254  60.360  1.00  0.00     0.169 HD
HETATM   20  O   UNL     1      10.122  32.102  58.474  1.00  0.00    -0.272 OA
BRANCH  18  21
HETATM   21  C   UNL     1       7.895  32.443  61.264  1.00  0.00     0.034 A 
HETATM   22  C   UNL     1       6.533  32.526  60.996  1.00  0.00     0.032 A 
HETATM   23  C   UNL     1       5.604  32.548  62.045  1.00  0.00     0.039 A 
HETATM   24  C   UNL     1       6.017  32.494  63.376  1.00  0.00     0.068 A 
HETATM   25  C   UNL     1       7.378  32.413  63.653  1.00  0.00     0.039 A 
HETATM   26  C   UNL     1       8.306  32.399  62.604  1.00  0.00     0.032 A 
BRANCH  24  27
HETATM   27  O   UNL     1       5.007  32.540  64.294  1.00  0.00    -0.352 OA
BRANCH  27  28
HETATM   28  C   UNL     1       4.557  33.833  64.701  1.00  0.00     0.171 C 
HETATM   29  C   UNL     1       4.663  33.910  66.214  1.00  0.00     0.034 C 
ENDBRANCH  27  28
ENDBRANCH  24  27
ENDBRANCH  18  21
ENDBRANCH  16  17
ENDBRANCH  15  16
ENDBRANCH   1  15
BRANCH   2  30
HETATM   30  C   UNL     1       5.025  29.353  56.099  1.00  0.00     0.043 A 
HETATM   31  C   UNL     1       3.990  29.701  56.983  1.00  0.00     0.031 A 
HETATM   32  C   UNL     1       3.048  30.668  56.624  1.00  0.00     0.021 A 
HETATM   33  C   UNL     1       3.139  31.294  55.382  1.00  0.00     0.011 A 
HETATM   34 BR   UNL     1       1.867  32.606  54.899  1.00  0.00    -0.051 Br
HETATM   35  C   UNL     1       4.161  30.963  54.495  1.00  0.00     0.021 A 
HETATM   36  C   UNL     1       5.104  29.998  54.855  1.00  0.00     0.031 A 
ENDBRANCH   2  30
TORSDOF 7
ENDMDL
MODEL 3
REMARK VINA RESULT:      -9.4      2.604      4.560
REMARK  7 active torsions:
REMARK  status: ('A' for Active; 'I' for Inactive)
REMARK    1  A    between atoms: C_2  and  O_3 
REMARK    2  A    between atoms: O_3  and  C_4 
REMARK    3  A    between atoms: C_7  and  N_8 
REMARK       I    between atoms: N_8  and  C_9 
REMARK    4  A    between atoms: C_9  and  C_10 
REMARK    5  A    between atoms: C_10  and  S_11 
REMARK    6  A    between atoms: S_11  and  C_12 
REMARK    7  A    between atoms: N_13  and  C_14 
ROOT
HETATM    1  C   UNL     1       7.392  27.259  56.085  1.00  0.00     0.177 A 
HETATM    2  N   UNL     1       6.677  26.658  55.024  1.00  0.00    -0.276 N 
HETATM    3  C   UNL     1       6.705  25.219  54.927  1.00  0.00     0.124 A 
HETATM    4  N   UNL     1       6.040  24.541  54.009  1.00  0.00    -0.384 N 
HETATM    5  H   UNL     1       6.063  23.533  53.989  1.00  0.00     0.157 HD
HETATM    6  H   UNL     1       5.472  25.028  53.327  1.00  0.00     0.157 HD
HETATM    7  C   UNL     1       7.468  24.533  55.919  1.00  0.00     0.081 A 
HETATM    8  C   UNL     1       8.068  25.276  56.930  1.00  0.00     0.187 A 
HETATM    9  N   UNL     1       8.741  24.522  57.786  1.00  0.00    -0.153 NA
HETATM   10  N   UNL     1       8.568  23.275  57.308  1.00  0.00    -0.280 N 
HETATM   11  H   UNL     1       9.007  22.509  57.810  1.00  0.00     0.189 HD
HETATM   12  C   UNL     1       7.806  23.221  56.158  1.00  0.00     0.042 A 
HETATM   13  C   UNL     1       7.536  21.942  55.468  1.00  0.00     0.071 C 
HETATM   14  N   UNL     1       8.041  26.659  57.039  1.00  0.00    -0.202 NA
ENDROOT
BRANCH   1  15
HETATM   15  S   UNL     1       7.478  29.039  56.160  1.00  0.00    -0.082 SA
BRANCH  15  16
HETATM   16  C   UNL     1       7.871  29.272  57.922  1.00  0.00     0.185 C 
BRANCH  16  17
HETATM   17  C   UNL     1       9.184  30.006  58.061  1.00  0.00     0.231 C 
HETATM   18  N   UNL     1       9.517  30.732  59.165  1.00  0.00    -0.327 N 
HETATM   19  H   UNL     1      10.500  30.981  59.133  1.00  0.00     0.169 HD
HETATM   20  O   UNL     1      10.043  29.903  57.175  1.00  0.00    -0.272 OA
BRANCH  18  21
HETATM   21  C   UNL     1       8.803  31.224  60.270  1.00  0.00     0.034 A 
HETATM   22  C   UNL     1       7.941  32.315  60.251  1.00  0.00     0.032 A 
HETATM   23  C   UNL     1       7.324  32.751  61.432  1.00  0.00     0.039 A 
HETATM   24  C   UNL     1       7.560  32.111  62.649  1.00  0.00     0.068 A 
HETATM   25  C   UNL     1       8.422  31.020  62.675  1.00  0.00     0.039 A 
HETATM   26  C   UNL     1       9.045  30.590  61.497  1.00  0.00     0.032 A 
BRANCH  24  27
HETATM   27  O   UNL     1       6.906  32.651  63.719  1.00  0.00    -0.352 OA
BRANCH  27  28
HETATM   28  C   UNL     1       7.644  33.551  64.546  1.00  0.00     0.171 C 
HETATM   29  C   UNL     1       6.817  33.832  65.787  1.00  0.00     0.034 C 
ENDBRANCH  27  28
ENDBRANCH  24  27
ENDBRANCH  18  21
ENDBRANCH  16  17
ENDBRANCH  15  16
ENDBRANCH   1  15
BRANCH   2  30
HETATM   30  C   UNL     1       5.890  27.427  54.117  1.00  0.00     0.043 A 
HETATM   31  C   UNL     1       4.586  27.813  54.466  1.00  0.00     0.031 A 
HETATM   32  C   UNL     1       3.832  28.616  53.607  1.00  0.00     0.021 A 
HETATM   33  C   UNL     1       4.380  29.040  52.398  1.00  0.00     0.011 A 
HETATM   34 BR   UNL     1       3.362  30.130  51.238  1.00  0.00    -0.051 Br
HETATM   35  C   UNL     1       5.674  28.668  52.038  1.00  0.00     0.021 A 
HETATM   36  C   UNL     1       6.429  27.867  52.898  1.00  0.00     0.031 A 
ENDBRANCH   2  30
TORSDOF 7
ENDMDL
MODEL 4
REMARK VINA RESULT:      -9.3      4.415      7.898
REMARK  7 active torsions:
REMARK  status: ('A' for Active; 'I' for Inactive)
REMARK    1  A    between atoms: C_2  and  O_3 
REMARK    2  A    between atoms: O_3  and  C_4 
REMARK    3  A    between atoms: C_7  and  N_8 
REMARK       I    between atoms: N_8  and  C_9 
REMARK    4  A    between atoms: C_9  and  C_10 
REMARK    5  A    between atoms: C_10  and  S_11 
REMARK    6  A    between atoms: S_11  and  C_12 
REMARK    7  A    between atoms: N_13  and  C_14 
ROOT
HETATM    1  C   UNL     1       7.633  25.615  54.296  1.00  0.00     0.177 A 
HETATM    2  N   UNL     1       7.668  25.625  55.709  1.00  0.00    -0.276 N 
HETATM    3  C   UNL     1       7.922  24.375  56.383  1.00  0.00     0.124 A 
HETATM    4  N   UNL     1       8.023  24.266  57.695  1.00  0.00    -0.384 N 
HETATM    5  H   UNL     1       8.227  23.379  58.128  1.00  0.00     0.157 HD
HETATM    6  H   UNL     1       7.925  25.083  58.283  1.00  0.00     0.157 HD
HETATM    7  C   UNL     1       8.107  23.232  55.547  1.00  0.00     0.081 A 
HETATM    8  C   UNL     1       8.097  23.408  54.167  1.00  0.00     0.187 A 
HETATM    9  N   UNL     1       8.284  22.273  53.509  1.00  0.00    -0.153 NA
HETATM   10  N   UNL     1       8.413  21.360  54.489  1.00  0.00    -0.280 N 
HETATM   11  H   UNL     1       8.564  20.392  54.219  1.00  0.00     0.189 HD
HETATM   12  C   UNL     1       8.301  21.887  55.760  1.00  0.00     0.042 A 
HETATM   13  C   UNL     1       8.382  21.032  56.963  1.00  0.00     0.071 C 
HETATM   14  N   UNL     1       7.864  24.605  53.508  1.00  0.00    -0.202 NA
ENDROOT
BRANCH   1  15
HETATM   15  S   UNL     1       7.201  27.118  53.438  1.00  0.00    -0.082 SA
BRANCH  15  16
HETATM   16  C   UNL     1       6.037  26.464  52.201  1.00  0.00     0.185 C 
BRANCH  16  17
HETATM   17  C   UNL     1       4.745  26.064  52.875  1.00  0.00     0.231 C 
HETATM   18  N   UNL     1       3.776  26.959  53.216  1.00  0.00    -0.327 N 
HETATM   19  H   UNL     1       2.927  26.469  53.478  1.00  0.00     0.169 HD
HETATM   20  O   UNL     1       4.500  24.866  53.074  1.00  0.00    -0.272 OA
BRANCH  18  21
HETATM   21  C   UNL     1       3.723  28.359  53.318  1.00  0.00     0.034 A 
HETATM   22  C   UNL     1       4.033  29.097  54.455  1.00  0.00     0.032 A 
HETATM   23  C   UNL     1       3.889  30.491  54.456  1.00  0.00     0.039 A 
HETATM   24  C   UNL     1       3.430  31.171  53.328  1.00  0.00     0.068 A 
HETATM   25  C   UNL     1       3.116  30.439  52.188  1.00  0.00     0.039 A 
HETATM   26  C   UNL     1       3.252  29.045  52.189  1.00  0.00     0.032 A 
BRANCH  24  27
HETATM   27  O   UNL     1       3.323  32.524  53.476  1.00  0.00    -0.352 OA
BRANCH  27  28
HETATM   28  C   UNL     1       2.849  33.005  54.734  1.00  0.00     0.171 C 
HETATM   29  C   UNL     1       1.332  33.048  54.677  1.00  0.00     0.034 C 
ENDBRANCH  27  28
ENDBRANCH  24  27
ENDBRANCH  18  21
ENDBRANCH  16  17
ENDBRANCH  15  16
ENDBRANCH   1  15
BRANCH   2  30
HETATM   30  C   UNL     1       7.532  26.832  56.455  1.00  0.00     0.043 A 
HETATM   31  C   UNL     1       8.671  27.564  56.826  1.00  0.00     0.031 A 
HETATM   32  C   UNL     1       8.542  28.778  57.506  1.00  0.00     0.021 A 
HETATM   33  C   UNL     1       7.274  29.266  57.814  1.00  0.00     0.011 A 
HETATM   34 BR   UNL     1       7.099  30.911  58.728  1.00  0.00    -0.051 Br
HETATM   35  C   UNL     1       6.133  28.554  57.449  1.00  0.00     0.021 A 
HETATM   36  C   UNL     1       6.262  27.342  56.767  1.00  0.00     0.031 A 
ENDBRANCH   2  30
TORSDOF 7
ENDMDL
MODEL 5
REMARK VINA RESULT:      -9.1      2.337      3.344
REMARK  7 active torsions:
REMARK  status: ('A' for Active; 'I' for Inactive)
REMARK    1  A    between atoms: C_2  and  O_3 
REMARK    2  A    between atoms: O_3  and  C_4 
REMARK    3  A    between atoms: C_7  and  N_8 
REMARK       I    between atoms: N_8  and  C_9 
REMARK    4  A    between atoms: C_9  and  C_10 
REMARK    5  A    between atoms: C_10  and  S_11 
REMARK    6  A    between atoms: S_11  and  C_12 
REMARK    7  A    between atoms: N_13  and  C_14 
ROOT
HETATM    1  C   UNL     1       4.943  28.131  52.822  1.00  0.00     0.177 A 
HETATM    2  N   UNL     1       5.302  27.152  51.868  1.00  0.00    -0.276 N 
HETATM    3  C   UNL     1       5.028  27.435  50.480  1.00  0.00     0.124 A 
HETATM    4  N   UNL     1       5.358  26.621  49.495  1.00  0.00    -0.384 N 
HETATM    5  H   UNL     1       5.172  26.865  48.534  1.00  0.00     0.157 HD
HETATM    6  H   UNL     1       5.831  25.748  49.691  1.00  0.00     0.157 HD
HETATM    7  C   UNL     1       4.404  28.689  50.201  1.00  0.00     0.081 A 
HETATM    8  C   UNL     1       4.167  29.564  51.257  1.00  0.00     0.187 A 
HETATM    9  N   UNL     1       3.590  30.690  50.864  1.00  0.00    -0.153 NA
HETATM   10  N   UNL     1       3.454  30.526  49.535  1.00  0.00    -0.280 N 
HETATM   11  H   UNL     1       3.022  31.277  49.006  1.00  0.00     0.189 HD
HETATM   12  C   UNL     1       3.925  29.313  49.073  1.00  0.00     0.042 A 
HETATM   13  C   UNL     1       3.831  28.939  47.646  1.00  0.00     0.071 C 
HETATM   14  N   UNL     1       4.435  29.307  52.593  1.00  0.00    -0.202 NA
ENDROOT
BRANCH   1  15
HETATM   15  S   UNL     1       5.157  27.760  54.552  1.00  0.00    -0.082 SA
BRANCH  15  16
HETATM   16  C   UNL     1       6.928  28.131  54.748  1.00  0.00     0.185 C 
BRANCH  16  17
HETATM   17  C   UNL     1       7.564  27.121  55.675  1.00  0.00     0.231 C 
HETATM   18  N   UNL     1       8.080  27.450  56.892  1.00  0.00    -0.327 N 
HETATM   19  H   UNL     1       8.282  26.608  57.422  1.00  0.00     0.169 HD
HETATM   20  O   UNL     1       7.567  25.921  55.368  1.00  0.00    -0.272 OA
BRANCH  18  21
HETATM   21  C   UNL     1       8.416  28.659  57.524  1.00  0.00     0.034 A 
HETATM   22  C   UNL     1       7.579  29.394  58.356  1.00  0.00     0.032 A 
HETATM   23  C   UNL     1       8.005  30.618  58.888  1.00  0.00     0.039 A 
HETATM   24  C   UNL     1       9.268  31.132  58.595  1.00  0.00     0.068 A 
HETATM   25  C   UNL     1      10.110  30.404  57.762  1.00  0.00     0.039 A 
HETATM   26  C   UNL     1       9.681  29.184  57.224  1.00  0.00     0.032 A 
BRANCH  24  27
HETATM   27  O   UNL     1       9.544  32.341  59.168  1.00  0.00    -0.352 OA
BRANCH  27  28
HETATM   28  C   UNL     1       8.920  32.624  60.420  1.00  0.00     0.171 C 
HETATM   29  C   UNL     1       9.760  31.990  61.515  1.00  0.00     0.034 C 
ENDBRANCH  27  28
ENDBRANCH  24  27
ENDBRANCH  18  21
ENDBRANCH  16  17
ENDBRANCH  15  16
ENDBRANCH   1  15
BRANCH   2  30
HETATM   30  C   UNL     1       5.980  25.954  52.239  1.00  0.00     0.043 A 
HETATM   31  C   UNL     1       5.265  24.884  52.801  1.00  0.00     0.031 A 
HETATM   32  C   UNL     1       5.913  23.687  53.113  1.00  0.00     0.021 A 
HETATM   33  C   UNL     1       7.277  23.552  52.859  1.00  0.00     0.011 A 
HETATM   34 BR   UNL     1       8.152  21.930  53.275  1.00  0.00    -0.051 Br
HETATM   35  C   UNL     1       8.000  24.603  52.298  1.00  0.00     0.021 A 
HETATM   36  C   UNL     1       7.351  25.800  51.985  1.00  0.00     0.031 A 
ENDBRANCH   2  30
TORSDOF 7
ENDMDL
MODEL 6
REMARK VINA RESULT:      -9.1      3.770      9.347
REMARK  7 active torsions:
REMARK  status: ('A' for Active; 'I' for Inactive)
REMARK    1  A    between atoms: C_2  and  O_3 
REMARK    2  A    between atoms: O_3  and  C_4 
REMARK    3  A    between atoms: C_7  and  N_8 
REMARK       I    between atoms: N_8  and  C_9 
REMARK    4  A    between atoms: C_9  and  C_10 
REMARK    5  A    between atoms: C_10  and  S_11 
REMARK    6  A    between atoms: S_11  and  C_12 
REMARK    7  A    between atoms: N_13  and  C_14 
ROOT
HETATM    1  C   UNL     1       5.344  27.397  55.149  1.00  0.00     0.177 A 
HETATM    2  N   UNL     1       6.549  26.796  55.578  1.00  0.00    -0.276 N 
HETATM    3  C   UNL     1       7.287  27.448  56.632  1.00  0.00     0.124 A 
HETATM    4  N   UNL     1       8.400  26.960  57.148  1.00  0.00    -0.384 N 
HETATM    5  H   UNL     1       8.875  27.433  57.903  1.00  0.00     0.157 HD
HETATM    6  H   UNL     1       8.778  26.085  56.809  1.00  0.00     0.157 HD
HETATM    7  C   UNL     1       6.726  28.659  57.141  1.00  0.00     0.081 A 
HETATM    8  C   UNL     1       5.498  29.084  56.644  1.00  0.00     0.187 A 
HETATM    9  N   UNL     1       5.088  30.214  57.201  1.00  0.00    -0.153 NA
HETATM   10  N   UNL     1       6.075  30.514  58.065  1.00  0.00    -0.280 N 
HETATM   11  H   UNL     1       5.981  31.361  58.617  1.00  0.00     0.189 HD
HETATM   12  C   UNL     1       7.112  29.602  58.065  1.00  0.00     0.042 A 
HETATM   13  C   UNL     1       8.301  29.781  58.925  1.00  0.00     0.071 C 
HETATM   14  N   UNL     1       4.776  28.460  55.638  1.00  0.00    -0.202 NA
ENDROOT
BRANCH   1  15
HETATM   15  S   UNL     1       4.474  26.681  53.767  1.00  0.00    -0.082 SA
BRANCH  15  16
HETATM   16  C   UNL     1       4.239  28.159  52.731  1.00  0.00     0.185 C 
BRANCH  16  17
HETATM   17  C   UNL     1       5.424  28.333  51.810  1.00  0.00     0.231 C 
HETATM   18  N   UNL     1       5.315  28.340  50.452  1.00  0.00    -0.327 N 
HETATM   19  H   UNL     1       6.186  28.655  50.035  1.00  0.00     0.169 HD
HETATM   20  O   UNL     1       6.546  28.552  52.286  1.00  0.00    -0.272 OA
BRANCH  18  21
HETATM   21  C   UNL     1       4.307  27.975  49.544  1.00  0.00     0.034 A 
HETATM   22  C   UNL     1       3.229  28.772  49.174  1.00  0.00     0.032 A 
HETATM   23  C   UNL     1       2.251  28.280  48.299  1.00  0.00     0.039 A 
HETATM   24  C   UNL     1       2.329  26.987  47.782  1.00  0.00     0.068 A 
HETATM   25  C   UNL     1       3.404  26.183  48.149  1.00  0.00     0.039 A 
HETATM   26  C   UNL     1       4.376  26.673  49.030  1.00  0.00     0.032 A 
BRANCH  24  27
HETATM   27  O   UNL     1       1.301  26.635  46.956  1.00  0.00    -0.352 OA
BRANCH  27  28
HETATM   28  C   UNL     1       0.208  27.548  46.853  1.00  0.00     0.171 C 
HETATM   29  C   UNL     1      -0.316  27.493  45.429  1.00  0.00     0.034 C 
ENDBRANCH  27  28
ENDBRANCH  24  27
ENDBRANCH  18  21
ENDBRANCH  16  17
ENDBRANCH  15  16
ENDBRANCH   1  15
BRANCH   2  30
HETATM   30  C   UNL     1       6.997  25.549  55.050  1.00  0.00     0.043 A 
HETATM   31  C   UNL     1       6.754  24.357  55.752  1.00  0.00     0.031 A 
HETATM   32  C   UNL     1       7.138  23.128  55.211  1.00  0.00     0.021 A 
HETATM   33  C   UNL     1       7.761  23.084  53.966  1.00  0.00     0.011 A 
HETATM   34 BR   UNL     1       8.275  21.420  53.233  1.00  0.00    -0.051 Br
HETATM   35  C   UNL     1       8.006  24.257  53.255  1.00  0.00     0.021 A 
HETATM   36  C   UNL     1       7.621  25.487  53.794  1.00  0.00     0.031 A 
ENDBRANCH   2  30
TORSDOF 7
ENDMDL
MODEL 7
REMARK VINA RESULT:      -9.0      4.832      9.881
REMARK  7 active torsions:
REMARK  status: ('A' for Active; 'I' for Inactive)
REMARK    1  A    between atoms: C_2  and  O_3 
REMARK    2  A    between atoms: O_3  and  C_4 
REMARK    3  A    between atoms: C_7  and  N_8 
REMARK       I    between atoms: N_8  and  C_9 
REMARK    4  A    between atoms: C_9  and  C_10 
REMARK    5  A    between atoms: C_10  and  S_11 
REMARK    6  A    between atoms: S_11  and  C_12 
REMARK    7  A    between atoms: N_13  and  C_14 
ROOT
HETATM    1  C   UNL     1       7.496  25.672  54.203  1.00  0.00     0.177 A 
HETATM    2  N   UNL     1       7.530  25.697  55.615  1.00  0.00    -0.276 N 
HETATM    3  C   UNL     1       7.802  24.458  56.303  1.00  0.00     0.124 A 
HETATM    4  N   UNL     1       7.903  24.364  57.616  1.00  0.00    -0.384 N 
HETATM    5  H   UNL     1       8.120  23.484  58.059  1.00  0.00     0.157 HD
HETATM    6  H   UNL     1       7.793  25.186  58.196  1.00  0.00     0.157 HD
HETATM    7  C   UNL     1       8.004  23.310  55.479  1.00  0.00     0.081 A 
HETATM    8  C   UNL     1       7.993  23.471  54.097  1.00  0.00     0.187 A 
HETATM    9  N   UNL     1       8.197  22.332  53.451  1.00  0.00    -0.153 NA
HETATM   10  N   UNL     1       8.338  21.431  54.440  1.00  0.00    -0.280 N 
HETATM   11  H   UNL     1       8.503  20.463  54.180  1.00  0.00     0.189 HD
HETATM   12  C   UNL     1       8.217  21.970  55.706  1.00  0.00     0.042 A 
HETATM   13  C   UNL     1       8.310  21.128  56.918  1.00  0.00     0.071 C 
HETATM   14  N   UNL     1       7.742  24.658  53.426  1.00  0.00    -0.202 NA
ENDROOT
BRANCH   1  15
HETATM   15  S   UNL     1       7.043  27.160  53.330  1.00  0.00    -0.082 SA
BRANCH  15  16
HETATM   16  C   UNL     1       5.229  27.014  53.357  1.00  0.00     0.185 C 
BRANCH  16  17
HETATM   17  C   UNL     1       4.804  25.768  52.616  1.00  0.00     0.231 C 
HETATM   18  N   UNL     1       4.804  25.675  51.256  1.00  0.00    -0.327 N 
HETATM   19  H   UNL     1       4.668  24.710  50.974  1.00  0.00     0.169 HD
HETATM   20  O   UNL     1       4.504  24.747  53.249  1.00  0.00    -0.272 OA
BRANCH  18  21
HETATM   21  C   UNL     1       4.905  26.604  50.208  1.00  0.00     0.034 A 
HETATM   22  C   UNL     1       5.350  27.916  50.333  1.00  0.00     0.032 A 
HETATM   23  C   UNL     1       5.356  28.771  49.222  1.00  0.00     0.039 A 
HETATM   24  C   UNL     1       4.915  28.336  47.973  1.00  0.00     0.068 A 
HETATM   25  C   UNL     1       4.467  27.026  47.840  1.00  0.00     0.039 A 
HETATM   26  C   UNL     1       4.454  26.173  48.952  1.00  0.00     0.032 A 
BRANCH  24  27
HETATM   27  O   UNL     1       4.960  29.279  46.986  1.00  0.00    -0.352 OA
BRANCH  27  28
HETATM   28  C   UNL     1       4.056  30.378  47.095  1.00  0.00     0.171 C 
HETATM   29  C   UNL     1       4.296  31.301  45.913  1.00  0.00     0.034 C 
ENDBRANCH  27  28
ENDBRANCH  24  27
ENDBRANCH  18  21
ENDBRANCH  16  17
ENDBRANCH  15  16
ENDBRANCH   1  15
BRANCH   2  30
HETATM   30  C   UNL     1       7.376  26.910  56.349  1.00  0.00     0.043 A 
HETATM   31  C   UNL     1       8.496  27.706  56.640  1.00  0.00     0.031 A 
HETATM   32  C   UNL     1       8.345  28.924  57.307  1.00  0.00     0.021 A 
HETATM   33  C   UNL     1       7.073  29.353  57.682  1.00  0.00     0.011 A 
HETATM   34 BR   UNL     1       6.868  31.004  58.579  1.00  0.00    -0.051 Br
HETATM   35  C   UNL     1       5.952  28.577  57.398  1.00  0.00     0.021 A 
HETATM   36  C   UNL     1       6.103  27.360  56.729  1.00  0.00     0.031 A 
ENDBRANCH   2  30
TORSDOF 7
ENDMDL
MODEL 8
REMARK VINA RESULT:      -8.9      3.853      8.830
REMARK  7 active torsions:
REMARK  status: ('A' for Active; 'I' for Inactive)
REMARK    1  A    between atoms: C_2  and  O_3 
REMARK    2  A    between atoms: O_3  and  C_4 
REMARK    3  A    between atoms: C_7  and  N_8 
REMARK       I    between atoms: N_8  and  C_9 
REMARK    4  A    between atoms: C_9  and  C_10 
REMARK    5  A    between atoms: C_10  and  S_11 
REMARK    6  A    between atoms: S_11  and  C_12 
REMARK    7  A    between atoms: N_13  and  C_14 
ROOT
HETATM    1  C   UNL     1       5.555  32.405  60.152  1.00  0.00     0.177 A 
HETATM    2  N   UNL     1       6.838  32.101  60.663  1.00  0.00    -0.276 N 
HETATM    3  C   UNL     1       7.069  32.317  62.070  1.00  0.00     0.124 A 
HETATM    4  N   UNL     1       8.208  32.028  62.671  1.00  0.00    -0.384 N 
HETATM    5  H   UNL     1       8.323  32.170  63.663  1.00  0.00     0.157 HD
HETATM    6  H   UNL     1       8.976  31.632  62.145  1.00  0.00     0.157 HD
HETATM    7  C   UNL     1       5.968  32.832  62.820  1.00  0.00     0.081 A 
HETATM    8  C   UNL     1       4.752  33.025  62.171  1.00  0.00     0.187 A 
HETATM    9  N   UNL     1       3.815  33.501  62.978  1.00  0.00    -0.153 NA
HETATM   10  N   UNL     1       4.448  33.615  64.160  1.00  0.00    -0.280 N 
HETATM   11  H   UNL     1       3.918  33.973  64.949  1.00  0.00     0.189 HD
HETATM   12  C   UNL     1       5.773  33.232  64.122  1.00  0.00     0.042 A 
HETATM   13  C   UNL     1       6.640  33.319  65.316  1.00  0.00     0.071 C 
HETATM   14  N   UNL     1       4.516  32.812  60.821  1.00  0.00    -0.202 NA
ENDROOT
BRANCH   1  15
HETATM   15  S   UNL     1       5.276  32.264  58.397  1.00  0.00    -0.082 SA
BRANCH  15  16
HETATM   16  C   UNL     1       3.977  30.990  58.375  1.00  0.00     0.185 C 
BRANCH  16  17
HETATM   17  C   UNL     1       3.454  30.816  56.968  1.00  0.00     0.231 C 
HETATM   18  N   UNL     1       3.870  29.819  56.138  1.00  0.00    -0.327 N 
HETATM   19  H   UNL     1       3.266  29.770  55.324  1.00  0.00     0.169 HD
HETATM   20  O   UNL     1       2.554  31.558  56.550  1.00  0.00    -0.272 OA
BRANCH  18  21
HETATM   21  C   UNL     1       4.941  28.911  56.152  1.00  0.00     0.034 A 
HETATM   22  C   UNL     1       6.191  29.130  55.584  1.00  0.00     0.032 A 
HETATM   23  C   UNL     1       7.169  28.126  55.612  1.00  0.00     0.039 A 
HETATM   24  C   UNL     1       6.915  26.887  56.200  1.00  0.00     0.068 A 
HETATM   25  C   UNL     1       5.666  26.660  56.769  1.00  0.00     0.039 A 
HETATM   26  C   UNL     1       4.687  27.661  56.735  1.00  0.00     0.032 A 
BRANCH  24  27
HETATM   27  O   UNL     1       7.950  25.999  56.141  1.00  0.00    -0.352 OA
BRANCH  27  28
HETATM   28  C   UNL     1       8.352  25.385  57.365  1.00  0.00     0.171 C 
HETATM   29  C   UNL     1       8.751  23.952  57.061  1.00  0.00     0.034 C 
ENDBRANCH  27  28
ENDBRANCH  24  27
ENDBRANCH  18  21
ENDBRANCH  16  17
ENDBRANCH  15  16
ENDBRANCH   1  15
BRANCH   2  30
HETATM   30  C   UNL     1       7.856  31.530  59.844  1.00  0.00     0.043 A 
HETATM   31  C   UNL     1       7.676  30.259  59.277  1.00  0.00     0.031 A 
HETATM   32  C   UNL     1       8.644  29.719  58.427  1.00  0.00     0.021 A 
HETATM   33  C   UNL     1       9.794  30.451  58.137  1.00  0.00     0.011 A 
HETATM   34 BR   UNL     1      11.102  29.723  56.983  1.00  0.00    -0.051 Br
HETATM   35  C   UNL     1       9.987  31.715  58.689  1.00  0.00     0.021 A 
HETATM   36  C   UNL     1       9.018  32.256  59.538  1.00  0.00     0.031 A 
ENDBRANCH   2  30
TORSDOF 7
ENDMDL
MODEL 9
REMARK VINA RESULT:      -8.7      3.690      6.035
REMARK  7 active torsions:
REMARK  status: ('A' for Active; 'I' for Inactive)
REMARK    1  A    between atoms: C_2  and  O_3 
REMARK    2  A    between atoms: O_3  and  C_4 
REMARK    3  A    between atoms: C_7  and  N_8 
REMARK       I    between atoms: N_8  and  C_9 
REMARK    4  A    between atoms: C_9  and  C_10 
REMARK    5  A    between atoms: C_10  and  S_11 
REMARK    6  A    between atoms: S_11  and  C_12 
REMARK    7  A    between atoms: N_13  and  C_14 
ROOT
HETATM    1  C   UNL     1       4.915  28.849  53.362  1.00  0.00     0.177 A 
HETATM    2  N   UNL     1       5.305  28.010  52.294  1.00  0.00    -0.276 N 
HETATM    3  C   UNL     1       5.146  28.513  50.951  1.00  0.00     0.124 A 
HETATM    4  N   UNL     1       5.515  27.842  49.876  1.00  0.00    -0.384 N 
HETATM    5  H   UNL     1       5.411  28.238  48.955  1.00  0.00     0.157 HD
HETATM    6  H   UNL     1       5.938  26.927  49.967  1.00  0.00     0.157 HD
HETATM    7  C   UNL     1       4.593  29.825  50.829  1.00  0.00     0.081 A 
HETATM    8  C   UNL     1       4.314  30.540  51.989  1.00  0.00     0.187 A 
HETATM    9  N   UNL     1       3.812  31.740  51.738  1.00  0.00    -0.153 NA
HETATM   10  N   UNL     1       3.769  31.787  50.394  1.00  0.00    -0.280 N 
HETATM   11  H   UNL     1       3.406  32.630  49.959  1.00  0.00     0.189 HD
HETATM   12  C   UNL     1       4.224  30.636  49.782  1.00  0.00     0.042 A 
HETATM   13  C   UNL     1       4.222  30.488  48.311  1.00  0.00     0.071 C 
HETATM   14  N   UNL     1       4.472  30.070  53.285  1.00  0.00    -0.202 NA
ENDROOT
BRANCH   1  15
HETATM   15  S   UNL     1       4.986  28.209  55.025  1.00  0.00    -0.082 SA
BRANCH  15  16
HETATM   16  C   UNL     1       6.593  28.874  55.561  1.00  0.00     0.185 C 
BRANCH  16  17
HETATM   17  C   UNL     1       6.700  28.803  57.067  1.00  0.00     0.231 C 
HETATM   18  N   UNL     1       7.135  27.696  57.730  1.00  0.00    -0.327 N 
HETATM   19  H   UNL     1       7.308  27.920  58.705  1.00  0.00     0.169 HD
HETATM   20  O   UNL     1       6.455  29.808  57.749  1.00  0.00    -0.272 OA
BRANCH  18  21
HETATM   21  C   UNL     1       7.342  26.353  57.372  1.00  0.00     0.034 A 
HETATM   22  C   UNL     1       8.577  25.717  57.312  1.00  0.00     0.032 A 
HETATM   23  C   UNL     1       8.669  24.384  56.887  1.00  0.00     0.039 A 
HETATM   24  C   UNL     1       7.533  23.668  56.509  1.00  0.00     0.068 A 
HETATM   25  C   UNL     1       6.295  24.298  56.563  1.00  0.00     0.039 A 
HETATM   26  C   UNL     1       6.205  25.632  56.981  1.00  0.00     0.032 A 
BRANCH  24  27
HETATM   27  O   UNL     1       7.772  22.387  56.101  1.00  0.00    -0.352 OA
BRANCH  27  28
HETATM   28  C   UNL     1       8.453  21.529  57.016  1.00  0.00     0.171 C 
HETATM   29  C   UNL     1       9.102  20.413  56.217  1.00  0.00     0.034 C 
ENDBRANCH  27  28
ENDBRANCH  24  27
ENDBRANCH  18  21
ENDBRANCH  16  17
ENDBRANCH  15  16
ENDBRANCH   1  15
BRANCH   2  30
HETATM   30  C   UNL     1       5.906  26.737  52.520  1.00  0.00     0.043 A 
HETATM   31  C   UNL     1       5.119  25.574  52.520  1.00  0.00     0.031 A 
HETATM   32  C   UNL     1       5.710  24.319  52.682  1.00  0.00     0.021 A 
HETATM   33  C   UNL     1       7.091  24.220  52.840  1.00  0.00     0.011 A 
HETATM   34 BR   UNL     1       7.891  22.522  53.054  1.00  0.00    -0.051 Br
HETATM   35  C   UNL     1       7.887  25.364  52.839  1.00  0.00     0.021 A 
HETATM   36  C   UNL     1       7.296  26.619  52.675  1.00  0.00     0.031 A 
ENDBRANCH   2  30
TORSDOF 7
ENDMDL
MODEL 10
REMARK VINA RESULT:      -8.7      2.890      4.293
REMARK  7 active torsions:
REMARK  status: ('A' for Active; 'I' for Inactive)
REMARK    1  A    between atoms: C_2  and  O_3 
REMARK    2  A    between atoms: O_3  and  C_4 
REMARK    3  A    between atoms: C_7  and  N_8 
REMARK       I    between atoms: N_8  and  C_9 
REMARK    4  A    between atoms: C_9  and  C_10 
REMARK    5  A    between atoms: C_10  and  S_11 
REMARK    6  A    between atoms: S_11  and  C_12 
REMARK    7  A    between atoms: N_13  and  C_14 
ROOT
HETATM    1  C   UNL     1       6.005  28.005  54.438  1.00  0.00     0.177 A 
HETATM    2  N   UNL     1       5.712  27.001  53.488  1.00  0.00    -0.276 N 
HETATM    3  C   UNL     1       4.724  27.299  52.479  1.00  0.00     0.124 A 
HETATM    4  N   UNL     1       4.399  26.460  51.513  1.00  0.00    -0.384 N 
HETATM    5  H   UNL     1       3.721  26.715  50.810  1.00  0.00     0.157 HD
HETATM    6  H   UNL     1       4.850  25.557  51.448  1.00  0.00     0.157 HD
HETATM    7  C   UNL     1       4.124  28.593  52.545  1.00  0.00     0.081 A 
HETATM    8  C   UNL     1       4.570  29.485  53.515  1.00  0.00     0.187 A 
HETATM    9  N   UNL     1       3.937  30.648  53.466  1.00  0.00    -0.153 NA
HETATM   10  N   UNL     1       3.071  30.491  52.447  1.00  0.00    -0.280 N 
HETATM   11  H   UNL     1       2.460  31.269  52.219  1.00  0.00     0.189 HD
HETATM   12  C   UNL     1       3.132  29.246  51.852  1.00  0.00     0.042 A 
HETATM   13  C   UNL     1       2.234  28.876  50.737  1.00  0.00     0.071 C 
HETATM   14  N   UNL     1       5.525  29.213  54.484  1.00  0.00    -0.202 NA
ENDROOT
BRANCH   1  15
HETATM   15  S   UNL     1       7.130  27.623  55.768  1.00  0.00    -0.082 SA
BRANCH  15  16
HETATM   16  C   UNL     1       7.639  29.302  56.255  1.00  0.00     0.185 C 
BRANCH  16  17
HETATM   17  C   UNL     1       7.462  29.478  57.746  1.00  0.00     0.231 C 
HETATM   18  N   UNL     1       6.360  30.056  58.300  1.00  0.00    -0.327 N 
HETATM   19  H   UNL     1       6.357  29.906  59.304  1.00  0.00     0.169 HD
HETATM   20  O   UNL     1       8.310  29.023  58.524  1.00  0.00    -0.272 OA
BRANCH  18  21
HETATM   21  C   UNL     1       5.294  30.822  57.799  1.00  0.00     0.034 A 
HETATM   22  C   UNL     1       4.063  30.319  57.391  1.00  0.00     0.032 A 
HETATM   23  C   UNL     1       3.090  31.175  56.855  1.00  0.00     0.039 A 
HETATM   24  C   UNL     1       3.331  32.541  56.711  1.00  0.00     0.068 A 
HETATM   25  C   UNL     1       4.560  33.051  57.115  1.00  0.00     0.039 A 
HETATM   26  C   UNL     1       5.535  32.194  57.644  1.00  0.00     0.032 A 
BRANCH  24  27
HETATM   27  O   UNL     1       2.303  33.251  56.160  1.00  0.00    -0.352 OA
BRANCH  27  28
HETATM   28  C   UNL     1       1.657  32.681  55.021  1.00  0.00     0.171 C 
HETATM   29  C   UNL     1       0.267  33.285  54.920  1.00  0.00     0.034 C 
ENDBRANCH  27  28
ENDBRANCH  24  27
ENDBRANCH  18  21
ENDBRANCH  16  17
ENDBRANCH  15  16
ENDBRANCH   1  15
BRANCH   2  30
HETATM   30  C   UNL     1       6.412  25.759  53.467  1.00  0.00     0.043 A 
HETATM   31  C   UNL     1       7.467  25.558  52.563  1.00  0.00     0.031 A 
HETATM   32  C   UNL     1       8.195  24.366  52.577  1.00  0.00     0.021 A 
HETATM   33  C   UNL     1       7.873  23.371  53.498  1.00  0.00     0.011 A 
HETATM   34 BR   UNL     1       8.861  21.760  53.521  1.00  0.00    -0.051 Br
HETATM   35  C   UNL     1       6.830  23.555  54.404  1.00  0.00     0.021 A 
HETATM   36  C   UNL     1       6.104  24.748  54.391  1.00  0.00     0.031 A 
ENDBRANCH   2  30
TORSDOF 7
ENDMDL
