MODEL 1
REMARK VINA RESULT:      -8.5      0.000      0.000
REMARK  7 active torsions:
REMARK  status: ('A' for Active; 'I' for Inactive)
REMARK    1  A    between atoms: C_2  and  C_3 
REMARK    2  A    between atoms: C_3  and  N_4 
REMARK    3  A    between atoms: N_4  and  C_5 
REMARK    4  A    between atoms: C_7  and  N_8 
REMARK    5  A    between atoms: N_8  and  C_9 
REMARK    6  A    between atoms: C_9  and  C_10 
REMARK    7  A    between atoms: C_13  and  O_14 
ROOT
HETATM    1  C   UNL     1       7.884  24.030  54.252  1.00  0.00     0.119 A 
HETATM    2  N   UNL     1       7.978  25.126  55.030  1.00  0.00    -0.207 NA
HETATM    3  C   UNL     1       8.174  24.948  56.343  1.00  0.00     0.181 A 
HETATM    4  N   UNL     1       8.257  23.748  56.908  1.00  0.00    -0.330 N 
HETATM    5  H   UNL     1       8.312  23.701  57.918  1.00  0.00     0.168 HD
HETATM    6  C   UNL     1       8.222  22.630  56.175  1.00  0.00     0.048 A 
HETATM    7  C   UNL     1       8.041  22.731  54.781  1.00  0.00     0.031 A 
HETATM    8  C   UNL     1       8.365  21.380  56.793  1.00  0.00     0.030 A 
HETATM    9  C   UNL     1       8.345  20.214  56.027  1.00  0.00     0.002 A 
HETATM   10  C   UNL     1       8.181  20.292  54.648  1.00  0.00     0.001 A 
HETATM   11  C   UNL     1       8.030  21.535  54.027  1.00  0.00     0.017 A 
ENDROOT
BRANCH   3  12
HETATM   12  N   UNL     1       8.197  26.092  57.124  1.00  0.00    -0.258 NA
HETATM   13  H   UNL     1       7.634  25.863  57.947  1.00  0.00     0.130 HD
BRANCH  12  14
HETATM   14  C   UNL     1       7.747  27.344  56.519  1.00  0.00     0.134 C 
BRANCH  14  15
HETATM   15  C   UNL     1       8.392  28.521  57.214  1.00  0.00    -0.045 A 
HETATM   16  C   UNL     1       7.766  29.149  58.297  1.00  0.00     0.011 A 
HETATM   17  C   UNL     1       8.351  30.273  58.887  1.00  0.00     0.037 A 
HETATM   18  C   UNL     1       9.570  30.774  58.424  1.00  0.00     0.068 A 
HETATM   19  C   UNL     1      10.208  30.140  57.359  1.00  0.00     0.037 A 
HETATM   20  C   UNL     1       9.626  29.019  56.764  1.00  0.00     0.011 A 
BRANCH  18  21
HETATM   21  O   UNL     1      10.021  31.882  59.082  1.00  0.00    -0.356 OA
HETATM   22  C   UNL     1       9.355  32.230  60.292  1.00  0.00     0.210 C 
ENDBRANCH  18  21
ENDBRANCH  14  15
ENDBRANCH  12  14
ENDBRANCH   3  12
BRANCH   1  23
HETATM   23  N   UNL     1       7.670  24.196  52.874  1.00  0.00    -0.277 NA
HETATM   24  H   UNL     1       6.958  23.546  52.544  1.00  0.00     0.129 HD
BRANCH  23  25
HETATM   25  C   UNL     1       7.387  25.560  52.423  1.00  0.00     0.093 C 
BRANCH  25  26
HETATM   26  C   UNL     1       6.079  25.568  51.629  1.00  0.00     0.010 C 
HETATM   27  C   UNL     1       4.963  24.868  52.387  1.00  0.00     0.006 C 
ENDBRANCH  25  26
ENDBRANCH  23  25
ENDBRANCH   1  23
TORSDOF 7
ENDMDL
MODEL 2
REMARK VINA RESULT:      -8.3      0.850      1.330
REMARK  7 active torsions:
REMARK  status: ('A' for Active; 'I' for Inactive)
REMARK    1  A    between atoms: C_2  and  C_3 
REMARK    2  A    between atoms: C_3  and  N_4 
REMARK    3  A    between atoms: N_4  and  C_5 
REMARK    4  A    between atoms: C_7  and  N_8 
REMARK    5  A    between atoms: N_8  and  C_9 
REMARK    6  A    between atoms: C_9  and  C_10 
REMARK    7  A    between atoms: C_13  and  O_14 
ROOT
HETATM    1  C   UNL     1       7.678  24.645  53.719  1.00  0.00     0.119 A 
HETATM    2  N   UNL     1       7.627  25.518  54.743  1.00  0.00    -0.207 NA
HETATM    3  C   UNL     1       7.620  25.025  55.989  1.00  0.00     0.181 A 
HETATM    4  N   UNL     1       7.639  23.722  56.253  1.00  0.00    -0.330 N 
HETATM    5  H   UNL     1       7.538  23.432  57.218  1.00  0.00     0.168 HD
HETATM    6  C   UNL     1       7.742  22.816  55.276  1.00  0.00     0.048 A 
HETATM    7  C   UNL     1       7.779  23.254  53.937  1.00  0.00     0.031 A 
HETATM    8  C   UNL     1       7.814  21.451  55.588  1.00  0.00     0.030 A 
HETATM    9  C   UNL     1       7.938  20.506  54.570  1.00  0.00     0.002 A 
HETATM   10  C   UNL     1       7.989  20.917  53.242  1.00  0.00     0.001 A 
HETATM   11  C   UNL     1       7.910  22.276  52.924  1.00  0.00     0.017 A 
ENDROOT
BRANCH   3  12
HETATM   12  N   UNL     1       7.498  25.945  57.017  1.00  0.00    -0.258 NA
HETATM   13  H   UNL     1       7.060  25.429  57.784  1.00  0.00     0.130 HD
BRANCH  12  14
HETATM   14  C   UNL     1       6.772  27.185  56.745  1.00  0.00     0.134 C 
BRANCH  14  15
HETATM   15  C   UNL     1       7.570  28.374  57.224  1.00  0.00    -0.045 A 
HETATM   16  C   UNL     1       8.958  28.427  57.052  1.00  0.00     0.011 A 
HETATM   17  C   UNL     1       9.685  29.509  57.555  1.00  0.00     0.037 A 
HETATM   18  C   UNL     1       9.044  30.559  58.217  1.00  0.00     0.068 A 
HETATM   19  C   UNL     1       7.660  30.522  58.373  1.00  0.00     0.037 A 
HETATM   20  C   UNL     1       6.929  29.441  57.875  1.00  0.00     0.011 A 
BRANCH  18  21
HETATM   21  O   UNL     1       9.874  31.545  58.668  1.00  0.00    -0.356 OA
HETATM   22  C   UNL     1       9.625  32.050  59.976  1.00  0.00     0.210 C 
ENDBRANCH  18  21
ENDBRANCH  14  15
ENDBRANCH  12  14
ENDBRANCH   3  12
BRANCH   1  23
HETATM   23  N   UNL     1       7.678  25.142  52.406  1.00  0.00    -0.277 NA
HETATM   24  H   UNL     1       7.604  24.378  51.736  1.00  0.00     0.129 HD
BRANCH  23  25
HETATM   25  C   UNL     1       6.703  26.194  52.113  1.00  0.00     0.093 C 
BRANCH  25  26
HETATM   26  C   UNL     1       5.461  25.568  51.477  1.00  0.00     0.010 C 
HETATM   27  C   UNL     1       4.618  24.833  52.506  1.00  0.00     0.006 C 
ENDBRANCH  25  26
ENDBRANCH  23  25
ENDBRANCH   1  23
TORSDOF 7
ENDMDL
MODEL 3
REMARK VINA RESULT:      -8.0      3.470      8.299
REMARK  7 active torsions:
REMARK  status: ('A' for Active; 'I' for Inactive)
REMARK    1  A    between atoms: C_2  and  C_3 
REMARK    2  A    between atoms: C_3  and  N_4 
REMARK    3  A    between atoms: N_4  and  C_5 
REMARK    4  A    between atoms: C_7  and  N_8 
REMARK    5  A    between atoms: N_8  and  C_9 
REMARK    6  A    between atoms: C_9  and  C_10 
REMARK    7  A    between atoms: C_13  and  O_14 
ROOT
HETATM    1  C   UNL     1       6.701  28.379  57.431  1.00  0.00     0.119 A 
HETATM    2  N   UNL     1       6.452  27.203  56.822  1.00  0.00    -0.207 NA
HETATM    3  C   UNL     1       5.257  27.038  56.240  1.00  0.00     0.181 A 
HETATM    4  N   UNL     1       4.308  27.968  56.256  1.00  0.00    -0.330 N 
HETATM    5  H   UNL     1       3.402  27.728  55.874  1.00  0.00     0.168 HD
HETATM    6  C   UNL     1       4.522  29.170  56.800  1.00  0.00     0.048 A 
HETATM    7  C   UNL     1       5.763  29.433  57.415  1.00  0.00     0.031 A 
HETATM    8  C   UNL     1       3.519  30.150  56.755  1.00  0.00     0.030 A 
HETATM    9  C   UNL     1       3.747  31.410  57.309  1.00  0.00     0.002 A 
HETATM   10  C   UNL     1       4.970  31.695  57.908  1.00  0.00     0.001 A 
HETATM   11  C   UNL     1       5.969  30.720  57.963  1.00  0.00     0.017 A 
ENDROOT
BRANCH   3  12
HETATM   12  N   UNL     1       5.008  25.794  55.683  1.00  0.00    -0.258 NA
HETATM   13  H   UNL     1       5.465  25.127  56.309  1.00  0.00     0.130 HD
BRANCH  12  14
HETATM   14  C   UNL     1       5.418  25.569  54.298  1.00  0.00     0.134 C 
BRANCH  14  15
HETATM   15  C   UNL     1       6.423  24.443  54.226  1.00  0.00    -0.045 A 
HETATM   16  C   UNL     1       6.878  23.961  52.993  1.00  0.00     0.011 A 
HETATM   17  C   UNL     1       7.762  22.881  52.948  1.00  0.00     0.037 A 
HETATM   18  C   UNL     1       8.220  22.278  54.122  1.00  0.00     0.068 A 
HETATM   19  C   UNL     1       7.788  22.768  55.353  1.00  0.00     0.037 A 
HETATM   20  C   UNL     1       6.901  23.846  55.404  1.00  0.00     0.011 A 
BRANCH  18  21
HETATM   21  O   UNL     1       9.070  21.226  53.932  1.00  0.00    -0.356 OA
HETATM   22  C   UNL     1       8.793  20.034  54.662  1.00  0.00     0.210 C 
ENDBRANCH  18  21
ENDBRANCH  14  15
ENDBRANCH  12  14
ENDBRANCH   3  12
BRANCH   1  23
HETATM   23  N   UNL     1       7.944  28.568  58.054  1.00  0.00    -0.277 NA
HETATM   24  H   UNL     1       8.022  27.977  58.880  1.00  0.00     0.129 HD
BRANCH  23  25
HETATM   25  C   UNL     1       9.125  28.431  57.198  1.00  0.00     0.093 C 
BRANCH  25  26
HETATM   26  C   UNL     1       9.810  29.792  57.061  1.00  0.00     0.010 C 
HETATM   27  C   UNL     1       9.770  30.570  58.366  1.00  0.00     0.006 C 
ENDBRANCH  25  26
ENDBRANCH  23  25
ENDBRANCH   1  23
TORSDOF 7
ENDMDL
MODEL 4
REMARK VINA RESULT:      -7.9      5.089      8.925
REMARK  7 active torsions:
REMARK  status: ('A' for Active; 'I' for Inactive)
REMARK    1  A    between atoms: C_2  and  C_3 
REMARK    2  A    between atoms: C_3  and  N_4 
REMARK    3  A    between atoms: N_4  and  C_5 
REMARK    4  A    between atoms: C_7  and  N_8 
REMARK    5  A    between atoms: N_8  and  C_9 
REMARK    6  A    between atoms: C_9  and  C_10 
REMARK    7  A    between atoms: C_13  and  O_14 
ROOT
HETATM    1  C   UNL     1       5.440  26.100  54.407  1.00  0.00     0.119 A 
HETATM    2  N   UNL     1       4.791  26.660  53.368  1.00  0.00    -0.207 NA
HETATM    3  C   UNL     1       5.090  26.229  52.135  1.00  0.00     0.181 A 
HETATM    4  N   UNL     1       6.007  25.297  51.895  1.00  0.00    -0.330 N 
HETATM    5  H   UNL     1       6.238  25.096  50.930  1.00  0.00     0.168 HD
HETATM    6  C   UNL     1       6.642  24.674  52.893  1.00  0.00     0.048 A 
HETATM    7  C   UNL     1       6.368  25.052  54.222  1.00  0.00     0.031 A 
HETATM    8  C   UNL     1       7.566  23.657  52.610  1.00  0.00     0.030 A 
HETATM    9  C   UNL     1       8.217  22.995  53.650  1.00  0.00     0.002 A 
HETATM   10  C   UNL     1       7.951  23.344  54.971  1.00  0.00     0.001 A 
HETATM   11  C   UNL     1       7.038  24.361  55.258  1.00  0.00     0.017 A 
ENDROOT
BRANCH   3  12
HETATM   12  N   UNL     1       4.455  26.873  51.085  1.00  0.00    -0.258 NA
HETATM   13  H   UNL     1       3.459  26.688  51.225  1.00  0.00     0.130 HD
BRANCH  12  14
HETATM   14  C   UNL     1       4.862  26.527  49.724  1.00  0.00     0.134 C 
BRANCH  14  15
HETATM   15  C   UNL     1       3.687  26.648  48.782  1.00  0.00    -0.045 A 
HETATM   16  C   UNL     1       3.486  25.715  47.758  1.00  0.00     0.011 A 
HETATM   17  C   UNL     1       2.427  25.878  46.861  1.00  0.00     0.037 A 
HETATM   18  C   UNL     1       1.545  26.954  46.979  1.00  0.00     0.068 A 
HETATM   19  C   UNL     1       1.728  27.875  48.009  1.00  0.00     0.037 A 
HETATM   20  C   UNL     1       2.787  27.719  48.907  1.00  0.00     0.011 A 
BRANCH  18  21
HETATM   21  O   UNL     1       0.565  26.999  46.030  1.00  0.00    -0.356 OA
HETATM   22  C   UNL     1      -0.512  27.904  46.257  1.00  0.00     0.210 C 
ENDBRANCH  18  21
ENDBRANCH  14  15
ENDBRANCH  12  14
ENDBRANCH   3  12
BRANCH   1  23
HETATM   23  N   UNL     1       5.147  26.544  55.706  1.00  0.00    -0.277 NA
HETATM   24  H   UNL     1       5.441  25.852  56.393  1.00  0.00     0.129 HD
BRANCH  23  25
HETATM   25  C   UNL     1       5.638  27.877  56.060  1.00  0.00     0.093 C 
BRANCH  25  26
HETATM   26  C   UNL     1       6.401  27.800  57.384  1.00  0.00     0.010 C 
HETATM   27  C   UNL     1       7.861  27.444  57.165  1.00  0.00     0.006 C 
ENDBRANCH  25  26
ENDBRANCH  23  25
ENDBRANCH   1  23
TORSDOF 7
ENDMDL
MODEL 5
REMARK VINA RESULT:      -7.9      3.317      8.252
REMARK  7 active torsions:
REMARK  status: ('A' for Active; 'I' for Inactive)
REMARK    1  A    between atoms: C_2  and  C_3 
REMARK    2  A    between atoms: C_3  and  N_4 
REMARK    3  A    between atoms: N_4  and  C_5 
REMARK    4  A    between atoms: C_7  and  N_8 
REMARK    5  A    between atoms: N_8  and  C_9 
REMARK    6  A    between atoms: C_9  and  C_10 
REMARK    7  A    between atoms: C_13  and  O_14 
ROOT
HETATM    1  C   UNL     1       6.533  29.511  57.261  1.00  0.00     0.119 A 
HETATM    2  N   UNL     1       6.075  28.676  56.308  1.00  0.00    -0.207 NA
HETATM    3  C   UNL     1       6.952  28.204  55.413  1.00  0.00     0.181 A 
HETATM    4  N   UNL     1       8.239  28.537  55.413  1.00  0.00    -0.330 N 
HETATM    5  H   UNL     1       8.815  28.210  54.647  1.00  0.00     0.168 HD
HETATM    6  C   UNL     1       8.754  29.320  56.367  1.00  0.00     0.048 A 
HETATM    7  C   UNL     1       7.901  29.841  57.360  1.00  0.00     0.031 A 
HETATM    8  C   UNL     1      10.126  29.611  56.371  1.00  0.00     0.030 A 
HETATM    9  C   UNL     1      10.668  30.414  57.374  1.00  0.00     0.002 A 
HETATM   10  C   UNL     1       9.846  30.929  58.372  1.00  0.00     0.001 A 
HETATM   11  C   UNL     1       8.477  30.648  58.369  1.00  0.00     0.017 A 
ENDROOT
BRANCH   3  12
HETATM   12  N   UNL     1       6.437  27.403  54.406  1.00  0.00    -0.258 NA
HETATM   13  H   UNL     1       5.916  26.669  54.892  1.00  0.00     0.130 HD
BRANCH  12  14
HETATM   14  C   UNL     1       7.374  26.825  53.444  1.00  0.00     0.134 C 
BRANCH  14  15
HETATM   15  C   UNL     1       7.502  25.337  53.670  1.00  0.00    -0.045 A 
HETATM   16  C   UNL     1       7.949  24.490  52.649  1.00  0.00     0.011 A 
HETATM   17  C   UNL     1       8.004  23.110  52.859  1.00  0.00     0.037 A 
HETATM   18  C   UNL     1       7.637  22.555  54.088  1.00  0.00     0.068 A 
HETATM   19  C   UNL     1       7.212  23.395  55.115  1.00  0.00     0.037 A 
HETATM   20  C   UNL     1       7.151  24.776  54.909  1.00  0.00     0.011 A 
BRANCH  18  21
HETATM   21  O   UNL     1       7.727  21.194  54.152  1.00  0.00    -0.356 OA
HETATM   22  C   UNL     1       8.076  20.512  52.951  1.00  0.00     0.210 C 
ENDBRANCH  18  21
ENDBRANCH  14  15
ENDBRANCH  12  14
ENDBRANCH   3  12
BRANCH   1  23
HETATM   23  N   UNL     1       5.627  30.023  58.203  1.00  0.00    -0.277 NA
HETATM   24  H   UNL     1       6.126  30.463  58.975  1.00  0.00     0.129 HD
BRANCH  23  25
HETATM   25  C   UNL     1       4.583  30.908  57.682  1.00  0.00     0.093 C 
BRANCH  25  26
HETATM   26  C   UNL     1       5.135  32.329  57.568  1.00  0.00     0.010 C 
HETATM   27  C   UNL     1       5.508  32.893  58.929  1.00  0.00     0.006 C 
ENDBRANCH  25  26
ENDBRANCH  23  25
ENDBRANCH   1  23
TORSDOF 7
ENDMDL
MODEL 6
REMARK VINA RESULT:      -7.9      2.077      2.562
REMARK  7 active torsions:
REMARK  status: ('A' for Active; 'I' for Inactive)
REMARK    1  A    between atoms: C_2  and  C_3 
REMARK    2  A    between atoms: C_3  and  N_4 
REMARK    3  A    between atoms: N_4  and  C_5 
REMARK    4  A    between atoms: C_7  and  N_8 
REMARK    5  A    between atoms: N_8  and  C_9 
REMARK    6  A    between atoms: C_9  and  C_10 
REMARK    7  A    between atoms: C_13  and  O_14 
ROOT
HETATM    1  C   UNL     1       7.911  24.031  53.708  1.00  0.00     0.119 A 
HETATM    2  N   UNL     1       7.960  24.941  54.700  1.00  0.00    -0.207 NA
HETATM    3  C   UNL     1       8.208  24.503  55.941  1.00  0.00     0.181 A 
HETATM    4  N   UNL     1       8.383  23.218  56.235  1.00  0.00    -0.330 N 
HETATM    5  H   UNL     1       8.473  22.963  57.211  1.00  0.00     0.168 HD
HETATM    6  C   UNL     1       8.395  22.282  55.282  1.00  0.00     0.048 A 
HETATM    7  C   UNL     1       8.165  22.664  53.944  1.00  0.00     0.031 A 
HETATM    8  C   UNL     1       8.636  20.942  55.616  1.00  0.00     0.030 A 
HETATM    9  C   UNL     1       8.665  19.966  54.620  1.00  0.00     0.002 A 
HETATM   10  C   UNL     1       8.454  20.323  53.292  1.00  0.00     0.001 A 
HETATM   11  C   UNL     1       8.206  21.656  52.953  1.00  0.00     0.017 A 
ENDROOT
BRANCH   3  12
HETATM   12  N   UNL     1       8.184  25.454  56.948  1.00  0.00    -0.258 NA
HETATM   13  H   UNL     1       8.828  25.102  57.660  1.00  0.00     0.130 HD
BRANCH  12  14
HETATM   14  C   UNL     1       6.891  25.793  57.540  1.00  0.00     0.134 C 
BRANCH  14  15
HETATM   15  C   UNL     1       6.482  27.191  57.136  1.00  0.00    -0.045 A 
HETATM   16  C   UNL     1       5.352  27.408  56.340  1.00  0.00     0.011 A 
HETATM   17  C   UNL     1       5.025  28.703  55.929  1.00  0.00     0.037 A 
HETATM   18  C   UNL     1       5.801  29.797  56.318  1.00  0.00     0.068 A 
HETATM   19  C   UNL     1       6.915  29.589  57.128  1.00  0.00     0.037 A 
HETATM   20  C   UNL     1       7.249  28.297  57.539  1.00  0.00     0.011 A 
BRANCH  18  21
HETATM   21  O   UNL     1       5.375  31.002  55.836  1.00  0.00    -0.356 OA
HETATM   22  C   UNL     1       5.077  32.012  56.795  1.00  0.00     0.210 C 
ENDBRANCH  18  21
ENDBRANCH  14  15
ENDBRANCH  12  14
ENDBRANCH   3  12
BRANCH   1  23
HETATM   23  N   UNL     1       7.644  24.470  52.401  1.00  0.00    -0.277 NA
HETATM   24  H   UNL     1       7.163  23.743  51.873  1.00  0.00     0.129 HD
BRANCH  23  25
HETATM   25  C   UNL     1       6.951  25.754  52.278  1.00  0.00     0.093 C 
BRANCH  25  26
HETATM   26  C   UNL     1       5.508  25.509  51.834  1.00  0.00     0.010 C 
HETATM   27  C   UNL     1       4.646  25.019  52.985  1.00  0.00     0.006 C 
ENDBRANCH  25  26
ENDBRANCH  23  25
ENDBRANCH   1  23
TORSDOF 7
ENDMDL
MODEL 7
REMARK VINA RESULT:      -7.8      3.897      7.352
REMARK  7 active torsions:
REMARK  status: ('A' for Active; 'I' for Inactive)
REMARK    1  A    between atoms: C_2  and  C_3 
REMARK    2  A    between atoms: C_3  and  N_4 
REMARK    3  A    between atoms: N_4  and  C_5 
REMARK    4  A    between atoms: C_7  and  N_8 
REMARK    5  A    between atoms: N_8  and  C_9 
REMARK    6  A    between atoms: C_9  and  C_10 
REMARK    7  A    between atoms: C_13  and  O_14 
ROOT
HETATM    1  C   UNL     1       6.538  24.726  55.873  1.00  0.00     0.119 A 
HETATM    2  N   UNL     1       5.607  25.491  55.272  1.00  0.00    -0.207 NA
HETATM    3  C   UNL     1       5.411  25.325  53.958  1.00  0.00     0.181 A 
HETATM    4  N   UNL     1       6.104  24.459  53.225  1.00  0.00    -0.330 N 
HETATM    5  H   UNL     1       5.958  24.461  52.223  1.00  0.00     0.168 HD
HETATM    6  C   UNL     1       7.002  23.640  53.781  1.00  0.00     0.048 A 
HETATM    7  C   UNL     1       7.252  23.736  55.164  1.00  0.00     0.031 A 
HETATM    8  C   UNL     1       7.679  22.700  52.991  1.00  0.00     0.030 A 
HETATM    9  C   UNL     1       8.604  21.834  53.572  1.00  0.00     0.002 A 
HETATM   10  C   UNL     1       8.857  21.902  54.939  1.00  0.00     0.001 A 
HETATM   11  C   UNL     1       8.191  22.842  55.730  1.00  0.00     0.017 A 
ENDROOT
BRANCH   3  12
HETATM   12  N   UNL     1       4.495  26.174  53.357  1.00  0.00    -0.258 NA
HETATM   13  H   UNL     1       3.989  25.589  52.689  1.00  0.00     0.130 HD
BRANCH  12  14
HETATM   14  C   UNL     1       5.004  27.381  52.709  1.00  0.00     0.134 C 
BRANCH  14  15
HETATM   15  C   UNL     1       4.555  27.429  51.267  1.00  0.00    -0.045 A 
HETATM   16  C   UNL     1       3.735  28.464  50.803  1.00  0.00     0.011 A 
HETATM   17  C   UNL     1       3.282  28.458  49.481  1.00  0.00     0.037 A 
HETATM   18  C   UNL     1       3.651  27.439  48.600  1.00  0.00     0.068 A 
HETATM   19  C   UNL     1       4.485  26.417  49.051  1.00  0.00     0.037 A 
HETATM   20  C   UNL     1       4.938  26.417  50.372  1.00  0.00     0.011 A 
BRANCH  18  21
HETATM   21  O   UNL     1       3.129  27.549  47.343  1.00  0.00    -0.356 OA
HETATM   22  C   UNL     1       2.178  26.564  46.951  1.00  0.00     0.210 C 
ENDBRANCH  18  21
ENDBRANCH  14  15
ENDBRANCH  12  14
ENDBRANCH   3  12
BRANCH   1  23
HETATM   23  N   UNL     1       6.765  24.892  57.249  1.00  0.00    -0.277 NA
HETATM   24  H   UNL     1       6.657  24.004  57.737  1.00  0.00     0.129 HD
BRANCH  23  25
HETATM   25  C   UNL     1       8.020  25.547  57.623  1.00  0.00     0.093 C 
BRANCH  25  26
HETATM   26  C   UNL     1       8.103  26.910  56.933  1.00  0.00     0.010 C 
HETATM   27  C   UNL     1       7.383  27.984  57.731  1.00  0.00     0.006 C 
ENDBRANCH  25  26
ENDBRANCH  23  25
ENDBRANCH   1  23
TORSDOF 7
ENDMDL
MODEL 8
REMARK VINA RESULT:      -7.7      4.738      8.635
REMARK  7 active torsions:
REMARK  status: ('A' for Active; 'I' for Inactive)
REMARK    1  A    between atoms: C_2  and  C_3 
REMARK    2  A    between atoms: C_3  and  N_4 
REMARK    3  A    between atoms: N_4  and  C_5 
REMARK    4  A    between atoms: C_7  and  N_8 
REMARK    5  A    between atoms: N_8  and  C_9 
REMARK    6  A    between atoms: C_9  and  C_10 
REMARK    7  A    between atoms: C_13  and  O_14 
ROOT
HETATM    1  C   UNL     1       6.521  24.101  53.996  1.00  0.00     0.119 A 
HETATM    2  N   UNL     1       5.955  24.252  52.783  1.00  0.00    -0.207 NA
HETATM    3  C   UNL     1       5.188  25.331  52.579  1.00  0.00     0.181 A 
HETATM    4  N   UNL     1       4.947  26.238  53.520  1.00  0.00    -0.330 N 
HETATM    5  H   UNL     1       4.282  26.973  53.312  1.00  0.00     0.168 HD
HETATM    6  C   UNL     1       5.525  26.162  54.723  1.00  0.00     0.048 A 
HETATM    7  C   UNL     1       6.366  25.068  55.011  1.00  0.00     0.031 A 
HETATM    8  C   UNL     1       5.293  27.163  55.678  1.00  0.00     0.030 A 
HETATM    9  C   UNL     1       5.909  27.094  56.927  1.00  0.00     0.002 A 
HETATM   10  C   UNL     1       6.753  26.029  57.228  1.00  0.00     0.001 A 
HETATM   11  C   UNL     1       6.981  25.025  56.283  1.00  0.00     0.017 A 
ENDROOT
BRANCH   3  12
HETATM   12  N   UNL     1       4.566  25.421  51.344  1.00  0.00    -0.258 NA
HETATM   13  H   UNL     1       4.675  24.496  50.923  1.00  0.00     0.130 HD
BRANCH  12  14
HETATM   14  C   UNL     1       5.016  26.465  50.425  1.00  0.00     0.134 C 
BRANCH  14  15
HETATM   15  C   UNL     1       3.988  26.687  49.341  1.00  0.00    -0.045 A 
HETATM   16  C   UNL     1       3.096  27.764  49.404  1.00  0.00     0.011 A 
HETATM   17  C   UNL     1       2.114  27.917  48.422  1.00  0.00     0.037 A 
HETATM   18  C   UNL     1       2.017  27.018  47.357  1.00  0.00     0.068 A 
HETATM   19  C   UNL     1       2.915  25.955  47.278  1.00  0.00     0.037 A 
HETATM   20  C   UNL     1       3.896  25.796  48.259  1.00  0.00     0.011 A 
BRANCH  18  21
HETATM   21  O   UNL     1       1.006  27.278  46.477  1.00  0.00    -0.356 OA
HETATM   22  C   UNL     1       0.590  28.636  46.354  1.00  0.00     0.210 C 
ENDBRANCH  18  21
ENDBRANCH  14  15
ENDBRANCH  12  14
ENDBRANCH   3  12
BRANCH   1  23
HETATM   23  N   UNL     1       7.321  22.972  54.232  1.00  0.00    -0.277 NA
HETATM   24  H   UNL     1       6.772  22.229  54.661  1.00  0.00     0.129 HD
BRANCH  23  25
HETATM   25  C   UNL     1       8.083  22.467  53.088  1.00  0.00     0.093 C 
BRANCH  25  26
HETATM   26  C   UNL     1       8.184  20.944  53.180  1.00  0.00     0.010 C 
HETATM   27  C   UNL     1       8.159  20.470  54.623  1.00  0.00     0.006 C 
ENDBRANCH  25  26
ENDBRANCH  23  25
ENDBRANCH   1  23
TORSDOF 7
ENDMDL
MODEL 9
REMARK VINA RESULT:      -7.7      3.280      6.629
REMARK  7 active torsions:
REMARK  status: ('A' for Active; 'I' for Inactive)
REMARK    1  A    between atoms: C_2  and  C_3 
REMARK    2  A    between atoms: C_3  and  N_4 
REMARK    3  A    between atoms: N_4  and  C_5 
REMARK    4  A    between atoms: C_7  and  N_8 
REMARK    5  A    between atoms: N_8  and  C_9 
REMARK    6  A    between atoms: C_9  and  C_10 
REMARK    7  A    between atoms: C_13  and  O_14 
ROOT
HETATM    1  C   UNL     1       7.205  23.669  55.471  1.00  0.00     0.119 A 
HETATM    2  N   UNL     1       6.854  24.562  54.526  1.00  0.00    -0.207 NA
HETATM    3  C   UNL     1       7.051  24.230  53.243  1.00  0.00     0.181 A 
HETATM    4  N   UNL     1       7.593  23.075  52.869  1.00  0.00    -0.330 N 
HETATM    5  H   UNL     1       7.793  22.941  51.885  1.00  0.00     0.168 HD
HETATM    6  C   UNL     1       7.912  22.134  53.763  1.00  0.00     0.048 A 
HETATM    7  C   UNL     1       7.714  22.397  55.134  1.00  0.00     0.031 A 
HETATM    8  C   UNL     1       8.433  20.905  53.334  1.00  0.00     0.030 A 
HETATM    9  C   UNL     1       8.750  19.916  54.265  1.00  0.00     0.002 A 
HETATM   10  C   UNL     1       8.550  20.150  55.622  1.00  0.00     0.001 A 
HETATM   11  C   UNL     1       8.038  21.375  56.056  1.00  0.00     0.017 A 
ENDROOT
BRANCH   3  12
HETATM   12  N   UNL     1       6.743  25.196  52.300  1.00  0.00    -0.258 NA
HETATM   13  H   UNL     1       7.121  26.068  52.680  1.00  0.00     0.130 HD
BRANCH  12  14
HETATM   14  C   UNL     1       5.341  25.361  51.921  1.00  0.00     0.134 C 
BRANCH  14  15
HETATM   15  C   UNL     1       5.173  26.593  51.063  1.00  0.00    -0.045 A 
HETATM   16  C   UNL     1       4.734  26.494  49.738  1.00  0.00     0.011 A 
HETATM   17  C   UNL     1       4.642  27.640  48.944  1.00  0.00     0.037 A 
HETATM   18  C   UNL     1       4.963  28.898  49.459  1.00  0.00     0.068 A 
HETATM   19  C   UNL     1       5.380  29.006  50.784  1.00  0.00     0.037 A 
HETATM   20  C   UNL     1       5.477  27.863  51.581  1.00  0.00     0.011 A 
BRANCH  18  21
HETATM   21  O   UNL     1       4.840  29.929  48.572  1.00  0.00    -0.356 OA
HETATM   22  C   UNL     1       4.610  29.585  47.209  1.00  0.00     0.210 C 
ENDBRANCH  18  21
ENDBRANCH  14  15
ENDBRANCH  12  14
ENDBRANCH   3  12
BRANCH   1  23
HETATM   23  N   UNL     1       7.014  24.003  56.821  1.00  0.00    -0.277 NA
HETATM   24  H   UNL     1       7.854  23.800  57.360  1.00  0.00     0.129 HD
BRANCH  23  25
HETATM   25  C   UNL     1       6.533  25.360  57.090  1.00  0.00     0.093 C 
BRANCH  25  26
HETATM   26  C   UNL     1       7.622  26.147  57.820  1.00  0.00     0.010 C 
HETATM   27  C   UNL     1       8.152  27.287  56.967  1.00  0.00     0.006 C 
ENDBRANCH  25  26
ENDBRANCH  23  25
ENDBRANCH   1  23
TORSDOF 7
ENDMDL
MODEL 10
REMARK VINA RESULT:      -7.7      3.311      8.859
REMARK  7 active torsions:
REMARK  status: ('A' for Active; 'I' for Inactive)
REMARK    1  A    between atoms: C_2  and  C_3 
REMARK    2  A    between atoms: C_3  and  N_4 
REMARK    3  A    between atoms: N_4  and  C_5 
REMARK    4  A    between atoms: C_7  and  N_8 
REMARK    5  A    between atoms: N_8  and  C_9 
REMARK    6  A    between atoms: C_9  and  C_10 
REMARK    7  A    between atoms: C_13  and  O_14 
ROOT
HETATM    1  C   UNL     1       8.026  29.850  58.496  1.00  0.00     0.119 A 
HETATM    2  N   UNL     1       8.420  28.604  58.170  1.00  0.00    -0.207 NA
HETATM    3  C   UNL     1       7.546  27.816  57.529  1.00  0.00     0.181 A 
HETATM    4  N   UNL     1       6.311  28.202  57.224  1.00  0.00    -0.330 N 
HETATM    5  H   UNL     1       5.684  27.515  56.824  1.00  0.00     0.168 HD
HETATM    6  C   UNL     1       5.888  29.444  57.479  1.00  0.00     0.048 A 
HETATM    7  C   UNL     1       6.756  30.343  58.131  1.00  0.00     0.031 A 
HETATM    8  C   UNL     1       4.597  29.839  57.098  1.00  0.00     0.030 A 
HETATM    9  C   UNL     1       4.160  31.139  57.348  1.00  0.00     0.002 A 
HETATM   10  C   UNL     1       5.005  32.047  57.979  1.00  0.00     0.001 A 
HETATM   11  C   UNL     1       6.290  31.657  58.368  1.00  0.00     0.017 A 
ENDROOT
BRANCH   3  12
HETATM   12  N   UNL     1       7.958  26.519  57.269  1.00  0.00    -0.258 NA
HETATM   13  H   UNL     1       8.556  26.592  56.443  1.00  0.00     0.130 HD
BRANCH  12  14
HETATM   14  C   UNL     1       6.929  25.499  57.078  1.00  0.00     0.134 C 
BRANCH  14  15
HETATM   15  C   UNL     1       7.483  24.341  56.282  1.00  0.00    -0.045 A 
HETATM   16  C   UNL     1       7.260  24.241  54.904  1.00  0.00     0.011 A 
HETATM   17  C   UNL     1       7.731  23.132  54.198  1.00  0.00     0.037 A 
HETATM   18  C   UNL     1       8.445  22.119  54.843  1.00  0.00     0.068 A 
HETATM   19  C   UNL     1       8.689  22.224  56.211  1.00  0.00     0.037 A 
HETATM   20  C   UNL     1       8.217  23.329  56.923  1.00  0.00     0.011 A 
BRANCH  18  21
HETATM   21  O   UNL     1       8.835  21.089  54.037  1.00  0.00    -0.356 OA
HETATM   22  C   UNL     1       7.904  20.653  53.050  1.00  0.00     0.210 C 
ENDBRANCH  18  21
ENDBRANCH  14  15
ENDBRANCH  12  14
ENDBRANCH   3  12
BRANCH   1  23
HETATM   23  N   UNL     1       8.925  30.687  59.175  1.00  0.00    -0.277 NA
HETATM   24  H   UNL     1       8.771  31.660  58.916  1.00  0.00     0.129 HD
BRANCH  23  25
HETATM   25  C   UNL     1       8.979  30.534  60.631  1.00  0.00     0.093 C 
BRANCH  25  26
HETATM   26  C   UNL     1       9.324  31.881  61.268  1.00  0.00     0.010 C 
HETATM   27  C   UNL     1       8.452  32.164  62.479  1.00  0.00     0.006 C 
ENDBRANCH  25  26
ENDBRANCH  23  25
ENDBRANCH   1  23
TORSDOF 7
ENDMDL
