MODEL 1
REMARK VINA RESULT:     -11.4      0.000      0.000
REMARK  5 active torsions:
REMARK  status: ('A' for Active; 'I' for Inactive)
REMARK    1  A    between atoms: C_6  and  C_7 
REMARK    2  A    between atoms: C_7  and  N_8 
REMARK    3  A    between atoms: C_17  and  C_18 
REMARK    4  A    between atoms: C_18  and  N_19 
REMARK    5  A    between atoms: C_22  and  C_23 
REMARK       I    between atoms: C_23  and  N_24 
ROOT
HETATM    1  N   UNL     1       5.200  25.399  55.124  1.00  0.00    -0.061 N 
HETATM    2  H   UNL     1       4.871  24.435  55.250  1.00  0.00     0.280 HD
HETATM    3  C   UNL     1       4.640  26.195  56.292  1.00  0.00     0.276 C 
HETATM    4  C   UNL     1       5.257  27.565  56.406  1.00  0.00     0.002 A 
HETATM    5  C   UNL     1       5.005  28.507  55.410  1.00  0.00     0.076 A 
HETATM    6  O   UNL     1       4.181  28.192  54.365  1.00  0.00    -0.349 OA
HETATM    7  C   UNL     1       4.848  27.308  53.445  1.00  0.00     0.203 C 
HETATM    8  C   UNL     1       4.603  25.833  53.790  1.00  0.00     0.262 C 
HETATM    9  C   UNL     1       6.206  27.873  57.399  1.00  0.00     0.020 A 
HETATM   10  C   UNL     1       6.904  29.100  57.387  1.00  0.00    -0.032 A 
HETATM   11  C   UNL     1       6.583  30.039  56.394  1.00  0.00     0.011 A 
HETATM   12  C   UNL     1       5.618  29.753  55.424  1.00  0.00     0.038 A 
ENDROOT
BRANCH  10  13
HETATM   13  C   UNL     1       8.083  29.291  58.320  1.00  0.00     0.273 C 
BRANCH  13  14
HETATM   14  N   UNL     1       7.928  30.277  59.444  1.00  0.00    -0.066 N 
HETATM   15  H   UNL     1       7.436  29.792  60.219  1.00  0.00     0.280 HD
HETATM   16  C   UNL     1       9.249  30.726  60.039  1.00  0.00     0.249 C 
HETATM   17  C   UNL     1       9.011  31.627  61.254  1.00  0.00     0.103 C 
HETATM   18  C   UNL     1       8.112  32.811  60.888  1.00  0.00     0.017 C 
HETATM   19  C   UNL     1       6.814  32.362  60.219  1.00  0.00     0.029 C 
HETATM   20  C   UNL     1       7.061  31.443  59.031  1.00  0.00     0.235 C 
BRANCH  17  21
HETATM   21  C   UNL     1       8.388  30.805  62.367  1.00  0.00     0.221 C 
HETATM   22  N   UNL     1       8.991  29.625  62.655  1.00  0.00    -0.370 N 
HETATM   23  H   UNL     1       9.768  29.235  62.134  1.00  0.00     0.159 HD
HETATM   24  H   UNL     1       8.614  29.050  63.402  1.00  0.00     0.159 HD
HETATM   25  O   UNL     1       7.439  31.233  63.021  1.00  0.00    -0.273 OA
ENDBRANCH  17  21
ENDBRANCH  13  14
ENDBRANCH  10  13
BRANCH   1  26
HETATM   26  C   UNL     1       6.707  25.330  55.181  1.00  0.00     0.274 C 
BRANCH  26  27
HETATM   27  C   UNL     1       7.365  24.092  54.645  1.00  0.00    -0.026 A 
HETATM   28  C   UNL     1       7.383  22.952  55.475  1.00  0.00     0.016 A 
HETATM   29  C   UNL     1       7.848  21.712  55.021  1.00  0.00    -0.056 A 
HETATM   30  C   UNL     1       8.293  21.601  53.695  1.00  0.00    -0.056 A 
HETATM   31  C   UNL     1       7.773  20.520  55.937  1.00  0.00     0.049 C 
HETATM   32  C   UNL     1       8.741  20.281  53.123  1.00  0.00     0.049 C 
HETATM   33  C   UNL     1       8.328  22.746  52.884  1.00  0.00     0.014 A 
HETATM   34  C   UNL     1       7.858  23.992  53.333  1.00  0.00    -0.053 A 
HETATM   35  C   UNL     1       7.906  25.154  52.379  1.00  0.00     0.049 C 
ENDBRANCH  26  27
ENDBRANCH   1  26
TORSDOF 5
ENDMDL
MODEL 2
REMARK VINA RESULT:     -11.3      3.937      7.819
REMARK  5 active torsions:
REMARK  status: ('A' for Active; 'I' for Inactive)
REMARK    1  A    between atoms: C_6  and  C_7 
REMARK    2  A    between atoms: C_7  and  N_8 
REMARK    3  A    between atoms: C_17  and  C_18 
REMARK    4  A    between atoms: C_18  and  N_19 
REMARK    5  A    between atoms: C_22  and  C_23 
REMARK       I    between atoms: C_23  and  N_24 
ROOT
HETATM    1  N   UNL     1       6.787  26.120  55.780  1.00  0.00    -0.061 N 
HETATM    2  H   UNL     1       7.572  25.595  56.181  1.00  0.00     0.280 HD
HETATM    3  C   UNL     1       7.353  27.461  55.340  1.00  0.00     0.276 C 
HETATM    4  C   UNL     1       6.392  28.240  54.480  1.00  0.00     0.002 A 
HETATM    5  C   UNL     1       5.212  28.720  55.047  1.00  0.00     0.076 A 
HETATM    6  O   UNL     1       4.957  28.510  56.373  1.00  0.00    -0.349 OA
HETATM    7  C   UNL     1       4.581  27.140  56.604  1.00  0.00     0.203 C 
HETATM    8  C   UNL     1       5.796  26.261  56.930  1.00  0.00     0.262 C 
HETATM    9  C   UNL     1       6.567  28.361  53.088  1.00  0.00     0.020 A 
HETATM   10  C   UNL     1       5.571  28.939  52.273  1.00  0.00    -0.032 A 
HETATM   11  C   UNL     1       4.421  29.455  52.892  1.00  0.00     0.011 A 
HETATM   12  C   UNL     1       4.254  29.368  54.276  1.00  0.00     0.038 A 
ENDROOT
BRANCH  10  13
HETATM   13  C   UNL     1       5.689  28.828  50.766  1.00  0.00     0.273 C 
BRANCH  13  14
HETATM   14  N   UNL     1       4.698  27.951  50.054  1.00  0.00    -0.066 N 
HETATM   15  H   UNL     1       3.793  28.029  50.557  1.00  0.00     0.280 HD
HETATM   16  C   UNL     1       4.400  28.404  48.638  1.00  0.00     0.249 C 
HETATM   17  C   UNL     1       3.295  27.542  48.020  1.00  0.00     0.103 C 
HETATM   18  C   UNL     1       3.661  26.056  48.084  1.00  0.00     0.017 C 
HETATM   19  C   UNL     1       4.036  25.617  49.500  1.00  0.00     0.029 C 
HETATM   20  C   UNL     1       5.113  26.499  50.114  1.00  0.00     0.235 C 
BRANCH  17  21
HETATM   21  C   UNL     1       1.993  27.805  48.753  1.00  0.00     0.221 C 
HETATM   22  N   UNL     1       0.950  26.999  48.437  1.00  0.00    -0.370 N 
HETATM   23  H   UNL     1       0.967  26.298  47.706  1.00  0.00     0.159 HD
HETATM   24  H   UNL     1       0.063  27.133  48.914  1.00  0.00     0.159 HD
HETATM   25  O   UNL     1       1.922  28.652  49.642  1.00  0.00    -0.273 OA
ENDBRANCH  17  21
ENDBRANCH  13  14
ENDBRANCH  10  13
BRANCH   1  26
HETATM   26  C   UNL     1       6.314  25.311  54.596  1.00  0.00     0.274 C 
BRANCH  26  27
HETATM   27  C   UNL     1       7.097  24.081  54.241  1.00  0.00    -0.026 A 
HETATM   28  C   UNL     1       7.159  23.048  55.200  1.00  0.00     0.016 A 
HETATM   29  C   UNL     1       7.745  21.808  54.918  1.00  0.00    -0.056 A 
HETATM   30  C   UNL     1       8.270  21.585  53.636  1.00  0.00    -0.056 A 
HETATM   31  C   UNL     1       7.713  20.727  55.965  1.00  0.00     0.049 C 
HETATM   32  C   UNL     1       8.852  20.251  53.247  1.00  0.00     0.049 C 
HETATM   33  C   UNL     1       8.260  22.629  52.698  1.00  0.00     0.014 A 
HETATM   34  C   UNL     1       7.669  23.873  52.975  1.00  0.00    -0.053 A 
HETATM   35  C   UNL     1       7.678  24.919  51.893  1.00  0.00     0.049 C 
ENDBRANCH  26  27
ENDBRANCH   1  26
TORSDOF 5
ENDMDL
MODEL 3
REMARK VINA RESULT:     -11.2      3.398      7.378
REMARK  5 active torsions:
REMARK  status: ('A' for Active; 'I' for Inactive)
REMARK    1  A    between atoms: C_6  and  C_7 
REMARK    2  A    between atoms: C_7  and  N_8 
REMARK    3  A    between atoms: C_17  and  C_18 
REMARK    4  A    between atoms: C_18  and  N_19 
REMARK    5  A    between atoms: C_22  and  C_23 
REMARK       I    between atoms: C_23  and  N_24 
ROOT
HETATM    1  N   UNL     1       7.875  26.657  55.595  1.00  0.00    -0.061 N 
HETATM    2  H   UNL     1       8.780  26.209  55.415  1.00  0.00     0.280 HD
HETATM    3  C   UNL     1       7.869  27.944  54.783  1.00  0.00     0.276 C 
HETATM    4  C   UNL     1       6.505  28.580  54.720  1.00  0.00     0.002 A 
HETATM    5  C   UNL     1       5.944  29.100  55.885  1.00  0.00     0.076 A 
HETATM    6  O   UNL     1       6.646  29.058  57.058  1.00  0.00    -0.349 OA
HETATM    7  C   UNL     1       6.660  27.721  57.590  1.00  0.00     0.203 C 
HETATM    8  C   UNL     1       7.874  26.922  57.097  1.00  0.00     0.262 C 
HETATM    9  C   UNL     1       5.710  28.523  53.558  1.00  0.00     0.020 A 
HETATM   10  C   UNL     1       4.371  28.966  53.567  1.00  0.00    -0.032 A 
HETATM   11  C   UNL     1       3.863  29.529  54.749  1.00  0.00     0.011 A 
HETATM   12  C   UNL     1       4.655  29.619  55.896  1.00  0.00     0.038 A 
ENDROOT
BRANCH  10  13
HETATM   13  C   UNL     1       3.482  28.664  52.377  1.00  0.00     0.273 C 
BRANCH  13  14
HETATM   14  N   UNL     1       4.111  28.702  51.012  1.00  0.00    -0.066 N 
HETATM   15  H   UNL     1       4.811  27.936  50.969  1.00  0.00     0.280 HD
HETATM   16  C   UNL     1       3.135  28.404  49.890  1.00  0.00     0.249 C 
HETATM   17  C   UNL     1       3.867  28.337  48.547  1.00  0.00     0.103 C 
HETATM   18  C   UNL     1       4.661  29.621  48.293  1.00  0.00     0.017 C 
HETATM   19  C   UNL     1       5.590  29.962  49.458  1.00  0.00     0.029 C 
HETATM   20  C   UNL     1       4.858  29.996  50.791  1.00  0.00     0.235 C 
BRANCH  17  21
HETATM   21  C   UNL     1       4.784  27.128  48.542  1.00  0.00     0.221 C 
HETATM   22  N   UNL     1       5.553  26.960  47.438  1.00  0.00    -0.370 N 
HETATM   23  H   UNL     1       5.498  27.536  46.607  1.00  0.00     0.159 HD
HETATM   24  H   UNL     1       6.191  26.170  47.399  1.00  0.00     0.159 HD
HETATM   25  O   UNL     1       4.878  26.395  49.525  1.00  0.00    -0.273 OA
ENDBRANCH  17  21
ENDBRANCH  13  14
ENDBRANCH  10  13
BRANCH   1  26
HETATM   26  C   UNL     1       6.830  25.690  55.094  1.00  0.00     0.274 C 
BRANCH  26  27
HETATM   27  C   UNL     1       7.309  24.391  54.514  1.00  0.00    -0.026 A 
HETATM   28  C   UNL     1       7.422  23.289  55.388  1.00  0.00     0.016 A 
HETATM   29  C   UNL     1       7.727  22.004  54.924  1.00  0.00    -0.056 A 
HETATM   30  C   UNL     1       7.909  21.807  53.547  1.00  0.00    -0.056 A 
HETATM   31  C   UNL     1       7.762  20.861  55.903  1.00  0.00     0.049 C 
HETATM   32  C   UNL     1       8.172  20.438  52.976  1.00  0.00     0.049 C 
HETATM   33  C   UNL     1       7.852  22.911  52.682  1.00  0.00     0.014 A 
HETATM   34  C   UNL     1       7.542  24.203  53.141  1.00  0.00    -0.053 A 
HETATM   35  C   UNL     1       7.471  25.317  52.132  1.00  0.00     0.049 C 
ENDBRANCH  26  27
ENDBRANCH   1  26
TORSDOF 5
ENDMDL
MODEL 4
REMARK VINA RESULT:     -10.8      2.113      3.142
REMARK  5 active torsions:
REMARK  status: ('A' for Active; 'I' for Inactive)
REMARK    1  A    between atoms: C_6  and  C_7 
REMARK    2  A    between atoms: C_7  and  N_8 
REMARK    3  A    between atoms: C_17  and  C_18 
REMARK    4  A    between atoms: C_18  and  N_19 
REMARK    5  A    between atoms: C_22  and  C_23 
REMARK       I    between atoms: C_23  and  N_24 
ROOT
HETATM    1  N   UNL     1       5.564  25.083  52.525  1.00  0.00    -0.061 N 
HETATM    2  H   UNL     1       5.412  24.078  52.389  1.00  0.00     0.280 HD
HETATM    3  C   UNL     1       4.443  25.564  53.434  1.00  0.00     0.276 C 
HETATM    4  C   UNL     1       4.679  26.958  53.954  1.00  0.00     0.002 A 
HETATM    5  C   UNL     1       4.656  28.028  53.060  1.00  0.00     0.076 A 
HETATM    6  O   UNL     1       4.389  27.806  51.737  1.00  0.00    -0.349 OA
HETATM    7  C   UNL     1       5.525  27.209  51.086  1.00  0.00     0.203 C 
HETATM    8  C   UNL     1       5.464  25.676  51.123  1.00  0.00     0.262 C 
HETATM    9  C   UNL     1       5.080  27.200  55.282  1.00  0.00     0.020 A 
HETATM   10  C   UNL     1       5.467  28.490  55.705  1.00  0.00    -0.032 A 
HETATM   11  C   UNL     1       5.381  29.547  54.784  1.00  0.00     0.011 A 
HETATM   12  C   UNL     1       4.952  29.321  53.474  1.00  0.00     0.038 A 
ENDROOT
BRANCH  10  13
HETATM   13  C   UNL     1       6.122  28.659  57.061  1.00  0.00     0.273 C 
BRANCH  13  14
HETATM   14  N   UNL     1       7.492  29.278  57.100  1.00  0.00    -0.066 N 
HETATM   15  H   UNL     1       7.370  30.309  57.067  1.00  0.00     0.280 HD
HETATM   16  C   UNL     1       8.237  29.012  58.393  1.00  0.00     0.249 C 
HETATM   17  C   UNL     1       9.566  29.772  58.412  1.00  0.00     0.103 C 
HETATM   18  C   UNL     1      10.409  29.430  57.180  1.00  0.00     0.017 C 
HETATM   19  C   UNL     1       9.631  29.626  55.879  1.00  0.00     0.029 C 
HETATM   20  C   UNL     1       8.300  28.891  55.883  1.00  0.00     0.235 C 
BRANCH  17  21
HETATM   21  C   UNL     1       9.284  31.262  58.472  1.00  0.00     0.221 C 
HETATM   22  N   UNL     1       8.054  31.625  58.911  1.00  0.00    -0.370 N 
HETATM   23  H   UNL     1       7.306  30.976  59.125  1.00  0.00     0.159 HD
HETATM   24  H   UNL     1       7.828  32.613  58.979  1.00  0.00     0.159 HD
HETATM   25  O   UNL     1      10.158  32.088  58.213  1.00  0.00    -0.273 OA
ENDBRANCH  17  21
ENDBRANCH  13  14
ENDBRANCH  10  13
BRANCH   1  26
HETATM   26  C   UNL     1       6.908  25.209  53.200  1.00  0.00     0.274 C 
BRANCH  26  27
HETATM   27  C   UNL     1       7.436  24.002  53.920  1.00  0.00    -0.026 A 
HETATM   28  C   UNL     1       7.575  22.810  53.179  1.00  0.00     0.016 A 
HETATM   29  C   UNL     1       8.184  21.669  53.716  1.00  0.00    -0.056 A 
HETATM   30  C   UNL     1       8.685  21.724  55.025  1.00  0.00    -0.056 A 
HETATM   31  C   UNL     1       8.363  20.454  52.845  1.00  0.00     0.049 C 
HETATM   32  C   UNL     1       9.412  20.555  55.638  1.00  0.00     0.049 C 
HETATM   33  C   UNL     1       8.499  22.890  55.784  1.00  0.00     0.014 A 
HETATM   34  C   UNL     1       7.893  24.039  55.248  1.00  0.00    -0.053 A 
HETATM   35  C   UNL     1       7.769  25.252  56.129  1.00  0.00     0.049 C 
ENDBRANCH  26  27
ENDBRANCH   1  26
TORSDOF 5
ENDMDL
MODEL 5
REMARK VINA RESULT:     -10.7      3.781      7.535
REMARK  5 active torsions:
REMARK  status: ('A' for Active; 'I' for Inactive)
REMARK    1  A    between atoms: C_6  and  C_7 
REMARK    2  A    between atoms: C_7  and  N_8 
REMARK    3  A    between atoms: C_17  and  C_18 
REMARK    4  A    between atoms: C_18  and  N_19 
REMARK    5  A    between atoms: C_22  and  C_23 
REMARK       I    between atoms: C_23  and  N_24 
ROOT
HETATM    1  N   UNL     1       7.220  26.386  55.576  1.00  0.00    -0.061 N 
HETATM    2  H   UNL     1       8.117  25.941  55.799  1.00  0.00     0.280 HD
HETATM    3  C   UNL     1       7.547  27.580  54.691  1.00  0.00     0.276 C 
HETATM    4  C   UNL     1       6.320  28.176  54.050  1.00  0.00     0.002 A 
HETATM    5  C   UNL     1       5.371  28.804  54.856  1.00  0.00     0.076 A 
HETATM    6  O   UNL     1       5.577  28.900  56.205  1.00  0.00    -0.349 OA
HETATM    7  C   UNL     1       5.363  27.627  56.840  1.00  0.00     0.203 C 
HETATM    8  C   UNL     1       6.657  26.807  56.929  1.00  0.00     0.262 C 
HETATM    9  C   UNL     1       6.022  27.980  52.688  1.00  0.00     0.020 A 
HETATM   10  C   UNL     1       4.788  28.393  52.143  1.00  0.00    -0.032 A 
HETATM   11  C   UNL     1       3.882  29.065  52.980  1.00  0.00     0.011 A 
HETATM   12  C   UNL     1       4.184  29.292  54.325  1.00  0.00     0.038 A 
ENDROOT
BRANCH  10  13
HETATM   13  C   UNL     1       4.409  27.947  50.745  1.00  0.00     0.273 C 
BRANCH  13  14
HETATM   14  N   UNL     1       4.198  29.015  49.708  1.00  0.00    -0.066 N 
HETATM   15  H   UNL     1       3.434  29.632  50.045  1.00  0.00     0.280 HD
HETATM   16  C   UNL     1       5.393  29.932  49.534  1.00  0.00     0.249 C 
HETATM   17  C   UNL     1       5.063  31.064  48.558  1.00  0.00     0.103 C 
HETATM   18  C   UNL     1       4.566  30.506  47.222  1.00  0.00     0.017 C 
HETATM   19  C   UNL     1       3.410  29.524  47.404  1.00  0.00     0.029 C 
HETATM   20  C   UNL     1       3.738  28.420  48.397  1.00  0.00     0.235 C 
BRANCH  17  21
HETATM   21  C   UNL     1       4.018  31.969  49.184  1.00  0.00     0.221 C 
HETATM   22  N   UNL     1       3.595  33.013  48.429  1.00  0.00    -0.370 N 
HETATM   23  H   UNL     1       3.980  33.262  47.526  1.00  0.00     0.159 HD
HETATM   24  H   UNL     1       2.886  33.636  48.805  1.00  0.00     0.159 HD
HETATM   25  O   UNL     1       3.527  31.712  50.282  1.00  0.00    -0.273 OA
ENDBRANCH  17  21
ENDBRANCH  13  14
ENDBRANCH  10  13
BRANCH   1  26
HETATM   26  C   UNL     1       6.423  25.350  54.822  1.00  0.00     0.274 C 
BRANCH  26  27
HETATM   27  C   UNL     1       7.140  24.102  54.393  1.00  0.00    -0.026 A 
HETATM   28  C   UNL     1       7.231  23.048  55.326  1.00  0.00     0.016 A 
HETATM   29  C   UNL     1       7.755  21.797  54.983  1.00  0.00    -0.056 A 
HETATM   30  C   UNL     1       8.187  21.583  53.665  1.00  0.00    -0.056 A 
HETATM   31  C   UNL     1       7.757  20.695  56.009  1.00  0.00     0.049 C 
HETATM   32  C   UNL     1       8.698  20.240  53.213  1.00  0.00     0.049 C 
HETATM   33  C   UNL     1       8.150  22.646  52.749  1.00  0.00     0.014 A 
HETATM   34  C   UNL     1       7.620  23.903  53.087  1.00  0.00    -0.053 A 
HETATM   35  C   UNL     1       7.591  24.970  52.027  1.00  0.00     0.049 C 
ENDBRANCH  26  27
ENDBRANCH   1  26
TORSDOF 5
ENDMDL
MODEL 6
REMARK VINA RESULT:     -10.4      3.725      9.514
REMARK  5 active torsions:
REMARK  status: ('A' for Active; 'I' for Inactive)
REMARK    1  A    between atoms: C_6  and  C_7 
REMARK    2  A    between atoms: C_7  and  N_8 
REMARK    3  A    between atoms: C_17  and  C_18 
REMARK    4  A    between atoms: C_18  and  N_19 
REMARK    5  A    between atoms: C_22  and  C_23 
REMARK       I    between atoms: C_23  and  N_24 
ROOT
HETATM    1  N   UNL     1       7.020  25.911  56.365  1.00  0.00    -0.061 N 
HETATM    2  H   UNL     1       6.914  26.101  57.368  1.00  0.00     0.280 HD
HETATM    3  C   UNL     1       5.627  25.585  55.846  1.00  0.00     0.276 C 
HETATM    4  C   UNL     1       5.566  25.552  54.341  1.00  0.00     0.002 A 
HETATM    5  C   UNL     1       6.252  24.551  53.656  1.00  0.00     0.076 A 
HETATM    6  O   UNL     1       6.941  23.597  54.351  1.00  0.00    -0.349 OA
HETATM    7  C   UNL     1       8.158  24.146  54.890  1.00  0.00     0.203 C 
HETATM    8  C   UNL     1       7.955  24.708  56.303  1.00  0.00     0.262 C 
HETATM    9  C   UNL     1       4.972  26.591  53.597  1.00  0.00     0.020 A 
HETATM   10  C   UNL     1       5.076  26.634  52.191  1.00  0.00    -0.032 A 
HETATM   11  C   UNL     1       5.734  25.579  51.538  1.00  0.00     0.011 A 
HETATM   12  C   UNL     1       6.297  24.528  52.267  1.00  0.00     0.038 A 
ENDROOT
BRANCH  10  13
HETATM   13  C   UNL     1       4.641  27.885  51.454  1.00  0.00     0.273 C 
BRANCH  13  14
HETATM   14  N   UNL     1       4.386  27.769  49.977  1.00  0.00    -0.066 N 
HETATM   15  H   UNL     1       4.551  26.780  49.708  1.00  0.00     0.280 HD
HETATM   16  C   UNL     1       2.946  28.045  49.589  1.00  0.00     0.249 C 
HETATM   17  C   UNL     1       2.734  27.788  48.095  1.00  0.00     0.103 C 
HETATM   18  C   UNL     1       3.722  28.601  47.255  1.00  0.00     0.017 C 
HETATM   19  C   UNL     1       5.169  28.380  47.696  1.00  0.00     0.029 C 
HETATM   20  C   UNL     1       5.362  28.610  49.187  1.00  0.00     0.235 C 
BRANCH  17  21
HETATM   21  C   UNL     1       2.891  26.304  47.821  1.00  0.00     0.221 C 
HETATM   22  N   UNL     1       2.620  25.892  46.558  1.00  0.00    -0.370 N 
HETATM   23  H   UNL     1       2.255  26.490  45.825  1.00  0.00     0.159 HD
HETATM   24  H   UNL     1       2.725  24.909  46.328  1.00  0.00     0.159 HD
HETATM   25  O   UNL     1       3.322  25.538  48.682  1.00  0.00    -0.273 OA
ENDBRANCH  17  21
ENDBRANCH  13  14
ENDBRANCH  10  13
BRANCH   1  26
HETATM   26  C   UNL     1       7.545  27.188  55.756  1.00  0.00     0.274 C 
BRANCH  26  27
HETATM   27  C   UNL     1       7.988  28.271  56.696  1.00  0.00    -0.026 A 
HETATM   28  C   UNL     1       9.367  28.561  56.753  1.00  0.00     0.016 A 
HETATM   29  C   UNL     1       9.868  29.641  57.490  1.00  0.00    -0.056 A 
HETATM   30  C   UNL     1       8.966  30.467  58.178  1.00  0.00    -0.056 A 
HETATM   31  C   UNL     1      11.344  29.935  57.449  1.00  0.00     0.049 C 
HETATM   32  C   UNL     1       9.433  31.683  58.934  1.00  0.00     0.049 C 
HETATM   33  C   UNL     1       7.599  30.148  58.169  1.00  0.00     0.014 A 
HETATM   34  C   UNL     1       7.091  29.069  57.427  1.00  0.00    -0.053 A 
HETATM   35  C   UNL     1       5.606  28.827  57.452  1.00  0.00     0.049 C 
ENDBRANCH  26  27
ENDBRANCH   1  26
TORSDOF 5
ENDMDL
MODEL 7
REMARK VINA RESULT:     -10.3      3.126      7.710
REMARK  5 active torsions:
REMARK  status: ('A' for Active; 'I' for Inactive)
REMARK    1  A    between atoms: C_6  and  C_7 
REMARK    2  A    between atoms: C_7  and  N_8 
REMARK    3  A    between atoms: C_17  and  C_18 
REMARK    4  A    between atoms: C_18  and  N_19 
REMARK    5  A    between atoms: C_22  and  C_23 
REMARK       I    between atoms: C_23  and  N_24 
ROOT
HETATM    1  N   UNL     1       5.850  26.262  56.832  1.00  0.00    -0.061 N 
HETATM    2  H   UNL     1       5.211  26.456  57.611  1.00  0.00     0.280 HD
HETATM    3  C   UNL     1       5.185  25.176  55.999  1.00  0.00     0.276 C 
HETATM    4  C   UNL     1       5.863  24.974  54.668  1.00  0.00     0.002 A 
HETATM    5  C   UNL     1       7.157  24.456  54.638  1.00  0.00     0.076 A 
HETATM    6  O   UNL     1       7.781  24.110  55.804  1.00  0.00    -0.349 OA
HETATM    7  C   UNL     1       8.203  25.285  56.520  1.00  0.00     0.203 C 
HETATM    8  C   UNL     1       7.129  25.773  57.502  1.00  0.00     0.262 C 
HETATM    9  C   UNL     1       5.296  25.439  53.465  1.00  0.00     0.020 A 
HETATM   10  C   UNL     1       6.019  25.401  52.254  1.00  0.00    -0.032 A 
HETATM   11  C   UNL     1       7.300  24.826  52.261  1.00  0.00     0.011 A 
HETATM   12  C   UNL     1       7.856  24.332  53.443  1.00  0.00     0.038 A 
ENDROOT
BRANCH  10  13
HETATM   13  C   UNL     1       5.473  26.129  51.043  1.00  0.00     0.273 C 
BRANCH  13  14
HETATM   14  N   UNL     1       4.677  27.382  51.284  1.00  0.00    -0.066 N 
HETATM   15  H   UNL     1       4.004  27.182  52.048  1.00  0.00     0.280 HD
HETATM   16  C   UNL     1       5.514  28.540  51.792  1.00  0.00     0.249 C 
HETATM   17  C   UNL     1       4.622  29.737  52.133  1.00  0.00     0.103 C 
HETATM   18  C   UNL     1       3.758  30.134  50.933  1.00  0.00     0.017 C 
HETATM   19  C   UNL     1       2.972  28.948  50.373  1.00  0.00     0.029 C 
HETATM   20  C   UNL     1       3.864  27.755  50.066  1.00  0.00     0.235 C 
BRANCH  17  21
HETATM   21  C   UNL     1       3.753  29.384  53.326  1.00  0.00     0.221 C 
HETATM   22  N   UNL     1       3.073  30.406  53.900  1.00  0.00    -0.370 N 
HETATM   23  H   UNL     1       3.167  31.379  53.634  1.00  0.00     0.159 HD
HETATM   24  H   UNL     1       2.470  30.211  54.694  1.00  0.00     0.159 HD
HETATM   25  O   UNL     1       3.615  28.217  53.691  1.00  0.00    -0.273 OA
ENDBRANCH  17  21
ENDBRANCH  13  14
ENDBRANCH  10  13
BRANCH   1  26
HETATM   26  C   UNL     1       5.961  27.553  56.059  1.00  0.00     0.274 C 
BRANCH  26  27
HETATM   27  C   UNL     1       7.138  28.437  56.353  1.00  0.00    -0.026 A 
HETATM   28  C   UNL     1       7.224  28.999  57.644  1.00  0.00     0.016 A 
HETATM   29  C   UNL     1       8.347  29.724  58.064  1.00  0.00    -0.056 A 
HETATM   30  C   UNL     1       9.422  29.879  57.176  1.00  0.00    -0.056 A 
HETATM   31  C   UNL     1       8.403  30.235  59.479  1.00  0.00     0.049 C 
HETATM   32  C   UNL     1      10.686  30.588  57.588  1.00  0.00     0.049 C 
HETATM   33  C   UNL     1       9.316  29.369  55.872  1.00  0.00     0.014 A 
HETATM   34  C   UNL     1       8.194  28.637  55.448  1.00  0.00    -0.053 A 
HETATM   35  C   UNL     1       8.186  28.102  54.042  1.00  0.00     0.049 C 
ENDBRANCH  26  27
ENDBRANCH   1  26
TORSDOF 5
ENDMDL
MODEL 8
REMARK VINA RESULT:     -10.1      1.645      2.674
REMARK  5 active torsions:
REMARK  status: ('A' for Active; 'I' for Inactive)
REMARK    1  A    between atoms: C_6  and  C_7 
REMARK    2  A    between atoms: C_7  and  N_8 
REMARK    3  A    between atoms: C_17  and  C_18 
REMARK    4  A    between atoms: C_18  and  N_19 
REMARK    5  A    between atoms: C_22  and  C_23 
REMARK       I    between atoms: C_23  and  N_24 
ROOT
HETATM    1  N   UNL     1       5.687  25.152  52.446  1.00  0.00    -0.061 N 
HETATM    2  H   UNL     1       5.569  24.155  52.235  1.00  0.00     0.280 HD
HETATM    3  C   UNL     1       4.512  25.540  53.330  1.00  0.00     0.276 C 
HETATM    4  C   UNL     1       4.684  26.901  53.954  1.00  0.00     0.002 A 
HETATM    5  C   UNL     1       4.672  28.029  53.135  1.00  0.00     0.076 A 
HETATM    6  O   UNL     1       4.473  27.893  51.789  1.00  0.00    -0.349 OA
HETATM    7  C   UNL     1       5.655  27.370  51.155  1.00  0.00     0.203 C 
HETATM    8  C   UNL     1       5.636  25.837  51.085  1.00  0.00     0.262 C 
HETATM    9  C   UNL     1       5.016  27.060  55.313  1.00  0.00     0.020 A 
HETATM   10  C   UNL     1       5.346  28.327  55.841  1.00  0.00    -0.032 A 
HETATM   11  C   UNL     1       5.273  29.442  54.992  1.00  0.00     0.011 A 
HETATM   12  C   UNL     1       4.913  29.297  53.650  1.00  0.00     0.038 A 
ENDROOT
BRANCH  10  13
HETATM   13  C   UNL     1       5.932  28.418  57.236  1.00  0.00     0.273 C 
BRANCH  13  14
HETATM   14  N   UNL     1       5.744  29.707  57.987  1.00  0.00    -0.066 N 
HETATM   15  H   UNL     1       5.821  29.493  59.000  1.00  0.00     0.280 HD
HETATM   16  C   UNL     1       6.833  30.727  57.717  1.00  0.00     0.249 C 
HETATM   17  C   UNL     1       6.645  31.960  58.605  1.00  0.00     0.103 C 
HETATM   18  C   UNL     1       5.244  32.553  58.428  1.00  0.00     0.017 C 
HETATM   19  C   UNL     1       4.148  31.506  58.626  1.00  0.00     0.029 C 
HETATM   20  C   UNL     1       4.361  30.273  57.760  1.00  0.00     0.235 C 
BRANCH  17  21
HETATM   21  C   UNL     1       6.883  31.569  60.052  1.00  0.00     0.221 C 
HETATM   22  N   UNL     1       7.826  30.621  60.273  1.00  0.00    -0.370 N 
HETATM   23  H   UNL     1       8.315  30.116  59.542  1.00  0.00     0.159 HD
HETATM   24  H   UNL     1       8.026  30.339  61.228  1.00  0.00     0.159 HD
HETATM   25  O   UNL     1       6.306  32.148  60.972  1.00  0.00    -0.273 OA
ENDBRANCH  17  21
ENDBRANCH  13  14
ENDBRANCH  10  13
BRANCH   1  26
HETATM   26  C   UNL     1       6.994  25.264  53.192  1.00  0.00     0.274 C 
BRANCH  26  27
HETATM   27  C   UNL     1       7.478  24.048  53.927  1.00  0.00    -0.026 A 
HETATM   28  C   UNL     1       7.585  22.845  53.198  1.00  0.00     0.016 A 
HETATM   29  C   UNL     1       8.153  21.691  53.751  1.00  0.00    -0.056 A 
HETATM   30  C   UNL     1       8.644  21.741  55.064  1.00  0.00    -0.056 A 
HETATM   31  C   UNL     1       8.300  20.463  52.892  1.00  0.00     0.049 C 
HETATM   32  C   UNL     1       9.328  20.556  55.694  1.00  0.00     0.049 C 
HETATM   33  C   UNL     1       8.489  22.919  55.811  1.00  0.00     0.014 A 
HETATM   34  C   UNL     1       7.924  24.082  55.259  1.00  0.00    -0.053 A 
HETATM   35  C   UNL     1       7.831  25.306  56.128  1.00  0.00     0.049 C 
ENDBRANCH  26  27
ENDBRANCH   1  26
TORSDOF 5
ENDMDL
MODEL 9
REMARK VINA RESULT:      -9.9      3.086      7.576
REMARK  5 active torsions:
REMARK  status: ('A' for Active; 'I' for Inactive)
REMARK    1  A    between atoms: C_6  and  C_7 
REMARK    2  A    between atoms: C_7  and  N_8 
REMARK    3  A    between atoms: C_17  and  C_18 
REMARK    4  A    between atoms: C_18  and  N_19 
REMARK    5  A    between atoms: C_22  and  C_23 
REMARK       I    between atoms: C_23  and  N_24 
ROOT
HETATM    1  N   UNL     1       8.100  27.660  56.608  1.00  0.00    -0.061 N 
HETATM    2  H   UNL     1       9.022  27.210  56.596  1.00  0.00     0.280 HD
HETATM    3  C   UNL     1       7.992  28.441  55.306  1.00  0.00     0.276 C 
HETATM    4  C   UNL     1       6.592  28.932  55.042  1.00  0.00     0.002 A 
HETATM    5  C   UNL     1       6.046  29.904  55.880  1.00  0.00     0.076 A 
HETATM    6  O   UNL     1       6.791  30.420  56.904  1.00  0.00    -0.349 OA
HETATM    7  C   UNL     1       6.900  29.469  57.978  1.00  0.00     0.203 C 
HETATM    8  C   UNL     1       8.139  28.575  57.827  1.00  0.00     0.262 C 
HETATM    9  C   UNL     1       5.760  28.330  54.079  1.00  0.00     0.020 A 
HETATM   10  C   UNL     1       4.399  28.683  53.965  1.00  0.00    -0.032 A 
HETATM   11  C   UNL     1       3.904  29.702  54.796  1.00  0.00     0.011 A 
HETATM   12  C   UNL     1       4.731  30.327  55.732  1.00  0.00     0.038 A 
ENDROOT
BRANCH  10  13
HETATM   13  C   UNL     1       3.486  27.845  53.093  1.00  0.00     0.273 C 
BRANCH  13  14
HETATM   14  N   UNL     1       3.753  27.837  51.613  1.00  0.00    -0.066 N 
HETATM   15  H   UNL     1       2.891  27.501  51.142  1.00  0.00     0.280 HD
HETATM   16  C   UNL     1       4.001  29.218  51.037  1.00  0.00     0.249 C 
HETATM   17  C   UNL     1       4.141  29.147  49.514  1.00  0.00     0.103 C 
HETATM   18  C   UNL     1       5.231  28.150  49.111  1.00  0.00     0.017 C 
HETATM   19  C   UNL     1       5.022  26.779  49.753  1.00  0.00     0.029 C 
HETATM   20  C   UNL     1       4.855  26.865  51.263  1.00  0.00     0.235 C 
BRANCH  17  21
HETATM   21  C   UNL     1       2.805  28.752  48.912  1.00  0.00     0.221 C 
HETATM   22  N   UNL     1       2.791  28.516  47.578  1.00  0.00    -0.370 N 
HETATM   23  H   UNL     1       3.584  28.657  46.962  1.00  0.00     0.159 HD
HETATM   24  H   UNL     1       1.920  28.237  47.136  1.00  0.00     0.159 HD
HETATM   25  O   UNL     1       1.813  28.579  49.619  1.00  0.00    -0.273 OA
ENDBRANCH  17  21
ENDBRANCH  13  14
ENDBRANCH  10  13
BRANCH   1  26
HETATM   26  C   UNL     1       7.094  26.537  56.657  1.00  0.00     0.274 C 
BRANCH  26  27
HETATM   27  C   UNL     1       7.462  25.248  55.982  1.00  0.00    -0.026 A 
HETATM   28  C   UNL     1       6.963  25.026  54.681  1.00  0.00     0.016 A 
HETATM   29  C   UNL     1       7.357  23.924  53.914  1.00  0.00    -0.056 A 
HETATM   30  C   UNL     1       8.288  23.023  54.452  1.00  0.00    -0.056 A 
HETATM   31  C   UNL     1       6.840  23.788  52.507  1.00  0.00     0.049 C 
HETATM   32  C   UNL     1       8.805  21.854  53.654  1.00  0.00     0.049 C 
HETATM   33  C   UNL     1       8.744  23.209  55.767  1.00  0.00     0.014 A 
HETATM   34  C   UNL     1       8.356  24.317  56.540  1.00  0.00    -0.053 A 
HETATM   35  C   UNL     1       8.924  24.449  57.927  1.00  0.00     0.049 C 
ENDBRANCH  26  27
ENDBRANCH   1  26
TORSDOF 5
ENDMDL
MODEL 10
REMARK VINA RESULT:      -9.8      3.094      8.155
REMARK  5 active torsions:
REMARK  status: ('A' for Active; 'I' for Inactive)
REMARK    1  A    between atoms: C_6  and  C_7 
REMARK    2  A    between atoms: C_7  and  N_8 
REMARK    3  A    between atoms: C_17  and  C_18 
REMARK    4  A    between atoms: C_18  and  N_19 
REMARK    5  A    between atoms: C_22  and  C_23 
REMARK       I    between atoms: C_23  and  N_24 
ROOT
HETATM    1  N   UNL     1       6.307  26.235  57.107  1.00  0.00    -0.061 N 
HETATM    2  H   UNL     1       5.727  26.576  57.882  1.00  0.00     0.280 HD
HETATM    3  C   UNL     1       5.469  25.196  56.377  1.00  0.00     0.276 C 
HETATM    4  C   UNL     1       6.068  24.800  55.052  1.00  0.00     0.002 A 
HETATM    5  C   UNL     1       7.275  24.103  55.035  1.00  0.00     0.076 A 
HETATM    6  O   UNL     1       7.881  23.758  56.212  1.00  0.00    -0.349 OA
HETATM    7  C   UNL     1       8.487  24.912  56.823  1.00  0.00     0.203 C 
HETATM    8  C   UNL     1       7.525  25.620  57.786  1.00  0.00     0.262 C 
HETATM    9  C   UNL     1       5.534  25.250  53.829  1.00  0.00     0.020 A 
HETATM   10  C   UNL     1       6.205  25.018  52.609  1.00  0.00    -0.032 A 
HETATM   11  C   UNL     1       7.392  24.268  52.634  1.00  0.00     0.011 A 
HETATM   12  C   UNL     1       7.911  23.790  53.840  1.00  0.00     0.038 A 
ENDROOT
BRANCH  10  13
HETATM   13  C   UNL     1       5.729  25.724  51.356  1.00  0.00     0.273 C 
BRANCH  13  14
HETATM   14  N   UNL     1       5.032  27.046  51.524  1.00  0.00    -0.066 N 
HETATM   15  H   UNL     1       4.240  26.900  52.180  1.00  0.00     0.280 HD
HETATM   16  C   UNL     1       5.896  28.105  52.181  1.00  0.00     0.249 C 
HETATM   17  C   UNL     1       5.085  29.379  52.433  1.00  0.00     0.103 C 
HETATM   18  C   UNL     1       4.442  29.882  51.137  1.00  0.00     0.017 C 
HETATM   19  C   UNL     1       3.633  28.792  50.435  1.00  0.00     0.029 C 
HETATM   20  C   UNL     1       4.440  27.521  50.217  1.00  0.00     0.235 C 
BRANCH  17  21
HETATM   21  C   UNL     1       4.025  29.093  53.481  1.00  0.00     0.221 C 
HETATM   22  N   UNL     1       3.191  30.116  53.790  1.00  0.00    -0.370 N 
HETATM   23  H   UNL     1       3.280  31.058  53.427  1.00  0.00     0.159 HD
HETATM   24  H   UNL     1       2.459  29.964  54.477  1.00  0.00     0.159 HD
HETATM   25  O   UNL     1       3.886  27.967  53.956  1.00  0.00    -0.273 OA
ENDBRANCH  17  21
ENDBRANCH  13  14
ENDBRANCH  10  13
BRANCH   1  26
HETATM   26  C   UNL     1       6.574  27.436  56.233  1.00  0.00     0.274 C 
BRANCH  26  27
HETATM   27  C   UNL     1       6.481  28.791  56.871  1.00  0.00    -0.026 A 
HETATM   28  C   UNL     1       5.197  29.356  57.020  1.00  0.00     0.016 A 
HETATM   29  C   UNL     1       4.988  30.549  57.723  1.00  0.00    -0.056 A 
HETATM   30  C   UNL     1       6.090  31.190  58.308  1.00  0.00    -0.056 A 
HETATM   31  C   UNL     1       3.583  31.057  57.904  1.00  0.00     0.049 C 
HETATM   32  C   UNL     1       5.925  32.439  59.134  1.00  0.00     0.049 C 
HETATM   33  C   UNL     1       7.376  30.661  58.114  1.00  0.00     0.014 A 
HETATM   34  C   UNL     1       7.590  29.462  57.414  1.00  0.00    -0.053 A 
HETATM   35  C   UNL     1       9.002  28.957  57.288  1.00  0.00     0.049 C 
ENDBRANCH  26  27
ENDBRANCH   1  26
TORSDOF 5
ENDMDL
