MODEL 1
REMARK VINA RESULT:      -7.9      0.000      0.000
REMARK  3 active torsions:
REMARK  status: ('A' for Active; 'I' for Inactive)
REMARK    1  A    between atoms: C_2  and  C_3 
REMARK    2  A    between atoms: C_9  and  C_10 
REMARK    3  A    between atoms: C_20  and  N_21 
ROOT
HETATM    1  C   UNL     1       7.676  23.762  54.706  1.00  0.00     0.043 A 
HETATM    2  N   UNL     1       8.496  23.123  53.800  1.00  0.00    -0.279 N 
HETATM    3  H   UNL     1       9.162  22.377  53.979  1.00  0.00     0.189 HD
HETATM    4  N   UNL     1       8.357  23.561  52.534  1.00  0.00    -0.148 NA
HETATM    5  C   UNL     1       7.424  24.495  52.655  1.00  0.00     0.199 A 
HETATM    6  C   UNL     1       6.979  24.698  53.964  1.00  0.00     0.035 A 
HETATM    7  C   UNL     1       5.936  25.721  54.259  1.00  0.00     0.107 A 
HETATM    8  C   UNL     1       5.431  26.371  52.973  1.00  0.00     0.081 A 
HETATM    9  C   UNL     1       4.353  27.294  53.106  1.00  0.00     0.100 C 
HETATM   10  N   UNL     1       3.487  28.060  53.213  1.00  0.00    -0.191 NA
HETATM   11  C   UNL     1       5.941  26.079  51.746  1.00  0.00     0.140 A 
HETATM   12  O   UNL     1       6.981  25.156  51.571  1.00  0.00    -0.277 OA
ENDROOT
BRANCH   7  13
HETATM   13  C   UNL     1       6.584  26.724  55.212  1.00  0.00    -0.022 A 
HETATM   14  C   UNL     1       6.191  26.837  56.559  1.00  0.00     0.041 A 
HETATM   15 CL   UNL     1       4.963  25.838  57.253  1.00  0.00    -0.084 Cl
HETATM   16  C   UNL     1       6.785  27.782  57.404  1.00  0.00     0.024 A 
HETATM   17  C   UNL     1       7.774  28.637  56.923  1.00  0.00     0.002 A 
HETATM   18  C   UNL     1       8.171  28.552  55.594  1.00  0.00     0.001 A 
HETATM   19  C   UNL     1       7.582  27.612  54.746  1.00  0.00     0.010 A 
ENDBRANCH   7  13
BRANCH  11  20
HETATM   20  N   UNL     1       5.520  26.634  50.558  1.00  0.00    -0.282 NA
HETATM   21  H   UNL     1       6.045  26.370  49.729  1.00  0.00     0.126 HD
HETATM   22  H   UNL     1       4.511  26.563  50.439  1.00  0.00     0.126 HD
ENDBRANCH  11  20
BRANCH   1  23
HETATM   23  C   UNL     1       7.653  23.417  56.165  1.00  0.00     0.029 C 
HETATM   24  C   UNL     1       8.660  24.256  56.950  1.00  0.00     0.016 C 
HETATM   25  C   UNL     1       7.892  21.924  56.388  1.00  0.00     0.016 C 
ENDBRANCH   1  23
TORSDOF 3
ENDMDL
MODEL 2
REMARK VINA RESULT:      -7.2      2.559      4.776
REMARK  3 active torsions:
REMARK  status: ('A' for Active; 'I' for Inactive)
REMARK    1  A    between atoms: C_2  and  C_3 
REMARK    2  A    between atoms: C_9  and  C_10 
REMARK    3  A    between atoms: C_20  and  N_21 
ROOT
HETATM    1  C   UNL     1       7.205  28.897  55.701  1.00  0.00     0.043 A 
HETATM    2  N   UNL     1       6.501  29.853  56.403  1.00  0.00    -0.279 N 
HETATM    3  H   UNL     1       6.823  30.417  57.183  1.00  0.00     0.189 HD
HETATM    4  N   UNL     1       5.243  30.039  55.960  1.00  0.00    -0.148 NA
HETATM    5  C   UNL     1       5.163  29.180  54.954  1.00  0.00     0.199 A 
HETATM    6  C   UNL     1       6.318  28.419  54.753  1.00  0.00     0.035 A 
HETATM    7  C   UNL     1       6.377  27.403  53.664  1.00  0.00     0.107 A 
HETATM    8  C   UNL     1       5.095  27.421  52.833  1.00  0.00     0.081 A 
HETATM    9  C   UNL     1       5.066  26.570  51.690  1.00  0.00     0.100 C 
HETATM   10  N   UNL     1       5.031  25.864  50.769  1.00  0.00    -0.191 NA
HETATM   11  C   UNL     1       4.036  28.222  53.125  1.00  0.00     0.140 A 
HETATM   12  O   UNL     1       4.038  29.094  54.223  1.00  0.00    -0.277 OA
ENDROOT
BRANCH   7  13
HETATM   13  C   UNL     1       6.618  26.060  54.350  1.00  0.00    -0.022 A 
HETATM   14  C   UNL     1       7.427  25.062  53.774  1.00  0.00     0.041 A 
HETATM   15 CL   UNL     1       8.234  25.280  52.261  1.00  0.00    -0.084 Cl
HETATM   16  C   UNL     1       7.610  23.829  54.413  1.00  0.00     0.024 A 
HETATM   17  C   UNL     1       6.986  23.565  55.629  1.00  0.00     0.002 A 
HETATM   18  C   UNL     1       6.173  24.530  56.212  1.00  0.00     0.001 A 
HETATM   19  C   UNL     1       5.986  25.760  55.579  1.00  0.00     0.010 A 
ENDBRANCH   7  13
BRANCH  11  20
HETATM   20  N   UNL     1       2.861  28.276  52.407  1.00  0.00    -0.282 NA
HETATM   21  H   UNL     1       2.781  29.038  51.738  1.00  0.00     0.126 HD
HETATM   22  H   UNL     1       2.606  27.370  52.021  1.00  0.00     0.126 HD
ENDBRANCH  11  20
BRANCH   1  23
HETATM   23  C   UNL     1       8.629  28.545  56.013  1.00  0.00     0.029 C 
HETATM   24  C   UNL     1       8.712  27.497  57.121  1.00  0.00     0.016 C 
HETATM   25  C   UNL     1       9.444  29.788  56.371  1.00  0.00     0.016 C 
ENDBRANCH   1  23
TORSDOF 3
ENDMDL
MODEL 3
REMARK VINA RESULT:      -7.0      3.640      5.785
REMARK  3 active torsions:
REMARK  status: ('A' for Active; 'I' for Inactive)
REMARK    1  A    between atoms: C_2  and  C_3 
REMARK    2  A    between atoms: C_9  and  C_10 
REMARK    3  A    between atoms: C_20  and  N_21 
ROOT
HETATM    1  C   UNL     1       8.636  29.741  57.363  1.00  0.00     0.043 A 
HETATM    2  N   UNL     1       8.570  30.508  58.506  1.00  0.00    -0.279 N 
HETATM    3  H   UNL     1       9.339  30.846  59.077  1.00  0.00     0.189 HD
HETATM    4  N   UNL     1       7.316  30.839  58.870  1.00  0.00    -0.148 NA
HETATM    5  C   UNL     1       6.583  30.266  57.926  1.00  0.00     0.199 A 
HETATM    6  C   UNL     1       7.320  29.547  56.982  1.00  0.00     0.035 A 
HETATM    7  C   UNL     1       6.635  28.840  55.863  1.00  0.00     0.107 A 
HETATM    8  C   UNL     1       5.131  29.107  55.891  1.00  0.00     0.081 A 
HETATM    9  C   UNL     1       4.370  28.575  54.809  1.00  0.00     0.100 C 
HETATM   10  N   UNL     1       3.744  28.128  53.940  1.00  0.00    -0.191 NA
HETATM   11  C   UNL     1       4.528  29.838  56.865  1.00  0.00     0.140 A 
HETATM   12  O   UNL     1       5.246  30.402  57.929  1.00  0.00    -0.277 OA
ENDROOT
BRANCH   7  13
HETATM   13  C   UNL     1       6.975  27.359  56.025  1.00  0.00    -0.022 A 
HETATM   14  C   UNL     1       7.348  26.554  54.932  1.00  0.00     0.041 A 
HETATM   15 CL   UNL     1       7.475  27.175  53.324  1.00  0.00    -0.084 Cl
HETATM   16  C   UNL     1       7.629  25.194  55.106  1.00  0.00     0.024 A 
HETATM   17  C   UNL     1       7.538  24.609  56.366  1.00  0.00     0.002 A 
HETATM   18  C   UNL     1       7.162  25.380  57.459  1.00  0.00     0.001 A 
HETATM   19  C   UNL     1       6.878  26.737  57.292  1.00  0.00     0.010 A 
ENDBRANCH   7  13
BRANCH  11  20
HETATM   20  N   UNL     1       3.179  30.109  56.934  1.00  0.00    -0.282 NA
HETATM   21  H   UNL     1       2.847  30.879  56.359  1.00  0.00     0.126 HD
HETATM   22  H   UNL     1       2.614  29.266  56.847  1.00  0.00     0.126 HD
ENDBRANCH  11  20
BRANCH   1  23
HETATM   23  C   UNL     1       9.933  29.279  56.768  1.00  0.00     0.029 C 
HETATM   24  C   UNL     1      11.121  30.003  57.399  1.00  0.00     0.016 C 
HETATM   25  C   UNL     1       9.937  29.439  55.248  1.00  0.00     0.016 C 
ENDBRANCH   1  23
TORSDOF 3
ENDMDL
MODEL 4
REMARK VINA RESULT:      -6.9     10.873     13.560
REMARK  3 active torsions:
REMARK  status: ('A' for Active; 'I' for Inactive)
REMARK    1  A    between atoms: C_2  and  C_3 
REMARK    2  A    between atoms: C_9  and  C_10 
REMARK    3  A    between atoms: C_20  and  N_21 
ROOT
HETATM    1  C   UNL     1       5.135  37.041  62.022  1.00  0.00     0.043 A 
HETATM    2  N   UNL     1       4.307  37.675  61.119  1.00  0.00    -0.279 N 
HETATM    3  H   UNL     1       4.305  38.656  60.856  1.00  0.00     0.189 HD
HETATM    4  N   UNL     1       3.416  36.857  60.527  1.00  0.00    -0.148 NA
HETATM    5  C   UNL     1       3.699  35.682  61.073  1.00  0.00     0.199 A 
HETATM    6  C   UNL     1       4.722  35.720  62.023  1.00  0.00     0.035 A 
HETATM    7  C   UNL     1       5.148  34.478  62.729  1.00  0.00     0.107 A 
HETATM    8  C   UNL     1       4.391  33.263  62.197  1.00  0.00     0.081 A 
HETATM    9  C   UNL     1       4.781  31.993  62.714  1.00  0.00     0.100 C 
HETATM   10  N   UNL     1       5.084  30.959  63.147  1.00  0.00    -0.191 NA
HETATM   11  C   UNL     1       3.415  33.354  61.254  1.00  0.00     0.140 A 
HETATM   12  O   UNL     1       3.024  34.581  60.700  1.00  0.00    -0.277 OA
ENDROOT
BRANCH   7  13
HETATM   13  C   UNL     1       4.894  34.727  64.215  1.00  0.00    -0.022 A 
HETATM   14  C   UNL     1       5.854  34.421  65.199  1.00  0.00     0.041 A 
HETATM   15 CL   UNL     1       7.404  33.762  64.808  1.00  0.00    -0.084 Cl
HETATM   16  C   UNL     1       5.585  34.636  66.555  1.00  0.00     0.024 A 
HETATM   17  C   UNL     1       4.356  35.152  66.959  1.00  0.00     0.002 A 
HETATM   18  C   UNL     1       3.388  35.452  66.008  1.00  0.00     0.001 A 
HETATM   19  C   UNL     1       3.650  35.239  64.653  1.00  0.00     0.010 A 
ENDBRANCH   7  13
BRANCH  11  20
HETATM   20  N   UNL     1       2.706  32.290  60.741  1.00  0.00    -0.282 NA
HETATM   21  H   UNL     1       1.850  32.045  61.231  1.00  0.00     0.126 HD
HETATM   22  H   UNL     1       2.590  32.359  59.732  1.00  0.00     0.126 HD
ENDBRANCH  11  20
BRANCH   1  23
HETATM   23  C   UNL     1       6.213  37.758  62.777  1.00  0.00     0.029 C 
HETATM   24  C   UNL     1       5.682  38.331  64.090  1.00  0.00     0.016 C 
HETATM   25  C   UNL     1       6.860  38.849  61.924  1.00  0.00     0.016 C 
ENDBRANCH   1  23
TORSDOF 3
ENDMDL
MODEL 5
REMARK VINA RESULT:      -6.8     10.085     12.596
REMARK  3 active torsions:
REMARK  status: ('A' for Active; 'I' for Inactive)
REMARK    1  A    between atoms: C_2  and  C_3 
REMARK    2  A    between atoms: C_9  and  C_10 
REMARK    3  A    between atoms: C_20  and  N_21 
ROOT
HETATM    1  C   UNL     1       5.523  33.873  65.189  1.00  0.00     0.043 A 
HETATM    2  N   UNL     1       6.743  33.534  65.733  1.00  0.00    -0.279 N 
HETATM    3  H   UNL     1       7.067  33.689  66.683  1.00  0.00     0.189 HD
HETATM    4  N   UNL     1       7.573  32.915  64.872  1.00  0.00    -0.148 NA
HETATM    5  C   UNL     1       6.848  32.863  63.763  1.00  0.00     0.199 A 
HETATM    6  C   UNL     1       5.589  33.459  63.870  1.00  0.00     0.035 A 
HETATM    7  C   UNL     1       4.661  33.486  62.704  1.00  0.00     0.107 A 
HETATM    8  C   UNL     1       5.257  32.729  61.518  1.00  0.00     0.081 A 
HETATM    9  C   UNL     1       4.423  32.588  60.370  1.00  0.00     0.100 C 
HETATM   10  N   UNL     1       3.754  32.486  59.427  1.00  0.00    -0.191 NA
HETATM   11  C   UNL     1       6.500  32.179  61.540  1.00  0.00     0.140 A 
HETATM   12  O   UNL     1       7.338  32.271  62.660  1.00  0.00    -0.277 OA
ENDROOT
BRANCH   7  13
HETATM   13  C   UNL     1       4.410  34.962  62.396  1.00  0.00    -0.022 A 
HETATM   14  C   UNL     1       3.110  35.490  62.282  1.00  0.00     0.041 A 
HETATM   15 CL   UNL     1       1.694  34.524  62.502  1.00  0.00    -0.084 Cl
HETATM   16  C   UNL     1       2.910  36.841  61.974  1.00  0.00     0.024 A 
HETATM   17  C   UNL     1       3.996  37.688  61.767  1.00  0.00     0.002 A 
HETATM   18  C   UNL     1       5.289  37.187  61.864  1.00  0.00     0.001 A 
HETATM   19  C   UNL     1       5.496  35.840  62.170  1.00  0.00     0.010 A 
ENDBRANCH   7  13
BRANCH  11  20
HETATM   20  N   UNL     1       7.079  31.486  60.500  1.00  0.00    -0.282 NA
HETATM   21  H   UNL     1       8.092  31.402  60.528  1.00  0.00     0.126 HD
HETATM   22  H   UNL     1       6.605  30.605  60.316  1.00  0.00     0.126 HD
ENDBRANCH  11  20
BRANCH   1  23
HETATM   23  C   UNL     1       4.442  34.550  65.976  1.00  0.00     0.029 C 
HETATM   24  C   UNL     1       4.525  36.069  65.840  1.00  0.00     0.016 C 
HETATM   25  C   UNL     1       4.476  34.128  67.446  1.00  0.00     0.016 C 
ENDBRANCH   1  23
TORSDOF 3
ENDMDL
MODEL 6
REMARK VINA RESULT:      -6.7      1.630      2.508
REMARK  3 active torsions:
REMARK  status: ('A' for Active; 'I' for Inactive)
REMARK    1  A    between atoms: C_2  and  C_3 
REMARK    2  A    between atoms: C_9  and  C_10 
REMARK    3  A    between atoms: C_20  and  N_21 
ROOT
HETATM    1  C   UNL     1       6.942  25.152  53.225  1.00  0.00     0.043 A 
HETATM    2  N   UNL     1       6.946  25.071  51.849  1.00  0.00    -0.279 N 
HETATM    3  H   UNL     1       7.450  24.412  51.263  1.00  0.00     0.189 HD
HETATM    4  N   UNL     1       6.164  25.988  51.246  1.00  0.00    -0.148 NA
HETATM    5  C   UNL     1       5.657  26.653  52.274  1.00  0.00     0.199 A 
HETATM    6  C   UNL     1       6.113  26.218  53.522  1.00  0.00     0.035 A 
HETATM    7  C   UNL     1       5.638  26.875  54.773  1.00  0.00     0.107 A 
HETATM    8  C   UNL     1       4.592  27.943  54.463  1.00  0.00     0.081 A 
HETATM    9  C   UNL     1       3.976  28.575  55.584  1.00  0.00     0.100 C 
HETATM   10  N   UNL     1       3.486  29.105  56.493  1.00  0.00    -0.191 NA
HETATM   11  C   UNL     1       4.221  28.271  53.197  1.00  0.00     0.140 A 
HETATM   12  O   UNL     1       4.782  27.652  52.071  1.00  0.00    -0.277 OA
ENDROOT
BRANCH   7  13
HETATM   13  C   UNL     1       6.883  27.447  55.450  1.00  0.00    -0.022 A 
HETATM   14  C   UNL     1       7.253  27.086  56.760  1.00  0.00     0.041 A 
HETATM   15 CL   UNL     1       6.349  25.953  57.700  1.00  0.00    -0.084 Cl
HETATM   16  C   UNL     1       8.386  27.645  57.364  1.00  0.00     0.024 A 
HETATM   17  C   UNL     1       9.164  28.577  56.682  1.00  0.00     0.002 A 
HETATM   18  C   UNL     1       8.812  28.957  55.393  1.00  0.00     0.001 A 
HETATM   19  C   UNL     1       7.684  28.404  54.784  1.00  0.00     0.010 A 
ENDBRANCH   7  13
BRANCH  11  20
HETATM   20  N   UNL     1       3.282  29.224  52.866  1.00  0.00    -0.282 NA
HETATM   21  H   UNL     1       2.660  29.517  53.615  1.00  0.00     0.126 HD
HETATM   22  H   UNL     1       3.691  30.001  52.351  1.00  0.00     0.126 HD
ENDBRANCH  11  20
BRANCH   1  23
HETATM   23  C   UNL     1       7.725  24.215  54.095  1.00  0.00     0.029 C 
HETATM   24  C   UNL     1       8.361  23.095  53.273  1.00  0.00     0.016 C 
HETATM   25  C   UNL     1       6.861  23.647  55.221  1.00  0.00     0.016 C 
ENDBRANCH   1  23
TORSDOF 3
ENDMDL
MODEL 7
REMARK VINA RESULT:      -6.5      2.760      4.368
REMARK  3 active torsions:
REMARK  status: ('A' for Active; 'I' for Inactive)
REMARK    1  A    between atoms: C_2  and  C_3 
REMARK    2  A    between atoms: C_9  and  C_10 
REMARK    3  A    between atoms: C_20  and  N_21 
ROOT
HETATM    1  C   UNL     1       5.086  27.028  53.104  1.00  0.00     0.043 A 
HETATM    2  N   UNL     1       5.085  27.459  51.794  1.00  0.00    -0.279 N 
HETATM    3  H   UNL     1       5.286  26.917  50.959  1.00  0.00     0.189 HD
HETATM    4  N   UNL     1       4.762  28.758  51.646  1.00  0.00    -0.148 NA
HETATM    5  C   UNL     1       4.551  29.145  52.897  1.00  0.00     0.199 A 
HETATM    6  C   UNL     1       4.761  28.146  53.851  1.00  0.00     0.035 A 
HETATM    7  C   UNL     1       4.572  28.431  55.302  1.00  0.00     0.107 A 
HETATM    8  C   UNL     1       4.063  29.856  55.514  1.00  0.00     0.081 A 
HETATM    9  C   UNL     1       3.737  30.223  56.853  1.00  0.00     0.100 C 
HETATM   10  N   UNL     1       3.489  30.531  57.944  1.00  0.00    -0.191 NA
HETATM   11  C   UNL     1       3.887  30.738  54.494  1.00  0.00     0.140 A 
HETATM   12  O   UNL     1       4.167  30.405  53.162  1.00  0.00    -0.277 OA
ENDROOT
BRANCH   7  13
HETATM   13  C   UNL     1       5.927  28.184  55.963  1.00  0.00    -0.022 A 
HETATM   14  C   UNL     1       6.155  27.084  56.811  1.00  0.00     0.041 A 
HETATM   15 CL   UNL     1       4.933  25.911  57.157  1.00  0.00    -0.084 Cl
HETATM   16  C   UNL     1       7.400  26.896  57.424  1.00  0.00     0.024 A 
HETATM   17  C   UNL     1       8.436  27.801  57.211  1.00  0.00     0.002 A 
HETATM   18  C   UNL     1       8.232  28.901  56.386  1.00  0.00     0.001 A 
HETATM   19  C   UNL     1       6.993  29.095  55.773  1.00  0.00     0.010 A 
ENDBRANCH   7  13
BRANCH  11  20
HETATM   20  N   UNL     1       3.429  32.030  54.633  1.00  0.00    -0.282 NA
HETATM   21  H   UNL     1       2.574  32.146  55.171  1.00  0.00     0.126 HD
HETATM   22  H   UNL     1       4.170  32.671  54.906  1.00  0.00     0.126 HD
ENDBRANCH  11  20
BRANCH   1  23
HETATM   23  C   UNL     1       5.397  25.614  53.493  1.00  0.00     0.029 C 
HETATM   24  C   UNL     1       6.900  25.406  53.673  1.00  0.00     0.016 C 
HETATM   25  C   UNL     1       4.823  24.619  52.484  1.00  0.00     0.016 C 
ENDBRANCH   1  23
TORSDOF 3
ENDMDL
MODEL 8
REMARK VINA RESULT:      -6.5      8.413     10.333
REMARK  3 active torsions:
REMARK  status: ('A' for Active; 'I' for Inactive)
REMARK    1  A    between atoms: C_2  and  C_3 
REMARK    2  A    between atoms: C_9  and  C_10 
REMARK    3  A    between atoms: C_20  and  N_21 
ROOT
HETATM    1  C   UNL     1       6.665  32.147  60.895  1.00  0.00     0.043 A 
HETATM    2  N   UNL     1       6.928  31.407  62.029  1.00  0.00    -0.279 N 
HETATM    3  H   UNL     1       7.759  30.863  62.240  1.00  0.00     0.189 HD
HETATM    4  N   UNL     1       5.944  31.446  62.947  1.00  0.00    -0.148 NA
HETATM    5  C   UNL     1       5.046  32.234  62.372  1.00  0.00     0.199 A 
HETATM    6  C   UNL     1       5.404  32.679  61.096  1.00  0.00     0.035 A 
HETATM    7  C   UNL     1       4.493  33.567  60.320  1.00  0.00     0.107 A 
HETATM    8  C   UNL     1       3.261  33.936  61.143  1.00  0.00     0.081 A 
HETATM    9  C   UNL     1       2.358  34.870  60.555  1.00  0.00     0.100 C 
HETATM   10  N   UNL     1       1.612  35.616  60.072  1.00  0.00    -0.191 NA
HETATM   11  C   UNL     1       3.028  33.442  62.389  1.00  0.00     0.140 A 
HETATM   12  O   UNL     1       3.907  32.545  63.013  1.00  0.00    -0.277 OA
ENDROOT
BRANCH   7  13
HETATM   13  C   UNL     1       4.143  32.803  59.044  1.00  0.00    -0.022 A 
HETATM   14  C   UNL     1       4.190  33.408  57.774  1.00  0.00     0.041 A 
HETATM   15 CL   UNL     1       4.670  35.054  57.548  1.00  0.00    -0.084 Cl
HETATM   16  C   UNL     1       3.840  32.691  56.623  1.00  0.00     0.024 A 
HETATM   17  C   UNL     1       3.429  31.364  56.716  1.00  0.00     0.002 A 
HETATM   18  C   UNL     1       3.363  30.748  57.960  1.00  0.00     0.001 A 
HETATM   19  C   UNL     1       3.711  31.457  59.111  1.00  0.00     0.010 A 
ENDBRANCH   7  13
BRANCH  11  20
HETATM   20  N   UNL     1       1.936  33.746  63.172  1.00  0.00    -0.282 NA
HETATM   21  H   UNL     1       2.133  34.001  64.136  1.00  0.00     0.126 HD
HETATM   22  H   UNL     1       1.298  34.387  62.706  1.00  0.00     0.126 HD
ENDBRANCH  11  20
BRANCH   1  23
HETATM   23  C   UNL     1       7.634  32.259  59.756  1.00  0.00     0.029 C 
HETATM   24  C   UNL     1       7.411  31.151  58.728  1.00  0.00     0.016 C 
HETATM   25  C   UNL     1       9.080  32.264  60.253  1.00  0.00     0.016 C 
ENDBRANCH   1  23
TORSDOF 3
ENDMDL
MODEL 9
REMARK VINA RESULT:      -6.4      9.079     10.775
REMARK  3 active torsions:
REMARK  status: ('A' for Active; 'I' for Inactive)
REMARK    1  A    between atoms: C_2  and  C_3 
REMARK    2  A    between atoms: C_9  and  C_10 
REMARK    3  A    between atoms: C_20  and  N_21 
ROOT
HETATM    1  C   UNL     1       6.851  32.223  61.296  1.00  0.00     0.043 A 
HETATM    2  N   UNL     1       7.567  31.915  60.159  1.00  0.00    -0.279 N 
HETATM    3  H   UNL     1       8.482  31.477  60.098  1.00  0.00     0.189 HD
HETATM    4  N   UNL     1       6.940  32.239  59.012  1.00  0.00    -0.148 NA
HETATM    5  C   UNL     1       5.800  32.759  59.447  1.00  0.00     0.199 A 
HETATM    6  C   UNL     1       5.685  32.812  60.838  1.00  0.00     0.035 A 
HETATM    7  C   UNL     1       4.463  33.379  61.477  1.00  0.00     0.107 A 
HETATM    8  C   UNL     1       3.426  33.762  60.423  1.00  0.00     0.081 A 
HETATM    9  C   UNL     1       2.165  34.218  60.907  1.00  0.00     0.100 C 
HETATM   10  N   UNL     1       1.144  34.607  61.297  1.00  0.00    -0.191 NA
HETATM   11  C   UNL     1       3.654  33.652  59.087  1.00  0.00     0.140 A 
HETATM   12  O   UNL     1       4.870  33.180  58.573  1.00  0.00    -0.277 OA
ENDROOT
BRANCH   7  13
HETATM   13  C   UNL     1       4.933  34.574  62.305  1.00  0.00    -0.022 A 
HETATM   14  C   UNL     1       4.943  34.550  63.713  1.00  0.00     0.041 A 
HETATM   15 CL   UNL     1       4.450  33.164  64.620  1.00  0.00    -0.084 Cl
HETATM   16  C   UNL     1       5.355  35.669  64.446  1.00  0.00     0.024 A 
HETATM   17  C   UNL     1       5.755  36.833  63.795  1.00  0.00     0.002 A 
HETATM   18  C   UNL     1       5.743  36.884  62.406  1.00  0.00     0.001 A 
HETATM   19  C   UNL     1       5.333  35.772  61.669  1.00  0.00     0.010 A 
ENDBRANCH   7  13
BRANCH  11  20
HETATM   20  N   UNL     1       2.753  33.981  58.099  1.00  0.00    -0.282 NA
HETATM   21  H   UNL     1       2.482  34.960  58.047  1.00  0.00     0.126 HD
HETATM   22  H   UNL     1       3.011  33.585  57.197  1.00  0.00     0.126 HD
ENDBRANCH  11  20
BRANCH   1  23
HETATM   23  C   UNL     1       7.353  31.929  62.677  1.00  0.00     0.029 C 
HETATM   24  C   UNL     1       7.988  33.166  63.312  1.00  0.00     0.016 C 
HETATM   25  C   UNL     1       8.328  30.752  62.677  1.00  0.00     0.016 C 
ENDBRANCH   1  23
TORSDOF 3
ENDMDL
MODEL 10
REMARK VINA RESULT:      -6.4     14.667     16.878
REMARK  3 active torsions:
REMARK  status: ('A' for Active; 'I' for Inactive)
REMARK    1  A    between atoms: C_2  and  C_3 
REMARK    2  A    between atoms: C_9  and  C_10 
REMARK    3  A    between atoms: C_20  and  N_21 
ROOT
HETATM    1  C   UNL     1      13.694  10.963  50.952  1.00  0.00     0.043 A 
HETATM    2  N   UNL     1      13.386  12.030  50.134  1.00  0.00    -0.279 N 
HETATM    3  H   UNL     1      13.746  12.229  49.206  1.00  0.00     0.189 HD
HETATM    4  N   UNL     1      12.488  12.882  50.664  1.00  0.00    -0.148 NA
HETATM    5  C   UNL     1      12.226  12.329  51.840  1.00  0.00     0.199 A 
HETATM    6  C   UNL     1      12.952  11.164  52.102  1.00  0.00     0.035 A 
HETATM    7  C   UNL     1      12.772  10.432  53.388  1.00  0.00     0.107 A 
HETATM    8  C   UNL     1      11.681  11.082  54.236  1.00  0.00     0.081 A 
HETATM    9  C   UNL     1      11.334  10.415  55.447  1.00  0.00     0.100 C 
HETATM   10  N   UNL     1      11.062   9.885  56.443  1.00  0.00    -0.191 NA
HETATM   11  C   UNL     1      11.034  12.219  53.864  1.00  0.00     0.140 A 
HETATM   12  O   UNL     1      11.326  12.887  52.667  1.00  0.00    -0.277 OA
ENDROOT
BRANCH   7  13
HETATM   13  C   UNL     1      14.137  10.439  54.074  1.00  0.00    -0.022 A 
HETATM   14  C   UNL     1      14.929   9.279  54.174  1.00  0.00     0.041 A 
HETATM   15 CL   UNL     1      14.437   7.760  53.511  1.00  0.00    -0.084 Cl
HETATM   16  C   UNL     1      16.165   9.309  54.831  1.00  0.00     0.024 A 
HETATM   17  C   UNL     1      16.631  10.488  55.406  1.00  0.00     0.002 A 
HETATM   18  C   UNL     1      15.862  11.644  55.330  1.00  0.00     0.001 A 
HETATM   19  C   UNL     1      14.628  11.620  54.677  1.00  0.00     0.010 A 
ENDBRANCH   7  13
BRANCH  11  20
HETATM   20  N   UNL     1      10.043  12.842  54.591  1.00  0.00    -0.282 NA
HETATM   21  H   UNL     1       9.765  12.382  55.454  1.00  0.00     0.126 HD
HETATM   22  H   UNL     1      10.219  13.838  54.702  1.00  0.00     0.126 HD
ENDBRANCH  11  20
BRANCH   1  23
HETATM   23  C   UNL     1      14.654   9.884  50.551  1.00  0.00     0.029 C 
HETATM   24  C   UNL     1      15.874  10.464  49.836  1.00  0.00     0.016 C 
HETATM   25  C   UNL     1      13.970   8.820  49.693  1.00  0.00     0.016 C 
ENDBRANCH   1  23
TORSDOF 3
ENDMDL
