MODEL 1
REMARK VINA RESULT:      -8.6      0.000      0.000
REMARK  8 active torsions:
REMARK  status: ('A' for Active; 'I' for Inactive)
REMARK    1  A    between atoms: C_6  and  C_7 
REMARK    2  A    between atoms: C_12  and  C_13 
REMARK    3  A    between atoms: C_13  and  N_14 
REMARK    4  A    between atoms: N_14  and  C_16 
REMARK    5  A    between atoms: N_14  and  C_23 
REMARK    6  A    between atoms: C_16  and  C_17 
REMARK    7  A    between atoms: C_23  and  C_24 
REMARK    8  A    between atoms: C_24  and  O_25 
ROOT
HETATM    1  C   UNL     1       6.580  28.010  54.552  1.00  0.00     0.069 A 
HETATM    2  N   UNL     1       6.681  28.534  53.285  1.00  0.00    -0.277 N 
HETATM    3  H   UNL     1       7.177  29.371  52.992  1.00  0.00     0.189 HD
HETATM    4  N   UNL     1       6.046  27.807  52.354  1.00  0.00    -0.186 NA
HETATM    5  C   UNL     1       5.568  26.765  53.028  1.00  0.00     0.149 A 
HETATM    6  C   UNL     1       5.831  26.848  54.415  1.00  0.00     0.016 A 
ENDROOT
BRANCH   6   7
HETATM    7  C   UNL     1       5.403  25.879  55.453  1.00  0.00     0.277 C 
BRANCH   7   8
HETATM    8  N   UNL     1       6.526  25.061  56.031  1.00  0.00    -0.061 N 
HETATM    9  H   UNL     1       6.112  24.135  56.258  1.00  0.00     0.280 HD
BRANCH   8  10
HETATM   10  C   UNL     1       7.648  24.742  55.076  1.00  0.00     0.273 C 
BRANCH  10  11
HETATM   11  C   UNL     1       7.756  23.302  54.645  1.00  0.00    -0.033 A 
HETATM   12  C   UNL     1       7.909  22.947  53.296  1.00  0.00     0.009 A 
HETATM   13  C   UNL     1       7.984  21.605  52.917  1.00  0.00     0.001 A 
HETATM   14  C   UNL     1       7.919  20.602  53.880  1.00  0.00     0.000 A 
HETATM   15  C   UNL     1       7.788  20.938  55.224  1.00  0.00     0.001 A 
HETATM   16  C   UNL     1       7.713  22.279  55.606  1.00  0.00     0.009 A 
ENDBRANCH  10  11
ENDBRANCH   8  10
BRANCH   8  17
HETATM   17  C   UNL     1       6.978  25.546  57.396  1.00  0.00     0.261 C 
BRANCH  17  18
HETATM   18  C   UNL     1       8.507  25.435  57.455  1.00  0.00     0.192 C 
BRANCH  18  19
HETATM   19  O   UNL     1       8.810  24.515  58.508  1.00  0.00    -0.399 OA
HETATM   20  H   UNL     1       8.115  23.825  58.509  1.00  0.00     0.209 HD
ENDBRANCH  18  19
ENDBRANCH  17  18
ENDBRANCH   8  17
ENDBRANCH   7   8
ENDBRANCH   6   7
BRANCH   1  21
HETATM   21  C   UNL     1       7.222  28.632  55.700  1.00  0.00    -0.007 A 
HETATM   22  C   UNL     1       8.612  28.792  55.735  1.00  0.00     0.021 A 
HETATM   23  C   UNL     1       9.247  29.382  56.841  1.00  0.00    -0.055 A 
HETATM   24  C   UNL     1       8.471  29.806  57.938  1.00  0.00    -0.056 A 
HETATM   25  C   UNL     1      10.748  29.505  56.847  1.00  0.00     0.049 C 
HETATM   26  C   UNL     1       9.099  30.446  59.149  1.00  0.00     0.049 C 
HETATM   27  C   UNL     1       7.079  29.648  57.895  1.00  0.00     0.008 A 
HETATM   28  C   UNL     1       6.460  29.061  56.789  1.00  0.00     0.014 A 
ENDBRANCH   1  21
TORSDOF 8
ENDMDL
MODEL 2
REMARK VINA RESULT:      -8.6      1.846      6.691
REMARK  8 active torsions:
REMARK  status: ('A' for Active; 'I' for Inactive)
REMARK    1  A    between atoms: C_6  and  C_7 
REMARK    2  A    between atoms: C_12  and  C_13 
REMARK    3  A    between atoms: C_13  and  N_14 
REMARK    4  A    between atoms: N_14  and  C_16 
REMARK    5  A    between atoms: N_14  and  C_23 
REMARK    6  A    between atoms: C_16  and  C_17 
REMARK    7  A    between atoms: C_23  and  C_24 
REMARK    8  A    between atoms: C_24  and  O_25 
ROOT
HETATM    1  C   UNL     1       6.457  25.297  53.234  1.00  0.00     0.069 A 
HETATM    2  N   UNL     1       5.523  25.237  52.227  1.00  0.00    -0.277 N 
HETATM    3  H   UNL     1       5.092  24.411  51.821  1.00  0.00     0.189 HD
HETATM    4  N   UNL     1       5.154  26.442  51.769  1.00  0.00    -0.186 NA
HETATM    5  C   UNL     1       5.826  27.298  52.532  1.00  0.00     0.149 A 
HETATM    6  C   UNL     1       6.691  26.651  53.444  1.00  0.00     0.016 A 
ENDROOT
BRANCH   6   7
HETATM    7  C   UNL     1       7.610  27.306  54.405  1.00  0.00     0.277 C 
BRANCH   7   8
HETATM    8  N   UNL     1       7.002  27.571  55.756  1.00  0.00    -0.061 N 
HETATM    9  H   UNL     1       6.285  26.832  55.891  1.00  0.00     0.280 HD
BRANCH   8  10
HETATM   10  C   UNL     1       7.937  27.400  56.927  1.00  0.00     0.273 C 
BRANCH  10  11
HETATM   11  C   UNL     1       8.679  28.637  57.362  1.00  0.00    -0.033 A 
HETATM   12  C   UNL     1       8.247  29.411  58.450  1.00  0.00     0.009 A 
HETATM   13  C   UNL     1       8.938  30.566  58.821  1.00  0.00     0.001 A 
HETATM   14  C   UNL     1      10.075  30.957  58.119  1.00  0.00     0.000 A 
HETATM   15  C   UNL     1      10.529  30.189  57.051  1.00  0.00     0.001 A 
HETATM   16  C   UNL     1       9.840  29.033  56.677  1.00  0.00     0.009 A 
ENDBRANCH  10  11
ENDBRANCH   8  10
BRANCH   8  17
HETATM   17  C   UNL     1       6.164  28.836  55.797  1.00  0.00     0.261 C 
BRANCH  17  18
HETATM   18  C   UNL     1       4.794  28.476  56.383  1.00  0.00     0.192 C 
BRANCH  18  19
HETATM   19  O   UNL     1       4.818  28.878  57.756  1.00  0.00    -0.399 OA
HETATM   20  H   UNL     1       5.739  28.790  58.076  1.00  0.00     0.209 HD
ENDBRANCH  18  19
ENDBRANCH  17  18
ENDBRANCH   8  17
ENDBRANCH   7   8
ENDBRANCH   6   7
BRANCH   1  21
HETATM   21  C   UNL     1       6.969  24.102  53.887  1.00  0.00    -0.007 A 
HETATM   22  C   UNL     1       7.376  22.997  53.129  1.00  0.00     0.021 A 
HETATM   23  C   UNL     1       7.863  21.833  53.747  1.00  0.00    -0.055 A 
HETATM   24  C   UNL     1       7.931  21.773  55.153  1.00  0.00    -0.056 A 
HETATM   25  C   UNL     1       8.259  20.659  52.890  1.00  0.00     0.049 C 
HETATM   26  C   UNL     1       8.447  20.551  55.867  1.00  0.00     0.049 C 
HETATM   27  C   UNL     1       7.528  22.885  55.906  1.00  0.00     0.008 A 
HETATM   28  C   UNL     1       7.046  24.036  55.280  1.00  0.00     0.014 A 
ENDBRANCH   1  21
TORSDOF 8
ENDMDL
MODEL 3
REMARK VINA RESULT:      -8.4      2.500      6.596
REMARK  8 active torsions:
REMARK  status: ('A' for Active; 'I' for Inactive)
REMARK    1  A    between atoms: C_6  and  C_7 
REMARK    2  A    between atoms: C_12  and  C_13 
REMARK    3  A    between atoms: C_13  and  N_14 
REMARK    4  A    between atoms: N_14  and  C_16 
REMARK    5  A    between atoms: N_14  and  C_23 
REMARK    6  A    between atoms: C_16  and  C_17 
REMARK    7  A    between atoms: C_23  and  C_24 
REMARK    8  A    between atoms: C_24  and  O_25 
ROOT
HETATM    1  C   UNL     1       7.561  25.243  56.193  1.00  0.00     0.069 A 
HETATM    2  N   UNL     1       8.408  25.510  57.242  1.00  0.00    -0.277 N 
HETATM    3  H   UNL     1       9.198  24.957  57.565  1.00  0.00     0.189 HD
HETATM    4  N   UNL     1       8.129  26.658  57.876  1.00  0.00    -0.186 NA
HETATM    5  C   UNL     1       7.113  27.169  57.187  1.00  0.00     0.149 A 
HETATM    6  C   UNL     1       6.680  26.316  56.145  1.00  0.00     0.016 A 
ENDROOT
BRANCH   6   7
HETATM    7  C   UNL     1       5.548  26.560  55.219  1.00  0.00     0.277 C 
BRANCH   7   8
HETATM    8  N   UNL     1       5.545  27.932  54.599  1.00  0.00    -0.061 N 
HETATM    9  H   UNL     1       5.971  28.562  55.307  1.00  0.00     0.280 HD
BRANCH   8  10
HETATM   10  C   UNL     1       6.423  28.091  53.383  1.00  0.00     0.273 C 
BRANCH  10  11
HETATM   11  C   UNL     1       5.814  27.667  52.072  1.00  0.00    -0.033 A 
HETATM   12  C   UNL     1       5.583  26.316  51.770  1.00  0.00     0.009 A 
HETATM   13  C   UNL     1       5.038  25.944  50.540  1.00  0.00     0.001 A 
HETATM   14  C   UNL     1       4.706  26.917  49.600  1.00  0.00     0.000 A 
HETATM   15  C   UNL     1       4.908  28.262  49.892  1.00  0.00     0.001 A 
HETATM   16  C   UNL     1       5.453  28.636  51.122  1.00  0.00     0.009 A 
ENDBRANCH  10  11
ENDBRANCH   8  10
BRANCH   8  17
HETATM   17  C   UNL     1       4.152  28.519  54.452  1.00  0.00     0.261 C 
BRANCH  17  18
HETATM   18  C   UNL     1       4.000  29.640  55.487  1.00  0.00     0.192 C 
BRANCH  18  19
HETATM   19  O   UNL     1       3.606  29.015  56.712  1.00  0.00    -0.399 OA
HETATM   20  H   UNL     1       2.843  28.433  56.517  1.00  0.00     0.209 HD
ENDBRANCH  18  19
ENDBRANCH  17  18
ENDBRANCH   8  17
ENDBRANCH   7   8
ENDBRANCH   6   7
BRANCH   1  21
HETATM   21  C   UNL     1       7.710  24.061  55.358  1.00  0.00    -0.007 A 
HETATM   22  C   UNL     1       7.756  22.786  55.935  1.00  0.00     0.021 A 
HETATM   23  C   UNL     1       7.909  21.636  55.143  1.00  0.00    -0.055 A 
HETATM   24  C   UNL     1       8.033  21.770  53.746  1.00  0.00    -0.056 A 
HETATM   25  C   UNL     1       7.985  20.288  55.812  1.00  0.00     0.049 C 
HETATM   26  C   UNL     1       8.197  20.572  52.848  1.00  0.00     0.049 C 
HETATM   27  C   UNL     1       7.980  23.050  53.173  1.00  0.00     0.008 A 
HETATM   28  C   UNL     1       7.826  24.184  53.972  1.00  0.00     0.014 A 
ENDBRANCH   1  21
TORSDOF 8
ENDMDL
MODEL 4
REMARK VINA RESULT:      -8.4      2.063      7.255
REMARK  8 active torsions:
REMARK  status: ('A' for Active; 'I' for Inactive)
REMARK    1  A    between atoms: C_6  and  C_7 
REMARK    2  A    between atoms: C_12  and  C_13 
REMARK    3  A    between atoms: C_13  and  N_14 
REMARK    4  A    between atoms: N_14  and  C_16 
REMARK    5  A    between atoms: N_14  and  C_23 
REMARK    6  A    between atoms: C_16  and  C_17 
REMARK    7  A    between atoms: C_23  and  C_24 
REMARK    8  A    between atoms: C_24  and  O_25 
ROOT
HETATM    1  C   UNL     1       7.649  24.621  56.500  1.00  0.00     0.069 A 
HETATM    2  N   UNL     1       8.216  24.571  57.751  1.00  0.00    -0.277 N 
HETATM    3  H   UNL     1       8.784  23.828  58.152  1.00  0.00     0.189 HD
HETATM    4  N   UNL     1       7.979  25.664  58.490  1.00  0.00    -0.186 NA
HETATM    5  C   UNL     1       7.287  26.459  57.679  1.00  0.00     0.149 A 
HETATM    6  C   UNL     1       7.010  25.854  56.432  1.00  0.00     0.016 A 
ENDROOT
BRANCH   6   7
HETATM    7  C   UNL     1       6.227  26.444  55.320  1.00  0.00     0.277 C 
BRANCH   7   8
HETATM    8  N   UNL     1       6.193  27.949  55.322  1.00  0.00    -0.061 N 
HETATM    9  H   UNL     1       6.157  28.228  56.322  1.00  0.00     0.280 HD
BRANCH   8  10
HETATM   10  C   UNL     1       7.434  28.622  54.793  1.00  0.00     0.273 C 
BRANCH  10  11
HETATM   11  C   UNL     1       8.348  29.224  55.829  1.00  0.00    -0.033 A 
HETATM   12  C   UNL     1       7.859  29.699  57.056  1.00  0.00     0.009 A 
HETATM   13  C   UNL     1       8.721  30.273  57.992  1.00  0.00     0.001 A 
HETATM   14  C   UNL     1      10.083  30.370  57.720  1.00  0.00     0.000 A 
HETATM   15  C   UNL     1      10.587  29.885  56.518  1.00  0.00     0.001 A 
HETATM   16  C   UNL     1       9.728  29.310  55.580  1.00  0.00     0.009 A 
ENDBRANCH  10  11
ENDBRANCH   8  10
BRANCH   8  17
HETATM   17  C   UNL     1       4.891  28.518  54.789  1.00  0.00     0.261 C 
BRANCH  17  18
HETATM   18  C   UNL     1       4.694  27.993  53.362  1.00  0.00     0.192 C 
BRANCH  18  19
HETATM   19  O   UNL     1       3.406  27.372  53.329  1.00  0.00    -0.399 OA
HETATM   20  H   UNL     1       3.401  26.734  52.586  1.00  0.00     0.209 HD
ENDBRANCH  18  19
ENDBRANCH  17  18
ENDBRANCH   8  17
ENDBRANCH   7   8
ENDBRANCH   6   7
BRANCH   1  21
HETATM   21  C   UNL     1       7.811  23.547  55.533  1.00  0.00    -0.007 A 
HETATM   22  C   UNL     1       7.986  22.226  55.961  1.00  0.00     0.021 A 
HETATM   23  C   UNL     1       8.153  21.179  55.039  1.00  0.00    -0.055 A 
HETATM   24  C   UNL     1       8.158  21.468  53.660  1.00  0.00    -0.056 A 
HETATM   25  C   UNL     1       8.369  19.779  55.548  1.00  0.00     0.049 C 
HETATM   26  C   UNL     1       8.332  20.386  52.626  1.00  0.00     0.049 C 
HETATM   27  C   UNL     1       7.977  22.793  53.236  1.00  0.00     0.008 A 
HETATM   28  C   UNL     1       7.811  23.824  54.164  1.00  0.00     0.014 A 
ENDBRANCH   1  21
TORSDOF 8
ENDMDL
MODEL 5
REMARK VINA RESULT:      -7.8      3.439      7.199
REMARK  8 active torsions:
REMARK  status: ('A' for Active; 'I' for Inactive)
REMARK    1  A    between atoms: C_6  and  C_7 
REMARK    2  A    between atoms: C_12  and  C_13 
REMARK    3  A    between atoms: C_13  and  N_14 
REMARK    4  A    between atoms: N_14  and  C_16 
REMARK    5  A    between atoms: N_14  and  C_23 
REMARK    6  A    between atoms: C_16  and  C_17 
REMARK    7  A    between atoms: C_23  and  C_24 
REMARK    8  A    between atoms: C_24  and  O_25 
ROOT
HETATM    1  C   UNL     1       6.984  25.866  54.780  1.00  0.00     0.069 A 
HETATM    2  N   UNL     1       7.601  26.449  55.861  1.00  0.00    -0.277 N 
HETATM    3  H   UNL     1       8.313  26.049  56.466  1.00  0.00     0.189 HD
HETATM    4  N   UNL     1       7.195  27.705  56.095  1.00  0.00    -0.186 NA
HETATM    5  C   UNL     1       6.334  27.955  55.112  1.00  0.00     0.149 A 
HETATM    6  C   UNL     1       6.124  26.835  54.276  1.00  0.00     0.016 A 
ENDROOT
BRANCH   6   7
HETATM    7  C   UNL     1       5.200  26.758  53.119  1.00  0.00     0.277 C 
BRANCH   7   8
HETATM    8  N   UNL     1       4.855  28.094  52.518  1.00  0.00    -0.061 N 
HETATM    9  H   UNL     1       5.425  28.792  53.036  1.00  0.00     0.280 HD
BRANCH   8  10
HETATM   10  C   UNL     1       5.264  28.277  51.078  1.00  0.00     0.273 C 
BRANCH  10  11
HETATM   11  C   UNL     1       4.329  27.693  50.050  1.00  0.00    -0.033 A 
HETATM   12  C   UNL     1       3.219  28.408  49.574  1.00  0.00     0.009 A 
HETATM   13  C   UNL     1       2.353  27.838  48.638  1.00  0.00     0.001 A 
HETATM   14  C   UNL     1       2.591  26.553  48.157  1.00  0.00     0.000 A 
HETATM   15  C   UNL     1       3.699  25.839  48.603  1.00  0.00     0.001 A 
HETATM   16  C   UNL     1       4.566  26.406  49.539  1.00  0.00     0.009 A 
ENDBRANCH  10  11
ENDBRANCH   8  10
BRANCH   8  17
HETATM   17  C   UNL     1       3.441  28.546  52.834  1.00  0.00     0.261 C 
BRANCH  17  18
HETATM   18  C   UNL     1       3.499  30.016  53.266  1.00  0.00     0.192 C 
BRANCH  18  19
HETATM   19  O   UNL     1       2.512  30.708  52.496  1.00  0.00    -0.399 OA
HETATM   20  H   UNL     1       2.904  30.912  51.623  1.00  0.00     0.209 HD
ENDBRANCH  18  19
ENDBRANCH  17  18
ENDBRANCH   8  17
ENDBRANCH   7   8
ENDBRANCH   6   7
BRANCH   1  21
HETATM   21  C   UNL     1       7.304  24.517  54.341  1.00  0.00    -0.007 A 
HETATM   22  C   UNL     1       7.343  23.461  55.260  1.00  0.00     0.021 A 
HETATM   23  C   UNL     1       7.659  22.154  54.853  1.00  0.00    -0.055 A 
HETATM   24  C   UNL     1       7.956  21.906  53.498  1.00  0.00    -0.056 A 
HETATM   25  C   UNL     1       7.719  21.058  55.883  1.00  0.00     0.049 C 
HETATM   26  C   UNL     1       8.300  20.525  53.004  1.00  0.00     0.049 C 
HETATM   27  C   UNL     1       7.909  22.966  52.581  1.00  0.00     0.008 A 
HETATM   28  C   UNL     1       7.592  24.260  52.999  1.00  0.00     0.014 A 
ENDBRANCH   1  21
TORSDOF 8
ENDMDL
MODEL 6
REMARK VINA RESULT:      -7.8      2.241      6.749
REMARK  8 active torsions:
REMARK  status: ('A' for Active; 'I' for Inactive)
REMARK    1  A    between atoms: C_6  and  C_7 
REMARK    2  A    between atoms: C_12  and  C_13 
REMARK    3  A    between atoms: C_13  and  N_14 
REMARK    4  A    between atoms: N_14  and  C_16 
REMARK    5  A    between atoms: N_14  and  C_23 
REMARK    6  A    between atoms: C_16  and  C_17 
REMARK    7  A    between atoms: C_23  and  C_24 
REMARK    8  A    between atoms: C_24  and  O_25 
ROOT
HETATM    1  C   UNL     1       6.382  25.326  52.816  1.00  0.00     0.069 A 
HETATM    2  N   UNL     1       5.439  25.182  51.825  1.00  0.00    -0.277 N 
HETATM    3  H   UNL     1       4.985  24.328  51.513  1.00  0.00     0.189 HD
HETATM    4  N   UNL     1       5.097  26.340  51.241  1.00  0.00    -0.186 NA
HETATM    5  C   UNL     1       5.795  27.256  51.905  1.00  0.00     0.149 A 
HETATM    6  C   UNL     1       6.651  26.688  52.877  1.00  0.00     0.016 A 
ENDROOT
BRANCH   6   7
HETATM    7  C   UNL     1       7.593  27.419  53.758  1.00  0.00     0.277 C 
BRANCH   7   8
HETATM    8  N   UNL     1       6.932  28.410  54.679  1.00  0.00    -0.061 N 
HETATM    9  H   UNL     1       6.797  29.272  54.115  1.00  0.00     0.280 HD
BRANCH   8  10
HETATM   10  C   UNL     1       5.542  28.040  55.131  1.00  0.00     0.273 C 
BRANCH  10  11
HETATM   11  C   UNL     1       4.564  29.180  55.252  1.00  0.00    -0.033 A 
HETATM   12  C   UNL     1       4.125  29.895  54.127  1.00  0.00     0.009 A 
HETATM   13  C   UNL     1       3.235  30.962  54.264  1.00  0.00     0.001 A 
HETATM   14  C   UNL     1       2.764  31.322  55.524  1.00  0.00     0.000 A 
HETATM   15  C   UNL     1       3.174  30.610  56.647  1.00  0.00     0.001 A 
HETATM   16  C   UNL     1       4.063  29.542  56.513  1.00  0.00     0.009 A 
ENDBRANCH  10  11
ENDBRANCH   8  10
BRANCH   8  17
HETATM   17  C   UNL     1       7.846  28.899  55.787  1.00  0.00     0.261 C 
BRANCH  17  18
HETATM   18  C   UNL     1       7.600  28.026  57.024  1.00  0.00     0.192 C 
BRANCH  18  19
HETATM   19  O   UNL     1       8.378  28.589  58.084  1.00  0.00    -0.399 OA
HETATM   20  H   UNL     1       9.296  28.265  57.984  1.00  0.00     0.209 HD
ENDBRANCH  18  19
ENDBRANCH  17  18
ENDBRANCH   8  17
ENDBRANCH   7   8
ENDBRANCH   6   7
BRANCH   1  21
HETATM   21  C   UNL     1       6.868  24.196  53.592  1.00  0.00    -0.007 A 
HETATM   22  C   UNL     1       7.357  23.052  52.950  1.00  0.00     0.021 A 
HETATM   23  C   UNL     1       7.822  21.949  53.686  1.00  0.00    -0.055 A 
HETATM   24  C   UNL     1       7.781  21.991  55.093  1.00  0.00    -0.056 A 
HETATM   25  C   UNL     1       8.309  20.728  52.950  1.00  0.00     0.049 C 
HETATM   26  C   UNL     1       8.267  20.838  55.933  1.00  0.00     0.049 C 
HETATM   27  C   UNL     1       7.295  23.142  55.731  1.00  0.00     0.008 A 
HETATM   28  C   UNL     1       6.838  24.232  54.987  1.00  0.00     0.014 A 
ENDBRANCH   1  21
TORSDOF 8
ENDMDL
MODEL 7
REMARK VINA RESULT:      -7.4      2.896      4.114
REMARK  8 active torsions:
REMARK  status: ('A' for Active; 'I' for Inactive)
REMARK    1  A    between atoms: C_6  and  C_7 
REMARK    2  A    between atoms: C_12  and  C_13 
REMARK    3  A    between atoms: C_13  and  N_14 
REMARK    4  A    between atoms: N_14  and  C_16 
REMARK    5  A    between atoms: N_14  and  C_23 
REMARK    6  A    between atoms: C_16  and  C_17 
REMARK    7  A    between atoms: C_23  and  C_24 
REMARK    8  A    between atoms: C_24  and  O_25 
ROOT
HETATM    1  C   UNL     1       4.769  27.576  52.315  1.00  0.00     0.069 A 
HETATM    2  N   UNL     1       4.409  27.114  51.072  1.00  0.00    -0.277 N 
HETATM    3  H   UNL     1       3.773  27.542  50.404  1.00  0.00     0.189 HD
HETATM    4  N   UNL     1       5.010  25.963  50.736  1.00  0.00    -0.186 NA
HETATM    5  C   UNL     1       5.814  25.706  51.763  1.00  0.00     0.149 A 
HETATM    6  C   UNL     1       5.684  26.652  52.805  1.00  0.00     0.016 A 
ENDROOT
BRANCH   6   7
HETATM    7  C   UNL     1       6.398  26.637  54.104  1.00  0.00     0.277 C 
BRANCH   7   8
HETATM    8  N   UNL     1       6.448  25.285  54.763  1.00  0.00    -0.061 N 
HETATM    9  H   UNL     1       5.886  24.656  54.158  1.00  0.00     0.280 HD
BRANCH   8  10
HETATM   10  C   UNL     1       7.811  24.640  54.805  1.00  0.00     0.273 C 
BRANCH  10  11
HETATM   11  C   UNL     1       7.846  23.159  54.526  1.00  0.00    -0.033 A 
HETATM   12  C   UNL     1       7.770  22.213  55.559  1.00  0.00     0.009 A 
HETATM   13  C   UNL     1       7.827  20.846  55.278  1.00  0.00     0.001 A 
HETATM   14  C   UNL     1       7.950  20.407  53.962  1.00  0.00     0.000 A 
HETATM   15  C   UNL     1       8.005  21.333  52.925  1.00  0.00     0.001 A 
HETATM   16  C   UNL     1       7.948  22.700  53.202  1.00  0.00     0.009 A 
ENDBRANCH  10  11
ENDBRANCH   8  10
BRANCH   8  17
HETATM   17  C   UNL     1       5.683  25.229  56.073  1.00  0.00     0.261 C 
BRANCH  17  18
HETATM   18  C   UNL     1       5.606  26.652  56.637  1.00  0.00     0.192 C 
BRANCH  18  19
HETATM   19  O   UNL     1       4.241  26.873  57.004  1.00  0.00    -0.399 OA
HETATM   20  H   UNL     1       3.917  27.645  56.497  1.00  0.00     0.209 HD
ENDBRANCH  18  19
ENDBRANCH  17  18
ENDBRANCH   8  17
ENDBRANCH   7   8
ENDBRANCH   6   7
BRANCH   1  21
HETATM   21  C   UNL     1       4.250  28.823  52.857  1.00  0.00    -0.007 A 
HETATM   22  C   UNL     1       4.131  29.001  54.241  1.00  0.00     0.021 A 
HETATM   23  C   UNL     1       3.624  30.196  54.778  1.00  0.00    -0.055 A 
HETATM   24  C   UNL     1       3.216  31.226  53.908  1.00  0.00    -0.056 A 
HETATM   25  C   UNL     1       3.485  30.328  56.272  1.00  0.00     0.049 C 
HETATM   26  C   UNL     1       2.666  32.529  54.429  1.00  0.00     0.049 C 
HETATM   27  C   UNL     1       3.343  31.044  52.523  1.00  0.00     0.008 A 
HETATM   28  C   UNL     1       3.850  29.852  52.002  1.00  0.00     0.014 A 
ENDBRANCH   1  21
TORSDOF 8
ENDMDL
MODEL 8
REMARK VINA RESULT:      -7.2      2.660      6.518
REMARK  8 active torsions:
REMARK  status: ('A' for Active; 'I' for Inactive)
REMARK    1  A    between atoms: C_6  and  C_7 
REMARK    2  A    between atoms: C_12  and  C_13 
REMARK    3  A    between atoms: C_13  and  N_14 
REMARK    4  A    between atoms: N_14  and  C_16 
REMARK    5  A    between atoms: N_14  and  C_23 
REMARK    6  A    between atoms: C_16  and  C_17 
REMARK    7  A    between atoms: C_23  and  C_24 
REMARK    8  A    between atoms: C_24  and  O_25 
ROOT
HETATM    1  C   UNL     1       6.104  26.061  52.192  1.00  0.00     0.069 A 
HETATM    2  N   UNL     1       5.793  25.767  50.885  1.00  0.00    -0.277 N 
HETATM    3  H   UNL     1       5.824  24.863  50.423  1.00  0.00     0.189 HD
HETATM    4  N   UNL     1       5.387  26.833  50.180  1.00  0.00    -0.186 NA
HETATM    5  C   UNL     1       5.387  27.826  51.065  1.00  0.00     0.149 A 
HETATM    6  C   UNL     1       5.864  27.423  52.333  1.00  0.00     0.016 A 
ENDROOT
BRANCH   6   7
HETATM    7  C   UNL     1       6.033  28.286  53.527  1.00  0.00     0.277 C 
BRANCH   7   8
HETATM    8  N   UNL     1       4.741  28.677  54.192  1.00  0.00    -0.061 N 
HETATM    9  H   UNL     1       3.994  28.177  53.672  1.00  0.00     0.280 HD
BRANCH   8  10
HETATM   10  C   UNL     1       4.582  28.207  55.616  1.00  0.00     0.273 C 
BRANCH  10  11
HETATM   11  C   UNL     1       5.690  28.592  56.563  1.00  0.00    -0.033 A 
HETATM   12  C   UNL     1       5.781  29.884  57.103  1.00  0.00     0.009 A 
HETATM   13  C   UNL     1       6.828  30.225  57.961  1.00  0.00     0.001 A 
HETATM   14  C   UNL     1       7.791  29.277  58.300  1.00  0.00     0.000 A 
HETATM   15  C   UNL     1       7.702  27.986  57.790  1.00  0.00     0.001 A 
HETATM   16  C   UNL     1       6.656  27.642  56.932  1.00  0.00     0.009 A 
ENDBRANCH  10  11
ENDBRANCH   8  10
BRANCH   8  17
HETATM   17  C   UNL     1       4.366  30.130  53.962  1.00  0.00     0.261 C 
BRANCH  17  18
HETATM   18  C   UNL     1       3.437  30.192  52.744  1.00  0.00     0.192 C 
BRANCH  18  19
HETATM   19  O   UNL     1       2.664  28.988  52.758  1.00  0.00    -0.399 OA
HETATM   20  H   UNL     1       3.281  28.236  52.643  1.00  0.00     0.209 HD
ENDBRANCH  18  19
ENDBRANCH  17  18
ENDBRANCH   8  17
ENDBRANCH   7   8
ENDBRANCH   6   7
BRANCH   1  21
HETATM   21  C   UNL     1       6.538  25.040  53.133  1.00  0.00    -0.007 A 
HETATM   22  C   UNL     1       7.328  23.968  52.702  1.00  0.00     0.021 A 
HETATM   23  C   UNL     1       7.747  22.969  53.598  1.00  0.00    -0.055 A 
HETATM   24  C   UNL     1       7.353  23.043  54.948  1.00  0.00    -0.056 A 
HETATM   25  C   UNL     1       8.569  21.818  53.081  1.00  0.00     0.049 C 
HETATM   26  C   UNL     1       7.775  22.002  55.952  1.00  0.00     0.049 C 
HETATM   27  C   UNL     1       6.567  24.123  55.375  1.00  0.00     0.008 A 
HETATM   28  C   UNL     1       6.159  25.109  54.475  1.00  0.00     0.014 A 
ENDBRANCH   1  21
TORSDOF 8
ENDMDL
MODEL 9
REMARK VINA RESULT:      -7.2      2.844      4.130
REMARK  8 active torsions:
REMARK  status: ('A' for Active; 'I' for Inactive)
REMARK    1  A    between atoms: C_6  and  C_7 
REMARK    2  A    between atoms: C_12  and  C_13 
REMARK    3  A    between atoms: C_13  and  N_14 
REMARK    4  A    between atoms: N_14  and  C_16 
REMARK    5  A    between atoms: N_14  and  C_23 
REMARK    6  A    between atoms: C_16  and  C_17 
REMARK    7  A    between atoms: C_23  and  C_24 
REMARK    8  A    between atoms: C_24  and  O_25 
ROOT
HETATM    1  C   UNL     1       4.939  26.641  52.505  1.00  0.00     0.069 A 
HETATM    2  N   UNL     1       4.436  25.815  51.528  1.00  0.00    -0.277 N 
HETATM    3  H   UNL     1       3.825  26.061  50.754  1.00  0.00     0.189 HD
HETATM    4  N   UNL     1       4.845  24.543  51.642  1.00  0.00    -0.186 NA
HETATM    5  C   UNL     1       5.670  24.560  52.685  1.00  0.00     0.149 A 
HETATM    6  C   UNL     1       5.744  25.832  53.298  1.00  0.00     0.016 A 
ENDROOT
BRANCH   6   7
HETATM    7  C   UNL     1       6.533  26.186  54.502  1.00  0.00     0.277 C 
BRANCH   7   8
HETATM    8  N   UNL     1       6.640  25.077  55.515  1.00  0.00    -0.061 N 
HETATM    9  H   UNL     1       6.004  24.328  55.180  1.00  0.00     0.280 HD
BRANCH   8  10
HETATM   10  C   UNL     1       7.990  24.410  55.599  1.00  0.00     0.273 C 
BRANCH  10  11
HETATM   11  C   UNL     1       8.064  23.007  55.054  1.00  0.00    -0.033 A 
HETATM   12  C   UNL     1       8.397  22.754  53.714  1.00  0.00     0.009 A 
HETATM   13  C   UNL     1       8.438  21.447  53.226  1.00  0.00     0.001 A 
HETATM   14  C   UNL     1       8.159  20.375  54.070  1.00  0.00     0.000 A 
HETATM   15  C   UNL     1       7.849  20.608  55.407  1.00  0.00     0.001 A 
HETATM   16  C   UNL     1       7.807  21.914  55.898  1.00  0.00     0.009 A 
ENDBRANCH  10  11
ENDBRANCH   8  10
BRANCH   8  17
HETATM   17  C   UNL     1       6.028  25.433  56.858  1.00  0.00     0.261 C 
BRANCH  17  18
HETATM   18  C   UNL     1       5.646  26.918  56.826  1.00  0.00     0.192 C 
BRANCH  18  19
HETATM   19  O   UNL     1       4.222  26.976  56.943  1.00  0.00    -0.399 OA
HETATM   20  H   UNL     1       3.876  27.435  56.150  1.00  0.00     0.209 HD
ENDBRANCH  18  19
ENDBRANCH  17  18
ENDBRANCH   8  17
ENDBRANCH   7   8
ENDBRANCH   6   7
BRANCH   1  21
HETATM   21  C   UNL     1       4.640  28.064  52.545  1.00  0.00    -0.007 A 
HETATM   22  C   UNL     1       5.101  28.915  51.534  1.00  0.00     0.021 A 
HETATM   23  C   UNL     1       4.828  30.293  51.563  1.00  0.00    -0.055 A 
HETATM   24  C   UNL     1       4.089  30.828  52.637  1.00  0.00    -0.056 A 
HETATM   25  C   UNL     1       5.374  31.173  50.469  1.00  0.00     0.049 C 
HETATM   26  C   UNL     1       3.765  32.297  52.719  1.00  0.00     0.049 C 
HETATM   27  C   UNL     1       3.624  29.970  53.644  1.00  0.00     0.008 A 
HETATM   28  C   UNL     1       3.902  28.602  53.601  1.00  0.00     0.014 A 
ENDBRANCH   1  21
TORSDOF 8
ENDMDL
MODEL 10
REMARK VINA RESULT:      -7.2     15.913     18.073
REMARK  8 active torsions:
REMARK  status: ('A' for Active; 'I' for Inactive)
REMARK    1  A    between atoms: C_6  and  C_7 
REMARK    2  A    between atoms: C_12  and  C_13 
REMARK    3  A    between atoms: C_13  and  N_14 
REMARK    4  A    between atoms: N_14  and  C_16 
REMARK    5  A    between atoms: N_14  and  C_23 
REMARK    6  A    between atoms: C_16  and  C_17 
REMARK    7  A    between atoms: C_23  and  C_24 
REMARK    8  A    between atoms: C_24  and  O_25 
ROOT
HETATM    1  C   UNL     1      12.912  11.631  52.155  1.00  0.00     0.069 A 
HETATM    2  N   UNL     1      12.591  12.932  51.848  1.00  0.00    -0.277 N 
HETATM    3  H   UNL     1      12.258  13.659  52.475  1.00  0.00     0.189 HD
HETATM    4  N   UNL     1      12.770  13.235  50.554  1.00  0.00    -0.186 NA
HETATM    5  C   UNL     1      13.268  12.120  50.027  1.00  0.00     0.149 A 
HETATM    6  C   UNL     1      13.345  11.064  50.963  1.00  0.00     0.016 A 
ENDROOT
BRANCH   6   7
HETATM    7  C   UNL     1      13.809   9.681  50.696  1.00  0.00     0.277 C 
BRANCH   7   8
HETATM    8  N   UNL     1      15.290   9.483  50.880  1.00  0.00    -0.061 N 
HETATM    9  H   UNL     1      15.671  10.418  51.123  1.00  0.00     0.280 HD
BRANCH   8  10
HETATM   10  C   UNL     1      15.683   8.608  52.044  1.00  0.00     0.273 C 
BRANCH  10  11
HETATM   11  C   UNL     1      16.003   9.328  53.329  1.00  0.00    -0.033 A 
HETATM   12  C   UNL     1      15.951   8.677  54.571  1.00  0.00     0.009 A 
HETATM   13  C   UNL     1      16.230   9.369  55.750  1.00  0.00     0.001 A 
HETATM   14  C   UNL     1      16.576  10.718  55.705  1.00  0.00     0.000 A 
HETATM   15  C   UNL     1      16.653  11.373  54.479  1.00  0.00     0.001 A 
HETATM   16  C   UNL     1      16.374  10.682  53.298  1.00  0.00     0.009 A 
ENDBRANCH  10  11
ENDBRANCH   8  10
BRANCH   8  17
HETATM   17  C   UNL     1      16.018   9.172  49.585  1.00  0.00     0.261 C 
BRANCH  17  18
HETATM   18  C   UNL     1      17.513   9.428  49.809  1.00  0.00     0.192 C 
BRANCH  18  19
HETATM   19  O   UNL     1      17.831  10.633  49.106  1.00  0.00    -0.399 OA
HETATM   20  H   UNL     1      18.527  10.421  48.451  1.00  0.00     0.209 HD
ENDBRANCH  18  19
ENDBRANCH  17  18
ENDBRANCH   8  17
ENDBRANCH   7   8
ENDBRANCH   6   7
BRANCH   1  21
HETATM   21  C   UNL     1      12.814  11.109  53.510  1.00  0.00    -0.007 A 
HETATM   22  C   UNL     1      12.417   9.785  53.734  1.00  0.00     0.021 A 
HETATM   23  C   UNL     1      12.309   9.270  55.036  1.00  0.00    -0.055 A 
HETATM   24  C   UNL     1      12.592  10.105  56.135  1.00  0.00    -0.056 A 
HETATM   25  C   UNL     1      11.848   7.849  55.228  1.00  0.00     0.049 C 
HETATM   26  C   UNL     1      12.495   9.606  57.553  1.00  0.00     0.049 C 
HETATM   27  C   UNL     1      12.995  11.429  55.904  1.00  0.00     0.008 A 
HETATM   28  C   UNL     1      13.099  11.927  54.604  1.00  0.00     0.014 A 
ENDBRANCH   1  21
TORSDOF 8
ENDMDL
