MODEL 1
REMARK VINA RESULT:      -9.8      0.000      0.000
REMARK  8 active torsions:
REMARK  status: ('A' for Active; 'I' for Inactive)
REMARK    1  A    between atoms: C_10  and  C_11 
REMARK    2  A    between atoms: C_11  and  C_12 
REMARK       I    between atoms: C_12  and  N_13 
REMARK    3  A    between atoms: N_13  and  N_14 
REMARK       I    between atoms: N_14  and  C_15 
REMARK    4  A    between atoms: C_15  and  C_16 
REMARK    5  A    between atoms: C_16  and  C_17 
REMARK    6  A    between atoms: C_17  and  C_18 
REMARK       I    between atoms: C_18  and  N_19 
REMARK    7  A    between atoms: N_19  and  C_20 
REMARK    8  A    between atoms: C_20  and  C_21 
ROOT
HETATM    1  C   UNL     1       6.990  26.244  57.492  1.00  0.00     0.240 C 
HETATM    2  N   UNL     1       6.724  27.597  57.402  1.00  0.00    -0.267 N 
HETATM    3  O   UNL     1       7.977  25.811  58.087  1.00  0.00    -0.272 OA
HETATM    4  H   UNL     1       5.837  27.972  57.066  1.00  0.00     0.190 HD
ENDROOT
BRANCH   2   5
HETATM    5  N   UNL     1       7.590  28.482  58.047  1.00  0.00    -0.268 N 
HETATM    6  C   UNL     1       8.354  29.334  57.280  1.00  0.00     0.236 C 
HETATM    7  O   UNL     1       8.191  29.477  56.070  1.00  0.00    -0.272 OA
HETATM    8  H   UNL     1       7.779  28.289  59.032  1.00  0.00     0.190 HD
BRANCH   6   9
HETATM    9  C   UNL     1       9.392  30.087  58.085  1.00  0.00     0.114 C 
BRANCH   9  10
HETATM   10  C   UNL     1       8.979  30.265  59.539  1.00  0.00     0.112 C 
BRANCH  10  11
HETATM   11  C   UNL     1       8.263  31.582  59.732  1.00  0.00     0.218 C 
HETATM   12  N   UNL     1       7.160  31.514  60.543  1.00  0.00    -0.355 N 
HETATM   13  H   UNL     1       7.041  30.687  61.129  1.00  0.00     0.162 HD
HETATM   14  O   UNL     1       8.669  32.622  59.221  1.00  0.00    -0.274 OA
BRANCH  12  15
HETATM   15  C   UNL     1       6.462  32.715  60.936  1.00  0.00     0.187 C 
BRANCH  15  16
HETATM   16  C   UNL     1       6.812  33.030  62.340  1.00  0.00     0.070 A 
HETATM   17  O   UNL     1       6.016  33.934  62.983  1.00  0.00    -0.325 OA
HETATM   18  C   UNL     1       6.514  34.076  64.238  1.00  0.00     0.142 A 
HETATM   19  C   UNL     1       7.621  33.280  64.411  1.00  0.00     0.027 A 
HETATM   20  C   UNL     1       7.816  32.603  63.184  1.00  0.00     0.036 A 
ENDBRANCH  15  16
ENDBRANCH  12  15
ENDBRANCH  10  11
ENDBRANCH   9  10
ENDBRANCH   6   9
ENDBRANCH   2   5
BRANCH   1  21
HETATM   21  C   UNL     1       6.006  25.367  56.757  1.00  0.00     0.146 C 
BRANCH  21  22
HETATM   22  C   UNL     1       6.414  24.894  55.392  1.00  0.00    -0.015 A 
HETATM   23  C   UNL     1       7.041  23.665  54.977  1.00  0.00    -0.000 A 
HETATM   24  C   UNL     1       7.515  22.504  55.632  1.00  0.00     0.021 A 
HETATM   25  C   UNL     1       7.165  23.711  53.588  1.00  0.00     0.043 A 
HETATM   26  C   UNL     1       8.085  21.448  54.898  1.00  0.00    -0.061 A 
HETATM   27  C   UNL     1       8.558  20.206  55.598  1.00  0.00     0.048 C 
HETATM   28  C   UNL     1       8.170  21.538  53.508  1.00  0.00     0.009 A 
HETATM   29  C   UNL     1       7.719  22.672  52.831  1.00  0.00     0.031 A 
HETATM   30  N   UNL     1       6.662  24.916  53.170  1.00  0.00    -0.359 N 
HETATM   31  H   UNL     1       6.635  25.215  52.205  1.00  0.00     0.166 HD
HETATM   32  C   UNL     1       6.199  25.639  54.236  1.00  0.00     0.013 A 
HETATM   33  C   UNL     1       5.590  26.984  54.051  1.00  0.00     0.068 C 
ENDBRANCH  21  22
ENDBRANCH   1  21
TORSDOF 8
ENDMDL
MODEL 2
REMARK VINA RESULT:      -9.6      1.040      1.190
REMARK  8 active torsions:
REMARK  status: ('A' for Active; 'I' for Inactive)
REMARK    1  A    between atoms: C_10  and  C_11 
REMARK    2  A    between atoms: C_11  and  C_12 
REMARK       I    between atoms: C_12  and  N_13 
REMARK    3  A    between atoms: N_13  and  N_14 
REMARK       I    between atoms: N_14  and  C_15 
REMARK    4  A    between atoms: C_15  and  C_16 
REMARK    5  A    between atoms: C_16  and  C_17 
REMARK    6  A    between atoms: C_17  and  C_18 
REMARK       I    between atoms: C_18  and  N_19 
REMARK    7  A    between atoms: N_19  and  C_20 
REMARK    8  A    between atoms: C_20  and  C_21 
ROOT
HETATM    1  C   UNL     1       6.505  26.195  57.016  1.00  0.00     0.240 C 
HETATM    2  N   UNL     1       6.287  27.560  56.993  1.00  0.00    -0.267 N 
HETATM    3  O   UNL     1       7.437  25.693  57.644  1.00  0.00    -0.272 OA
HETATM    4  H   UNL     1       5.437  27.986  56.626  1.00  0.00     0.190 HD
ENDROOT
BRANCH   2   5
HETATM    5  N   UNL     1       7.137  28.373  57.746  1.00  0.00    -0.268 N 
HETATM    6  C   UNL     1       8.131  29.071  57.095  1.00  0.00     0.236 C 
HETATM    7  O   UNL     1       8.204  29.149  55.870  1.00  0.00    -0.272 OA
HETATM    8  H   UNL     1       7.122  28.226  58.756  1.00  0.00     0.190 HD
BRANCH   6   9
HETATM    9  C   UNL     1       9.102  29.743  58.042  1.00  0.00     0.114 C 
BRANCH   9  10
HETATM   10  C   UNL     1       8.670  31.156  58.405  1.00  0.00     0.112 C 
BRANCH  10  11
HETATM   11  C   UNL     1       9.024  31.469  59.841  1.00  0.00     0.218 C 
HETATM   12  N   UNL     1       8.431  30.646  60.763  1.00  0.00    -0.355 N 
HETATM   13  H   UNL     1       8.013  29.774  60.435  1.00  0.00     0.162 HD
HETATM   14  O   UNL     1       9.804  32.370  60.135  1.00  0.00    -0.274 OA
BRANCH  12  15
HETATM   15  C   UNL     1       8.786  30.730  62.160  1.00  0.00     0.187 C 
BRANCH  15  16
HETATM   16  C   UNL     1       7.836  31.640  62.838  1.00  0.00     0.070 A 
HETATM   17  O   UNL     1       6.509  31.438  62.590  1.00  0.00    -0.325 OA
HETATM   18  C   UNL     1       5.828  32.374  63.299  1.00  0.00     0.142 A 
HETATM   19  C   UNL     1       6.697  33.178  63.998  1.00  0.00     0.027 A 
HETATM   20  C   UNL     1       7.997  32.705  63.700  1.00  0.00     0.036 A 
ENDBRANCH  15  16
ENDBRANCH  12  15
ENDBRANCH  10  11
ENDBRANCH   9  10
ENDBRANCH   6   9
ENDBRANCH   2   5
BRANCH   1  21
HETATM   21  C   UNL     1       5.544  25.399  56.166  1.00  0.00     0.146 C 
BRANCH  21  22
HETATM   22  C   UNL     1       6.115  24.732  54.949  1.00  0.00    -0.015 A 
HETATM   23  C   UNL     1       6.957  23.568  54.829  1.00  0.00    -0.000 A 
HETATM   24  C   UNL     1       7.565  22.667  55.734  1.00  0.00     0.021 A 
HETATM   25  C   UNL     1       7.168  23.348  53.468  1.00  0.00     0.043 A 
HETATM   26  C   UNL     1       8.346  21.595  55.264  1.00  0.00    -0.061 A 
HETATM   27  C   UNL     1       8.961  20.624  56.230  1.00  0.00     0.048 C 
HETATM   28  C   UNL     1       8.509  21.409  53.890  1.00  0.00     0.009 A 
HETATM   29  C   UNL     1       7.931  22.284  52.970  1.00  0.00     0.031 A 
HETATM   30  N   UNL     1       6.508  24.336  52.784  1.00  0.00    -0.359 N 
HETATM   31  H   UNL     1       6.500  24.421  51.777  1.00  0.00     0.166 HD
HETATM   32  C   UNL     1       5.863  25.174  53.653  1.00  0.00     0.013 A 
HETATM   33  C   UNL     1       5.062  26.328  53.163  1.00  0.00     0.068 C 
ENDBRANCH  21  22
ENDBRANCH   1  21
TORSDOF 8
ENDMDL
MODEL 3
REMARK VINA RESULT:      -9.4      6.271      9.170
REMARK  8 active torsions:
REMARK  status: ('A' for Active; 'I' for Inactive)
REMARK    1  A    between atoms: C_10  and  C_11 
REMARK    2  A    between atoms: C_11  and  C_12 
REMARK       I    between atoms: C_12  and  N_13 
REMARK    3  A    between atoms: N_13  and  N_14 
REMARK       I    between atoms: N_14  and  C_15 
REMARK    4  A    between atoms: C_15  and  C_16 
REMARK    5  A    between atoms: C_16  and  C_17 
REMARK    6  A    between atoms: C_17  and  C_18 
REMARK       I    between atoms: C_18  and  N_19 
REMARK    7  A    between atoms: N_19  and  C_20 
REMARK    8  A    between atoms: C_20  and  C_21 
ROOT
HETATM    1  C   UNL     1       5.618  25.617  51.452  1.00  0.00     0.240 C 
HETATM    2  N   UNL     1       5.348  26.216  50.236  1.00  0.00    -0.267 N 
HETATM    3  O   UNL     1       4.792  24.912  52.030  1.00  0.00    -0.272 OA
HETATM    4  H   UNL     1       6.061  26.661  49.659  1.00  0.00     0.190 HD
ENDROOT
BRANCH   2   5
HETATM    5  N   UNL     1       4.108  25.967  49.642  1.00  0.00    -0.268 N 
HETATM    6  C   UNL     1       3.976  26.161  48.284  1.00  0.00     0.236 C 
HETATM    7  O   UNL     1       4.931  26.377  47.540  1.00  0.00    -0.272 OA
HETATM    8  H   UNL     1       3.315  25.880  50.278  1.00  0.00     0.190 HD
BRANCH   6   9
HETATM    9  C   UNL     1       2.543  26.058  47.807  1.00  0.00     0.114 C 
BRANCH   9  10
HETATM   10  C   UNL     1       2.093  27.305  47.060  1.00  0.00     0.112 C 
BRANCH  10  11
HETATM   11  C   UNL     1       1.864  28.449  48.021  1.00  0.00     0.218 C 
HETATM   12  N   UNL     1       1.630  28.063  49.316  1.00  0.00    -0.355 N 
HETATM   13  H   UNL     1       1.857  27.104  49.583  1.00  0.00     0.162 HD
HETATM   14  O   UNL     1       1.918  29.621  47.660  1.00  0.00    -0.274 OA
BRANCH  12  15
HETATM   15  C   UNL     1       1.539  29.045  50.370  1.00  0.00     0.187 C 
BRANCH  15  16
HETATM   16  C   UNL     1       2.819  29.065  51.113  1.00  0.00     0.070 A 
HETATM   17  O   UNL     1       3.954  29.244  50.375  1.00  0.00    -0.325 OA
HETATM   18  C   UNL     1       4.997  29.224  51.244  1.00  0.00     0.142 A 
HETATM   19  C   UNL     1       4.551  29.031  52.530  1.00  0.00     0.027 A 
HETATM   20  C   UNL     1       3.143  28.927  52.448  1.00  0.00     0.036 A 
ENDBRANCH  15  16
ENDBRANCH  12  15
ENDBRANCH  10  11
ENDBRANCH   9  10
ENDBRANCH   6   9
ENDBRANCH   2   5
BRANCH   1  21
HETATM   21  C   UNL     1       6.976  25.951  52.019  1.00  0.00     0.146 C 
BRANCH  21  22
HETATM   22  C   UNL     1       7.325  25.331  53.341  1.00  0.00    -0.015 A 
HETATM   23  C   UNL     1       7.693  23.977  53.670  1.00  0.00    -0.000 A 
HETATM   24  C   UNL     1       7.838  22.768  52.948  1.00  0.00     0.021 A 
HETATM   25  C   UNL     1       7.956  23.940  55.039  1.00  0.00     0.043 A 
HETATM   26  C   UNL     1       8.233  21.587  53.601  1.00  0.00    -0.061 A 
HETATM   27  C   UNL     1       8.415  20.315  52.823  1.00  0.00     0.048 C 
HETATM   28  C   UNL     1       8.502  21.609  54.970  1.00  0.00     0.009 A 
HETATM   29  C   UNL     1       8.361  22.781  55.714  1.00  0.00     0.031 A 
HETATM   30  N   UNL     1       7.741  25.201  55.534  1.00  0.00    -0.359 N 
HETATM   31  H   UNL     1       7.852  25.456  56.505  1.00  0.00     0.166 HD
HETATM   32  C   UNL     1       7.369  26.053  54.530  1.00  0.00     0.013 A 
HETATM   33  C   UNL     1       7.086  27.489  54.800  1.00  0.00     0.068 C 
ENDBRANCH  21  22
ENDBRANCH   1  21
TORSDOF 8
ENDMDL
MODEL 4
REMARK VINA RESULT:      -9.2      2.497      3.968
REMARK  8 active torsions:
REMARK  status: ('A' for Active; 'I' for Inactive)
REMARK    1  A    between atoms: C_10  and  C_11 
REMARK    2  A    between atoms: C_11  and  C_12 
REMARK       I    between atoms: C_12  and  N_13 
REMARK    3  A    between atoms: N_13  and  N_14 
REMARK       I    between atoms: N_14  and  C_15 
REMARK    4  A    between atoms: C_15  and  C_16 
REMARK    5  A    between atoms: C_16  and  C_17 
REMARK    6  A    between atoms: C_17  and  C_18 
REMARK       I    between atoms: C_18  and  N_19 
REMARK    7  A    between atoms: N_19  and  C_20 
REMARK    8  A    between atoms: C_20  and  C_21 
ROOT
HETATM    1  C   UNL     1       5.576  26.537  56.570  1.00  0.00     0.240 C 
HETATM    2  N   UNL     1       4.409  27.249  56.777  1.00  0.00    -0.267 N 
HETATM    3  O   UNL     1       6.684  27.070  56.625  1.00  0.00    -0.272 OA
HETATM    4  H   UNL     1       3.499  26.807  56.905  1.00  0.00     0.190 HD
ENDROOT
BRANCH   2   5
HETATM    5  N   UNL     1       4.514  28.605  57.097  1.00  0.00    -0.268 N 
HETATM    6  C   UNL     1       4.303  29.534  56.102  1.00  0.00     0.236 C 
HETATM    7  O   UNL     1       3.862  29.243  54.992  1.00  0.00    -0.272 OA
HETATM    8  H   UNL     1       4.965  28.823  57.986  1.00  0.00     0.190 HD
BRANCH   6   9
HETATM    9  C   UNL     1       4.649  30.946  56.527  1.00  0.00     0.114 C 
BRANCH   9  10
HETATM   10  C   UNL     1       4.700  31.097  58.040  1.00  0.00     0.112 C 
BRANCH  10  11
HETATM   11  C   UNL     1       6.085  31.504  58.489  1.00  0.00     0.218 C 
HETATM   12  N   UNL     1       6.888  30.458  58.866  1.00  0.00    -0.355 N 
HETATM   13  H   UNL     1       6.607  29.513  58.602  1.00  0.00     0.162 HD
HETATM   14  O   UNL     1       6.452  32.675  58.480  1.00  0.00    -0.274 OA
BRANCH  12  15
HETATM   15  C   UNL     1       8.280  30.677  59.179  1.00  0.00     0.187 C 
BRANCH  15  16
HETATM   16  C   UNL     1       9.098  30.270  58.014  1.00  0.00     0.070 A 
HETATM   17  O   UNL     1       8.439  29.676  56.978  1.00  0.00    -0.325 OA
HETATM   18  C   UNL     1       9.369  29.384  56.032  1.00  0.00     0.142 A 
HETATM   19  C   UNL     1      10.618  29.779  56.447  1.00  0.00     0.027 A 
HETATM   20  C   UNL     1      10.447  30.352  57.729  1.00  0.00     0.036 A 
ENDBRANCH  15  16
ENDBRANCH  12  15
ENDBRANCH  10  11
ENDBRANCH   9  10
ENDBRANCH   6   9
ENDBRANCH   2   5
BRANCH   1  21
HETATM   21  C   UNL     1       5.363  25.084  56.222  1.00  0.00     0.146 C 
BRANCH  21  22
HETATM   22  C   UNL     1       6.022  24.589  54.968  1.00  0.00    -0.015 A 
HETATM   23  C   UNL     1       6.961  23.514  54.767  1.00  0.00    -0.000 A 
HETATM   24  C   UNL     1       7.615  22.578  55.602  1.00  0.00     0.021 A 
HETATM   25  C   UNL     1       7.228  23.447  53.399  1.00  0.00     0.043 A 
HETATM   26  C   UNL     1       8.496  21.625  55.059  1.00  0.00    -0.061 A 
HETATM   27  C   UNL     1       9.162  20.615  55.947  1.00  0.00     0.048 C 
HETATM   28  C   UNL     1       8.713  21.590  53.680  1.00  0.00     0.009 A 
HETATM   29  C   UNL     1       8.091  22.503  52.829  1.00  0.00     0.031 A 
HETATM   30  N   UNL     1       6.507  24.444  52.790  1.00  0.00    -0.359 N 
HETATM   31  H   UNL     1       6.521  24.627  51.797  1.00  0.00     0.166 HD
HETATM   32  C   UNL     1       5.771  25.136  53.713  1.00  0.00     0.013 A 
HETATM   33  C   UNL     1       4.891  26.265  53.308  1.00  0.00     0.068 C 
ENDBRANCH  21  22
ENDBRANCH   1  21
TORSDOF 8
ENDMDL
MODEL 5
REMARK VINA RESULT:      -8.9      1.912      2.585
REMARK  8 active torsions:
REMARK  status: ('A' for Active; 'I' for Inactive)
REMARK    1  A    between atoms: C_10  and  C_11 
REMARK    2  A    between atoms: C_11  and  C_12 
REMARK       I    between atoms: C_12  and  N_13 
REMARK    3  A    between atoms: N_13  and  N_14 
REMARK       I    between atoms: N_14  and  C_15 
REMARK    4  A    between atoms: C_15  and  C_16 
REMARK    5  A    between atoms: C_16  and  C_17 
REMARK    6  A    between atoms: C_17  and  C_18 
REMARK       I    between atoms: C_18  and  N_19 
REMARK    7  A    between atoms: N_19  and  C_20 
REMARK    8  A    between atoms: C_20  and  C_21 
ROOT
HETATM    1  C   UNL     1       5.785  26.645  56.931  1.00  0.00     0.240 C 
HETATM    2  N   UNL     1       4.718  27.499  57.136  1.00  0.00    -0.267 N 
HETATM    3  O   UNL     1       6.951  27.005  57.095  1.00  0.00    -0.272 OA
HETATM    4  H   UNL     1       3.748  27.186  57.172  1.00  0.00     0.190 HD
ENDROOT
BRANCH   2   5
HETATM    5  N   UNL     1       4.990  28.795  57.583  1.00  0.00    -0.268 N 
HETATM    6  C   UNL     1       5.009  29.819  56.663  1.00  0.00     0.236 C 
HETATM    7  O   UNL     1       4.633  29.685  55.499  1.00  0.00    -0.272 OA
HETATM    8  H   UNL     1       5.385  28.872  58.521  1.00  0.00     0.190 HD
BRANCH   6   9
HETATM    9  C   UNL     1       5.516  31.124  57.238  1.00  0.00     0.114 C 
BRANCH   9  10
HETATM   10  C   UNL     1       4.387  32.008  57.749  1.00  0.00     0.112 C 
BRANCH  10  11
HETATM   11  C   UNL     1       4.817  32.758  58.989  1.00  0.00     0.218 C 
HETATM   12  N   UNL     1       5.559  32.016  59.872  1.00  0.00    -0.355 N 
HETATM   13  H   UNL     1       5.962  31.137  59.545  1.00  0.00     0.162 HD
HETATM   14  O   UNL     1       4.541  33.941  59.160  1.00  0.00    -0.274 OA
BRANCH  12  15
HETATM   15  C   UNL     1       6.162  32.636  61.027  1.00  0.00     0.187 C 
BRANCH  15  16
HETATM   16  C   UNL     1       7.613  32.345  61.020  1.00  0.00     0.070 A 
HETATM   17  O   UNL     1       8.249  32.420  59.815  1.00  0.00    -0.325 OA
HETATM   18  C   UNL     1       9.553  32.114  60.036  1.00  0.00     0.142 A 
HETATM   19  C   UNL     1       9.766  31.840  61.366  1.00  0.00     0.027 A 
HETATM   20  C   UNL     1       8.512  31.988  62.005  1.00  0.00     0.036 A 
ENDBRANCH  15  16
ENDBRANCH  12  15
ENDBRANCH  10  11
ENDBRANCH   9  10
ENDBRANCH   6   9
ENDBRANCH   2   5
BRANCH   1  21
HETATM   21  C   UNL     1       5.395  25.272  56.440  1.00  0.00     0.146 C 
BRANCH  21  22
HETATM   22  C   UNL     1       6.019  24.814  55.154  1.00  0.00    -0.015 A 
HETATM   23  C   UNL     1       6.920  23.721  54.889  1.00  0.00    -0.000 A 
HETATM   24  C   UNL     1       7.557  22.728  55.669  1.00  0.00     0.021 A 
HETATM   25  C   UNL     1       7.164  23.709  53.515  1.00  0.00     0.043 A 
HETATM   26  C   UNL     1       8.398  21.774  55.069  1.00  0.00    -0.061 A 
HETATM   27  C   UNL     1       9.046  20.704  55.900  1.00  0.00     0.048 C 
HETATM   28  C   UNL     1       8.594  21.795  53.687  1.00  0.00     0.009 A 
HETATM   29  C   UNL     1       7.988  22.765  52.889  1.00  0.00     0.031 A 
HETATM   30  N   UNL     1       6.467  24.754  52.964  1.00  0.00    -0.359 N 
HETATM   31  H   UNL     1       6.471  24.982  51.980  1.00  0.00     0.166 HD
HETATM   32  C   UNL     1       5.767  25.426  53.929  1.00  0.00     0.013 A 
HETATM   33  C   UNL     1       4.917  26.599  53.591  1.00  0.00     0.068 C 
ENDBRANCH  21  22
ENDBRANCH   1  21
TORSDOF 8
ENDMDL
MODEL 6
REMARK VINA RESULT:      -8.7      2.644     10.906
REMARK  8 active torsions:
REMARK  status: ('A' for Active; 'I' for Inactive)
REMARK    1  A    between atoms: C_10  and  C_11 
REMARK    2  A    between atoms: C_11  and  C_12 
REMARK       I    between atoms: C_12  and  N_13 
REMARK    3  A    between atoms: N_13  and  N_14 
REMARK       I    between atoms: N_14  and  C_15 
REMARK    4  A    between atoms: C_15  and  C_16 
REMARK    5  A    between atoms: C_16  and  C_17 
REMARK    6  A    between atoms: C_17  and  C_18 
REMARK       I    between atoms: C_18  and  N_19 
REMARK    7  A    between atoms: N_19  and  C_20 
REMARK    8  A    between atoms: C_20  and  C_21 
ROOT
HETATM    1  C   UNL     1       3.836  31.539  59.272  1.00  0.00     0.240 C 
HETATM    2  N   UNL     1       4.827  30.946  58.514  1.00  0.00    -0.267 N 
HETATM    3  O   UNL     1       2.772  30.970  59.516  1.00  0.00    -0.272 OA
HETATM    4  H   UNL     1       5.773  31.319  58.438  1.00  0.00     0.190 HD
ENDROOT
BRANCH   2   5
HETATM    5  N   UNL     1       4.613  29.644  58.055  1.00  0.00    -0.268 N 
HETATM    6  C   UNL     1       5.170  29.269  56.852  1.00  0.00     0.236 C 
HETATM    7  O   UNL     1       5.985  29.961  56.244  1.00  0.00    -0.272 OA
HETATM    8  H   UNL     1       3.870  29.121  58.519  1.00  0.00     0.190 HD
BRANCH   6   9
HETATM    9  C   UNL     1       4.694  27.914  56.374  1.00  0.00     0.114 C 
BRANCH   9  10
HETATM   10  C   UNL     1       5.776  27.153  55.623  1.00  0.00     0.112 C 
BRANCH  10  11
HETATM   11  C   UNL     1       5.881  25.734  56.132  1.00  0.00     0.218 C 
HETATM   12  N   UNL     1       6.944  25.028  55.629  1.00  0.00    -0.355 N 
HETATM   13  H   UNL     1       7.692  25.545  55.166  1.00  0.00     0.162 HD
HETATM   14  O   UNL     1       5.089  25.279  56.952  1.00  0.00    -0.274 OA
BRANCH  12  15
HETATM   15  C   UNL     1       7.256  23.712  56.134  1.00  0.00     0.187 C 
BRANCH  15  16
HETATM   16  C   UNL     1       7.513  22.812  54.987  1.00  0.00     0.070 A 
HETATM   17  O   UNL     1       7.643  21.483  55.266  1.00  0.00    -0.325 OA
HETATM   18  C   UNL     1       7.877  20.852  54.087  1.00  0.00     0.142 A 
HETATM   19  C   UNL     1       7.902  21.756  53.052  1.00  0.00     0.027 A 
HETATM   20  C   UNL     1       7.668  23.025  53.632  1.00  0.00     0.036 A 
ENDBRANCH  15  16
ENDBRANCH  12  15
ENDBRANCH  10  11
ENDBRANCH   9  10
ENDBRANCH   6   9
ENDBRANCH   2   5
BRANCH   1  21
HETATM   21  C   UNL     1       4.152  32.947  59.715  1.00  0.00     0.146 C 
BRANCH  21  22
HETATM   22  C   UNL     1       4.630  33.117  61.128  1.00  0.00    -0.015 A 
HETATM   23  C   UNL     1       5.919  32.855  61.717  1.00  0.00    -0.000 A 
HETATM   24  C   UNL     1       7.154  32.347  61.252  1.00  0.00     0.021 A 
HETATM   25  C   UNL     1       5.843  33.223  63.061  1.00  0.00     0.043 A 
HETATM   26  C   UNL     1       8.253  32.225  62.123  1.00  0.00    -0.061 A 
HETATM   27  C   UNL     1       9.570  31.714  61.615  1.00  0.00     0.048 C 
HETATM   28  C   UNL     1       8.129  32.625  63.454  1.00  0.00     0.009 A 
HETATM   29  C   UNL     1       6.922  33.123  63.947  1.00  0.00     0.031 A 
HETATM   30  N   UNL     1       4.567  33.669  63.294  1.00  0.00    -0.359 N 
HETATM   31  H   UNL     1       4.235  33.993  64.191  1.00  0.00     0.166 HD
HETATM   32  C   UNL     1       3.824  33.620  62.145  1.00  0.00     0.013 A 
HETATM   33  C   UNL     1       2.403  34.061  62.126  1.00  0.00     0.068 C 
ENDBRANCH  21  22
ENDBRANCH   1  21
TORSDOF 8
ENDMDL
MODEL 7
REMARK VINA RESULT:      -8.7      5.251      8.965
REMARK  8 active torsions:
REMARK  status: ('A' for Active; 'I' for Inactive)
REMARK    1  A    between atoms: C_10  and  C_11 
REMARK    2  A    between atoms: C_11  and  C_12 
REMARK       I    between atoms: C_12  and  N_13 
REMARK    3  A    between atoms: N_13  and  N_14 
REMARK       I    between atoms: N_14  and  C_15 
REMARK    4  A    between atoms: C_15  and  C_16 
REMARK    5  A    between atoms: C_16  and  C_17 
REMARK    6  A    between atoms: C_17  and  C_18 
REMARK       I    between atoms: C_18  and  N_19 
REMARK    7  A    between atoms: N_19  and  C_20 
REMARK    8  A    between atoms: C_20  and  C_21 
ROOT
HETATM    1  C   UNL     1       5.662  25.351  52.500  1.00  0.00     0.240 C 
HETATM    2  N   UNL     1       4.401  25.788  52.859  1.00  0.00    -0.267 N 
HETATM    3  O   UNL     1       6.439  26.058  51.858  1.00  0.00    -0.272 OA
HETATM    4  H   UNL     1       3.806  25.296  53.526  1.00  0.00     0.190 HD
ENDROOT
BRANCH   2   5
HETATM    5  N   UNL     1       4.031  27.089  52.510  1.00  0.00    -0.268 N 
HETATM    6  C   UNL     1       3.941  28.038  53.505  1.00  0.00     0.236 C 
HETATM    7  O   UNL     1       4.331  27.845  54.655  1.00  0.00    -0.272 OA
HETATM    8  H   UNL     1       3.627  27.207  51.580  1.00  0.00     0.190 HD
BRANCH   6   9
HETATM    9  C   UNL     1       3.334  29.341  53.028  1.00  0.00     0.114 C 
BRANCH   9  10
HETATM   10  C   UNL     1       4.389  30.404  52.759  1.00  0.00     0.112 C 
BRANCH  10  11
HETATM   11  C   UNL     1       4.604  30.577  51.273  1.00  0.00     0.218 C 
HETATM   12  N   UNL     1       5.529  29.723  50.730  1.00  0.00    -0.355 N 
HETATM   13  H   UNL     1       5.813  28.909  51.276  1.00  0.00     0.162 HD
HETATM   14  O   UNL     1       3.971  31.400  50.618  1.00  0.00    -0.274 OA
BRANCH  12  15
HETATM   15  C   UNL     1       5.733  29.672  49.302  1.00  0.00     0.187 C 
BRANCH  15  16
HETATM   16  C   UNL     1       5.216  28.381  48.794  1.00  0.00     0.070 A 
HETATM   17  O   UNL     1       4.605  27.565  49.700  1.00  0.00    -0.325 OA
HETATM   18  C   UNL     1       4.218  26.449  49.030  1.00  0.00     0.142 A 
HETATM   19  C   UNL     1       4.574  26.534  47.705  1.00  0.00     0.027 A 
HETATM   20  C   UNL     1       5.221  27.783  47.550  1.00  0.00     0.036 A 
ENDBRANCH  15  16
ENDBRANCH  12  15
ENDBRANCH  10  11
ENDBRANCH   9  10
ENDBRANCH   6   9
ENDBRANCH   2   5
BRANCH   1  21
HETATM   21  C   UNL     1       5.968  23.931  52.911  1.00  0.00     0.146 C 
BRANCH  21  22
HETATM   22  C   UNL     1       7.020  23.748  53.964  1.00  0.00    -0.015 A 
HETATM   23  C   UNL     1       7.346  24.556  55.112  1.00  0.00    -0.000 A 
HETATM   24  C   UNL     1       6.866  25.770  55.658  1.00  0.00     0.021 A 
HETATM   25  C   UNL     1       8.383  23.915  55.790  1.00  0.00     0.043 A 
HETATM   26  C   UNL     1       7.423  26.295  56.839  1.00  0.00    -0.061 A 
HETATM   27  C   UNL     1       6.887  27.567  57.430  1.00  0.00     0.048 C 
HETATM   28  C   UNL     1       8.447  25.604  57.488  1.00  0.00     0.009 A 
HETATM   29  C   UNL     1       8.949  24.409  56.972  1.00  0.00     0.031 A 
HETATM   30  N   UNL     1       8.696  22.781  55.086  1.00  0.00    -0.359 N 
HETATM   31  H   UNL     1       9.422  22.131  55.352  1.00  0.00     0.166 HD
HETATM   32  C   UNL     1       7.885  22.657  53.990  1.00  0.00     0.013 A 
HETATM   33  C   UNL     1       8.013  21.502  53.062  1.00  0.00     0.068 C 
ENDBRANCH  21  22
ENDBRANCH   1  21
TORSDOF 8
ENDMDL
MODEL 8
REMARK VINA RESULT:      -8.7      2.058      2.374
REMARK  8 active torsions:
REMARK  status: ('A' for Active; 'I' for Inactive)
REMARK    1  A    between atoms: C_10  and  C_11 
REMARK    2  A    between atoms: C_11  and  C_12 
REMARK       I    between atoms: C_12  and  N_13 
REMARK    3  A    between atoms: N_13  and  N_14 
REMARK       I    between atoms: N_14  and  C_15 
REMARK    4  A    between atoms: C_15  and  C_16 
REMARK    5  A    between atoms: C_16  and  C_17 
REMARK    6  A    between atoms: C_17  and  C_18 
REMARK       I    between atoms: C_18  and  N_19 
REMARK    7  A    between atoms: N_19  and  C_20 
REMARK    8  A    between atoms: C_20  and  C_21 
ROOT
HETATM    1  C   UNL     1       5.757  27.398  56.717  1.00  0.00     0.240 C 
HETATM    2  N   UNL     1       4.872  28.187  57.426  1.00  0.00    -0.267 N 
HETATM    3  O   UNL     1       6.863  27.809  56.367  1.00  0.00    -0.272 OA
HETATM    4  H   UNL     1       4.029  27.825  57.871  1.00  0.00     0.190 HD
ENDROOT
BRANCH   2   5
HETATM    5  N   UNL     1       5.281  29.475  57.783  1.00  0.00    -0.268 N 
HETATM    6  C   UNL     1       4.457  30.536  57.480  1.00  0.00     0.236 C 
HETATM    7  O   UNL     1       3.307  30.397  57.066  1.00  0.00    -0.272 OA
HETATM    8  H   UNL     1       6.264  29.579  58.038  1.00  0.00     0.190 HD
BRANCH   6   9
HETATM    9  C   UNL     1       5.105  31.881  57.730  1.00  0.00     0.114 C 
BRANCH   9  10
HETATM   10  C   UNL     1       5.878  31.915  59.041  1.00  0.00     0.112 C 
BRANCH  10  11
HETATM   11  C   UNL     1       4.951  32.205  60.199  1.00  0.00     0.218 C 
HETATM   12  N   UNL     1       5.501  31.982  61.435  1.00  0.00    -0.355 N 
HETATM   13  H   UNL     1       6.514  31.881  61.501  1.00  0.00     0.162 HD
HETATM   14  O   UNL     1       3.813  32.633  60.027  1.00  0.00    -0.274 OA
BRANCH  12  15
HETATM   15  C   UNL     1       4.787  32.352  62.634  1.00  0.00     0.187 C 
BRANCH  15  16
HETATM   16  C   UNL     1       5.755  32.891  63.616  1.00  0.00     0.070 A 
HETATM   17  O   UNL     1       5.250  33.298  64.816  1.00  0.00    -0.325 OA
HETATM   18  C   UNL     1       6.297  33.756  65.551  1.00  0.00     0.142 A 
HETATM   19  C   UNL     1       7.468  33.653  64.839  1.00  0.00     0.027 A 
HETATM   20  C   UNL     1       7.120  33.095  63.586  1.00  0.00     0.036 A 
ENDBRANCH  15  16
ENDBRANCH  12  15
ENDBRANCH  10  11
ENDBRANCH   9  10
ENDBRANCH   6   9
ENDBRANCH   2   5
BRANCH   1  21
HETATM   21  C   UNL     1       5.224  26.029  56.368  1.00  0.00     0.146 C 
BRANCH  21  22
HETATM   22  C   UNL     1       5.766  25.393  55.122  1.00  0.00    -0.015 A 
HETATM   23  C   UNL     1       6.627  24.249  54.954  1.00  0.00    -0.000 A 
HETATM   24  C   UNL     1       7.284  23.346  55.822  1.00  0.00     0.021 A 
HETATM   25  C   UNL     1       6.795  24.054  53.582  1.00  0.00     0.043 A 
HETATM   26  C   UNL     1       8.070  22.299  55.308  1.00  0.00    -0.061 A 
HETATM   27  C   UNL     1       8.739  21.326  56.235  1.00  0.00     0.048 C 
HETATM   28  C   UNL     1       8.190  22.138  53.926  1.00  0.00     0.009 A 
HETATM   29  C   UNL     1       7.562  23.015  53.041  1.00  0.00     0.031 A 
HETATM   30  N   UNL     1       6.091  25.040  52.938  1.00  0.00    -0.359 N 
HETATM   31  H   UNL     1       6.046  25.140  51.934  1.00  0.00     0.166 HD
HETATM   32  C   UNL     1       5.460  25.850  53.843  1.00  0.00     0.013 A 
HETATM   33  C   UNL     1       4.619  26.994  53.400  1.00  0.00     0.068 C 
ENDBRANCH  21  22
ENDBRANCH   1  21
TORSDOF 8
ENDMDL
MODEL 9
REMARK VINA RESULT:      -8.6      2.926      4.441
REMARK  8 active torsions:
REMARK  status: ('A' for Active; 'I' for Inactive)
REMARK    1  A    between atoms: C_10  and  C_11 
REMARK    2  A    between atoms: C_11  and  C_12 
REMARK       I    between atoms: C_12  and  N_13 
REMARK    3  A    between atoms: N_13  and  N_14 
REMARK       I    between atoms: N_14  and  C_15 
REMARK    4  A    between atoms: C_15  and  C_16 
REMARK    5  A    between atoms: C_16  and  C_17 
REMARK    6  A    between atoms: C_17  and  C_18 
REMARK       I    between atoms: C_18  and  N_19 
REMARK    7  A    between atoms: N_19  and  C_20 
REMARK    8  A    between atoms: C_20  and  C_21 
ROOT
HETATM    1  C   UNL     1       6.795  30.749  58.197  1.00  0.00     0.240 C 
HETATM    2  N   UNL     1       7.761  30.252  59.052  1.00  0.00    -0.267 N 
HETATM    3  O   UNL     1       6.004  31.626  58.544  1.00  0.00    -0.272 OA
HETATM    4  H   UNL     1       8.528  29.655  58.744  1.00  0.00     0.190 HD
ENDROOT
BRANCH   2   5
HETATM    5  N   UNL     1       7.851  30.803  60.333  1.00  0.00    -0.268 N 
HETATM    6  C   UNL     1       8.680  31.885  60.527  1.00  0.00     0.236 C 
HETATM    7  O   UNL     1       9.213  32.499  59.604  1.00  0.00    -0.272 OA
HETATM    8  H   UNL     1       7.480  30.233  61.094  1.00  0.00     0.190 HD
BRANCH   6   9
HETATM    9  C   UNL     1       8.846  32.251  61.987  1.00  0.00     0.114 C 
BRANCH   9  10
HETATM   10  C   UNL     1       7.747  31.660  62.858  1.00  0.00     0.112 C 
BRANCH  10  11
HETATM   11  C   UNL     1       7.189  32.707  63.795  1.00  0.00     0.218 C 
HETATM   12  N   UNL     1       5.819  32.759  63.837  1.00  0.00    -0.355 N 
HETATM   13  H   UNL     1       5.294  31.974  63.450  1.00  0.00     0.162 HD
HETATM   14  O   UNL     1       7.918  33.422  64.477  1.00  0.00    -0.274 OA
BRANCH  12  15
HETATM   15  C   UNL     1       5.145  33.606  64.791  1.00  0.00     0.187 C 
BRANCH  15  16
HETATM   16  C   UNL     1       4.564  34.763  64.073  1.00  0.00     0.070 A 
HETATM   17  O   UNL     1       4.631  34.736  62.710  1.00  0.00    -0.325 OA
HETATM   18  C   UNL     1       4.053  35.880  62.263  1.00  0.00     0.142 A 
HETATM   19  C   UNL     1       3.618  36.645  63.319  1.00  0.00     0.027 A 
HETATM   20  C   UNL     1       3.948  35.925  64.491  1.00  0.00     0.036 A 
ENDBRANCH  15  16
ENDBRANCH  12  15
ENDBRANCH  10  11
ENDBRANCH   9  10
ENDBRANCH   6   9
ENDBRANCH   2   5
BRANCH   1  21
HETATM   21  C   UNL     1       6.768  30.087  56.840  1.00  0.00     0.146 C 
BRANCH  21  22
HETATM   22  C   UNL     1       5.973  28.819  56.726  1.00  0.00    -0.015 A 
HETATM   23  C   UNL     1       6.392  27.443  56.810  1.00  0.00    -0.000 A 
HETATM   24  C   UNL     1       7.625  26.774  56.991  1.00  0.00     0.021 A 
HETATM   25  C   UNL     1       5.249  26.653  56.676  1.00  0.00     0.043 A 
HETATM   26  C   UNL     1       7.680  25.369  57.034  1.00  0.00    -0.061 A 
HETATM   27  C   UNL     1       8.988  24.667  57.258  1.00  0.00     0.048 C 
HETATM   28  C   UNL     1       6.504  24.627  56.914  1.00  0.00     0.009 A 
HETATM   29  C   UNL     1       5.272  25.254  56.725  1.00  0.00     0.031 A 
HETATM   30  N   UNL     1       4.184  27.498  56.498  1.00  0.00    -0.359 N 
HETATM   31  H   UNL     1       3.231  27.189  56.368  1.00  0.00     0.166 HD
HETATM   32  C   UNL     1       4.595  28.803  56.532  1.00  0.00     0.013 A 
HETATM   33  C   UNL     1       3.627  29.922  56.374  1.00  0.00     0.068 C 
ENDBRANCH  21  22
ENDBRANCH   1  21
TORSDOF 8
ENDMDL
MODEL 10
REMARK VINA RESULT:      -8.6      5.739      9.173
REMARK  8 active torsions:
REMARK  status: ('A' for Active; 'I' for Inactive)
REMARK    1  A    between atoms: C_10  and  C_11 
REMARK    2  A    between atoms: C_11  and  C_12 
REMARK       I    between atoms: C_12  and  N_13 
REMARK    3  A    between atoms: N_13  and  N_14 
REMARK       I    between atoms: N_14  and  C_15 
REMARK    4  A    between atoms: C_15  and  C_16 
REMARK    5  A    between atoms: C_16  and  C_17 
REMARK    6  A    between atoms: C_17  and  C_18 
REMARK       I    between atoms: C_18  and  N_19 
REMARK    7  A    between atoms: N_19  and  C_20 
REMARK    8  A    between atoms: C_20  and  C_21 
ROOT
HETATM    1  C   UNL     1       6.320  25.582  53.370  1.00  0.00     0.240 C 
HETATM    2  N   UNL     1       6.793  25.939  52.122  1.00  0.00    -0.267 N 
HETATM    3  O   UNL     1       5.198  25.103  53.531  1.00  0.00    -0.272 OA
HETATM    4  H   UNL     1       7.767  26.178  51.938  1.00  0.00     0.190 HD
ENDROOT
BRANCH   2   5
HETATM    5  N   UNL     1       5.972  25.703  51.016  1.00  0.00    -0.268 N 
HETATM    6  C   UNL     1       5.295  26.766  50.459  1.00  0.00     0.236 C 
HETATM    7  O   UNL     1       5.504  27.936  50.774  1.00  0.00    -0.272 OA
HETATM    8  H   UNL     1       5.741  24.727  50.828  1.00  0.00     0.190 HD
BRANCH   6   9
HETATM    9  C   UNL     1       4.289  26.343  49.410  1.00  0.00     0.114 C 
BRANCH   9  10
HETATM   10  C   UNL     1       4.738  26.705  48.001  1.00  0.00     0.112 C 
BRANCH  10  11
HETATM   11  C   UNL     1       4.101  28.001  47.555  1.00  0.00     0.218 C 
HETATM   12  N   UNL     1       4.889  29.109  47.729  1.00  0.00    -0.355 N 
HETATM   13  H   UNL     1       5.884  28.971  47.905  1.00  0.00     0.162 HD
HETATM   14  O   UNL     1       2.981  28.034  47.052  1.00  0.00    -0.274 OA
BRANCH  12  15
HETATM   15  C   UNL     1       4.473  30.394  47.217  1.00  0.00     0.187 C 
BRANCH  15  16
HETATM   16  C   UNL     1       4.010  31.229  48.347  1.00  0.00     0.070 A 
HETATM   17  O   UNL     1       4.435  30.867  49.593  1.00  0.00    -0.325 OA
HETATM   18  C   UNL     1       3.893  31.753  50.468  1.00  0.00     0.142 A 
HETATM   19  C   UNL     1       3.123  32.678  49.804  1.00  0.00     0.027 A 
HETATM   20  C   UNL     1       3.196  32.340  48.432  1.00  0.00     0.036 A 
ENDBRANCH  15  16
ENDBRANCH  12  15
ENDBRANCH  10  11
ENDBRANCH   9  10
ENDBRANCH   6   9
ENDBRANCH   2   5
BRANCH   1  21
HETATM   21  C   UNL     1       7.271  25.883  54.503  1.00  0.00     0.146 C 
BRANCH  21  22
HETATM   22  C   UNL     1       7.598  24.747  55.428  1.00  0.00    -0.015 A 
HETATM   23  C   UNL     1       7.874  23.361  55.145  1.00  0.00    -0.000 A 
HETATM   24  C   UNL     1       7.919  22.560  53.980  1.00  0.00     0.021 A 
HETATM   25  C   UNL     1       8.158  22.738  56.361  1.00  0.00     0.043 A 
HETATM   26  C   UNL     1       8.241  21.193  54.061  1.00  0.00    -0.061 A 
HETATM   27  C   UNL     1       8.318  20.357  52.816  1.00  0.00     0.048 C 
HETATM   28  C   UNL     1       8.535  20.623  55.301  1.00  0.00     0.009 A 
HETATM   29  C   UNL     1       8.491  21.383  56.471  1.00  0.00     0.031 A 
HETATM   30  N   UNL     1       8.042  23.686  57.345  1.00  0.00    -0.359 N 
HETATM   31  H   UNL     1       8.189  23.503  58.328  1.00  0.00     0.166 HD
HETATM   32  C   UNL     1       7.714  24.901  56.806  1.00  0.00     0.013 A 
HETATM   33  C   UNL     1       7.540  26.104  57.664  1.00  0.00     0.068 C 
ENDBRANCH  21  22
ENDBRANCH   1  21
TORSDOF 8
ENDMDL
