MODEL 1
REMARK VINA RESULT:     -10.0      0.000      0.000
REMARK  11 active torsions:
REMARK  status: ('A' for Active; 'I' for Inactive)
REMARK    1  A    between atoms: C_4  and  C_5 
REMARK    2  A    between atoms: C_7  and  O_8 
REMARK    3  A    between atoms: C_10  and  O_11 
REMARK    4  A    between atoms: C_16  and  C_17 
REMARK    5  A    between atoms: C_20  and  C_21 
REMARK    6  A    between atoms: C_21  and  N_22 
REMARK    7  A    between atoms: N_22  and  C_23 
REMARK    8  A    between atoms: C_23  and  N_24 
REMARK    9  A    between atoms: N_24  and  C_25 
REMARK   10  A    between atoms: C_27  and  C_28 
REMARK   11  A    between atoms: C_28  and  O_29 
ROOT
HETATM    1  C   UNL     1       4.170  28.962  56.007  1.00  0.00     0.067 C 
HETATM    2  C   UNL     1       4.307  30.456  55.657  1.00  0.00     0.001 C 
HETATM    3  C   UNL     1       5.696  31.015  56.029  1.00  0.00     0.040 C 
HETATM    4  C   UNL     1       5.970  30.927  57.539  1.00  0.00     0.206 C 
HETATM    5  N   UNL     1       4.849  30.080  58.140  1.00  0.00    -0.065 N 
HETATM    6  H   UNL     1       5.050  29.909  59.135  1.00  0.00     0.280 HD
HETATM    7  C   UNL     1       4.708  28.728  57.437  1.00  0.00     0.246 C 
HETATM    8  C   UNL     1       3.299  31.210  56.565  1.00  0.00     0.033 C 
HETATM    9  C   UNL     1       3.536  30.851  58.041  1.00  0.00     0.236 C 
ENDROOT
BRANCH   4  10
HETATM   10  C   UNL     1       7.374  30.381  57.886  1.00  0.00     0.155 C 
BRANCH  10  11
HETATM   11  N   UNL     1       7.539  30.117  59.315  1.00  0.00    -0.365 N 
HETATM   12  H   UNL     1       7.575  29.142  59.603  1.00  0.00     0.161 HD
BRANCH  11  13
HETATM   13  C   UNL     1       8.156  30.941  60.217  1.00  0.00     0.172 C 
HETATM   14  S   UNL     1       9.392  32.004  59.857  1.00  0.00    -0.041 SA
BRANCH  13  15
HETATM   15  N   UNL     1       7.743  30.864  61.517  1.00  0.00    -0.333 N 
HETATM   16  H   UNL     1       7.957  29.962  61.938  1.00  0.00     0.168 HD
BRANCH  15  17
HETATM   17  C   UNL     1       7.220  31.829  62.404  1.00  0.00     0.035 A 
HETATM   18  C   UNL     1       5.962  32.418  62.268  1.00  0.00     0.047 A 
HETATM   19  C   UNL     1       5.514  33.390  63.178  1.00  0.00     0.041 A 
HETATM   20  C   UNL     1       6.349  33.797  64.221  1.00  0.00     0.018 A 
HETATM   21  C   UNL     1       7.620  33.239  64.345  1.00  0.00     0.003 A 
HETATM   22  C   UNL     1       8.053  32.265  63.440  1.00  0.00     0.029 A 
BRANCH  19  23
HETATM   23  C   UNL     1       4.145  33.940  62.977  1.00  0.00     0.293 C 
HETATM   24  O   UNL     1       3.132  33.280  63.162  1.00  0.00    -0.259 OA
BRANCH  23  25
HETATM   25  O   UNL     1       4.198  35.231  62.577  1.00  0.00    -0.323 OA
HETATM   26  C   UNL     1       3.615  36.157  63.496  1.00  0.00     0.213 C 
ENDBRANCH  23  25
ENDBRANCH  19  23
ENDBRANCH  15  17
ENDBRANCH  13  15
ENDBRANCH  11  13
ENDBRANCH  10  11
ENDBRANCH   4  10
BRANCH   1  27
HETATM   27  C   UNL     1       4.620  27.887  55.054  1.00  0.00     0.038 C 
HETATM   28  N   UNL     1       4.411  27.715  53.702  1.00  0.00    -0.277 N 
HETATM   29  C   UNL     1       3.552  28.403  52.769  1.00  0.00     0.179 C 
HETATM   30  N   UNL     1       5.154  26.727  53.179  1.00  0.00    -0.172 NA
HETATM   31  C   UNL     1       5.719  26.106  54.215  1.00  0.00     0.089 C 
HETATM   32  C   UNL     1       5.408  26.797  55.407  1.00  0.00     0.061 C 
BRANCH  31  33
HETATM   33  C   UNL     1       6.558  24.921  54.044  1.00  0.00    -0.003 A 
HETATM   34  C   UNL     1       6.761  24.041  55.117  1.00  0.00     0.053 A 
HETATM   35  C   UNL     1       7.542  22.889  54.965  1.00  0.00     0.102 A 
HETATM   36  C   UNL     1       8.147  22.619  53.721  1.00  0.00     0.101 A 
HETATM   37  C   UNL     1       7.953  23.500  52.653  1.00  0.00     0.040 A 
HETATM   38  C   UNL     1       7.161  24.642  52.813  1.00  0.00     0.017 A 
BRANCH  35  39
HETATM   39  O   UNL     1       7.773  21.971  55.959  1.00  0.00    -0.353 OA
HETATM   40  C   UNL     1       8.420  22.425  57.141  1.00  0.00     0.210 C 
ENDBRANCH  35  39
BRANCH  36  41
HETATM   41  O   UNL     1       8.895  21.471  53.650  1.00  0.00    -0.353 OA
HETATM   42  C   UNL     1       8.437  20.435  52.793  1.00  0.00     0.210 C 
ENDBRANCH  36  41
ENDBRANCH  31  33
ENDBRANCH   1  27
TORSDOF 11
ENDMDL
MODEL 2
REMARK VINA RESULT:      -9.5      4.171      6.532
REMARK  11 active torsions:
REMARK  status: ('A' for Active; 'I' for Inactive)
REMARK    1  A    between atoms: C_4  and  C_5 
REMARK    2  A    between atoms: C_7  and  O_8 
REMARK    3  A    between atoms: C_10  and  O_11 
REMARK    4  A    between atoms: C_16  and  C_17 
REMARK    5  A    between atoms: C_20  and  C_21 
REMARK    6  A    between atoms: C_21  and  N_22 
REMARK    7  A    between atoms: N_22  and  C_23 
REMARK    8  A    between atoms: C_23  and  N_24 
REMARK    9  A    between atoms: N_24  and  C_25 
REMARK   10  A    between atoms: C_27  and  C_28 
REMARK   11  A    between atoms: C_28  and  O_29 
ROOT
HETATM    1  C   UNL     1       7.270  26.309  54.968  1.00  0.00     0.067 C 
HETATM    2  C   UNL     1       6.491  25.569  56.073  1.00  0.00     0.001 C 
HETATM    3  C   UNL     1       5.308  26.402  56.607  1.00  0.00     0.040 C 
HETATM    4  C   UNL     1       5.770  27.718  57.251  1.00  0.00     0.206 C 
HETATM    5  N   UNL     1       7.255  27.870  56.924  1.00  0.00    -0.065 N 
HETATM    6  H   UNL     1       7.582  28.790  57.249  1.00  0.00     0.280 HD
HETATM    7  C   UNL     1       7.528  27.763  55.421  1.00  0.00     0.246 C 
HETATM    8  C   UNL     1       7.469  25.421  57.269  1.00  0.00     0.033 C 
HETATM    9  C   UNL     1       8.040  26.792  57.666  1.00  0.00     0.236 C 
ENDROOT
BRANCH   4  10
HETATM   10  C   UNL     1       4.941  28.949  56.817  1.00  0.00     0.155 C 
BRANCH  10  11
HETATM   11  N   UNL     1       4.427  29.712  57.955  1.00  0.00    -0.365 N 
HETATM   12  H   UNL     1       4.507  29.282  58.873  1.00  0.00     0.161 HD
BRANCH  11  13
HETATM   13  C   UNL     1       4.343  31.076  58.032  1.00  0.00     0.172 C 
HETATM   14  S   UNL     1       3.648  32.062  56.878  1.00  0.00    -0.041 SA
BRANCH  13  15
HETATM   15  N   UNL     1       4.898  31.674  59.128  1.00  0.00    -0.333 N 
HETATM   16  H   UNL     1       4.198  31.949  59.815  1.00  0.00     0.168 HD
BRANCH  15  17
HETATM   17  C   UNL     1       6.237  31.845  59.538  1.00  0.00     0.035 A 
HETATM   18  C   UNL     1       7.344  31.452  58.784  1.00  0.00     0.047 A 
HETATM   19  C   UNL     1       8.651  31.634  59.266  1.00  0.00     0.041 A 
HETATM   20  C   UNL     1       8.851  32.191  60.531  1.00  0.00     0.018 A 
HETATM   21  C   UNL     1       7.750  32.555  61.306  1.00  0.00     0.003 A 
HETATM   22  C   UNL     1       6.453  32.379  60.813  1.00  0.00     0.029 A 
BRANCH  19  23
HETATM   23  C   UNL     1       9.773  31.217  58.380  1.00  0.00     0.293 C 
HETATM   24  O   UNL     1      10.732  31.938  58.142  1.00  0.00    -0.259 OA
BRANCH  23  25
HETATM   25  O   UNL     1       9.573  29.967  57.905  1.00  0.00    -0.323 OA
HETATM   26  C   UNL     1      10.532  29.544  56.933  1.00  0.00     0.213 C 
ENDBRANCH  23  25
ENDBRANCH  19  23
ENDBRANCH  15  17
ENDBRANCH  13  15
ENDBRANCH  11  13
ENDBRANCH  10  11
ENDBRANCH   4  10
BRANCH   1  27
HETATM   27  C   UNL     1       6.847  26.235  53.526  1.00  0.00     0.038 C 
HETATM   28  N   UNL     1       7.083  25.293  52.548  1.00  0.00    -0.277 N 
HETATM   29  C   UNL     1       7.954  24.143  52.515  1.00  0.00     0.179 C 
HETATM   30  N   UNL     1       6.358  25.497  51.437  1.00  0.00    -0.172 NA
HETATM   31  C   UNL     1       5.778  26.688  51.592  1.00  0.00     0.089 C 
HETATM   32  C   UNL     1       6.061  27.186  52.883  1.00  0.00     0.061 C 
BRANCH  31  33
HETATM   33  C   UNL     1       4.952  27.289  50.547  1.00  0.00    -0.003 A 
HETATM   34  C   UNL     1       4.532  26.520  49.452  1.00  0.00     0.053 A 
HETATM   35  C   UNL     1       3.721  27.073  48.453  1.00  0.00     0.102 A 
HETATM   36  C   UNL     1       3.337  28.425  48.539  1.00  0.00     0.101 A 
HETATM   37  C   UNL     1       3.762  29.196  49.625  1.00  0.00     0.040 A 
HETATM   38  C   UNL     1       4.563  28.631  50.624  1.00  0.00     0.017 A 
BRANCH  35  39
HETATM   39  O   UNL     1       3.254  26.382  47.362  1.00  0.00    -0.353 OA
HETATM   40  C   UNL     1       2.956  25.002  47.532  1.00  0.00     0.210 C 
ENDBRANCH  35  39
BRANCH  36  41
HETATM   41  O   UNL     1       2.540  28.892  47.524  1.00  0.00    -0.353 OA
HETATM   42  C   UNL     1       3.012  29.999  46.769  1.00  0.00     0.210 C 
ENDBRANCH  36  41
ENDBRANCH  31  33
ENDBRANCH   1  27
TORSDOF 11
ENDMDL
MODEL 3
REMARK VINA RESULT:      -9.3      1.564      1.957
REMARK  11 active torsions:
REMARK  status: ('A' for Active; 'I' for Inactive)
REMARK    1  A    between atoms: C_4  and  C_5 
REMARK    2  A    between atoms: C_7  and  O_8 
REMARK    3  A    between atoms: C_10  and  O_11 
REMARK    4  A    between atoms: C_16  and  C_17 
REMARK    5  A    between atoms: C_20  and  C_21 
REMARK    6  A    between atoms: C_21  and  N_22 
REMARK    7  A    between atoms: N_22  and  C_23 
REMARK    8  A    between atoms: C_23  and  N_24 
REMARK    9  A    between atoms: N_24  and  C_25 
REMARK   10  A    between atoms: C_27  and  C_28 
REMARK   11  A    between atoms: C_28  and  O_29 
ROOT
HETATM    1  C   UNL     1       4.689  29.269  55.627  1.00  0.00     0.067 C 
HETATM    2  C   UNL     1       4.961  30.710  55.155  1.00  0.00     0.001 C 
HETATM    3  C   UNL     1       5.440  31.617  56.306  1.00  0.00     0.040 C 
HETATM    4  C   UNL     1       4.387  31.748  57.417  1.00  0.00     0.206 C 
HETATM    5  N   UNL     1       3.296  30.723  57.112  1.00  0.00    -0.065 N 
HETATM    6  H   UNL     1       2.620  30.705  57.888  1.00  0.00     0.280 HD
HETATM    7  C   UNL     1       3.864  29.313  56.933  1.00  0.00     0.246 C 
HETATM    8  C   UNL     1       3.590  31.288  54.713  1.00  0.00     0.033 C 
HETATM    9  C   UNL     1       2.559  31.145  55.844  1.00  0.00     0.236 C 
ENDROOT
BRANCH   4  10
HETATM   10  C   UNL     1       4.963  31.590  58.844  1.00  0.00     0.155 C 
BRANCH  10  11
HETATM   11  N   UNL     1       6.303  32.163  58.977  1.00  0.00    -0.365 N 
HETATM   12  H   UNL     1       6.444  33.098  58.604  1.00  0.00     0.161 HD
BRANCH  11  13
HETATM   13  C   UNL     1       7.210  31.858  59.955  1.00  0.00     0.172 C 
HETATM   14  S   UNL     1       8.869  31.863  59.762  1.00  0.00    -0.041 SA
BRANCH  13  15
HETATM   15  N   UNL     1       6.715  31.495  61.176  1.00  0.00    -0.333 N 
HETATM   16  H   UNL     1       6.461  30.510  61.212  1.00  0.00     0.168 HD
BRANCH  15  17
HETATM   17  C   UNL     1       6.630  32.180  62.406  1.00  0.00     0.035 A 
HETATM   18  C   UNL     1       5.437  32.645  62.963  1.00  0.00     0.047 A 
HETATM   19  C   UNL     1       5.429  33.341  64.184  1.00  0.00     0.041 A 
HETATM   20  C   UNL     1       6.635  33.597  64.841  1.00  0.00     0.018 A 
HETATM   21  C   UNL     1       7.834  33.166  64.276  1.00  0.00     0.003 A 
HETATM   22  C   UNL     1       7.830  32.466  63.065  1.00  0.00     0.029 A 
BRANCH  19  23
HETATM   23  C   UNL     1       4.109  33.770  64.720  1.00  0.00     0.293 C 
HETATM   24  O   UNL     1       3.106  33.852  64.025  1.00  0.00    -0.259 OA
BRANCH  23  25
HETATM   25  O   UNL     1       4.191  34.041  66.043  1.00  0.00    -0.323 OA
HETATM   26  C   UNL     1       3.403  35.155  66.467  1.00  0.00     0.213 C 
ENDBRANCH  23  25
ENDBRANCH  19  23
ENDBRANCH  15  17
ENDBRANCH  13  15
ENDBRANCH  11  13
ENDBRANCH  10  11
ENDBRANCH   4  10
BRANCH   1  27
HETATM   27  C   UNL     1       5.788  28.242  55.691  1.00  0.00     0.038 C 
HETATM   28  N   UNL     1       6.825  28.064  56.580  1.00  0.00    -0.277 N 
HETATM   29  C   UNL     1       7.321  28.892  57.654  1.00  0.00     0.179 C 
HETATM   30  N   UNL     1       7.475  26.903  56.403  1.00  0.00    -0.172 NA
HETATM   31  C   UNL     1       6.999  26.388  55.268  1.00  0.00     0.089 C 
HETATM   32  C   UNL     1       5.946  27.196  54.788  1.00  0.00     0.061 C 
BRANCH  31  33
HETATM   33  C   UNL     1       7.520  25.144  54.704  1.00  0.00    -0.003 A 
HETATM   34  C   UNL     1       8.025  24.144  55.550  1.00  0.00     0.053 A 
HETATM   35  C   UNL     1       8.506  22.937  55.030  1.00  0.00     0.102 A 
HETATM   36  C   UNL     1       8.501  22.730  53.636  1.00  0.00     0.101 A 
HETATM   37  C   UNL     1       8.007  23.728  52.792  1.00  0.00     0.040 A 
HETATM   38  C   UNL     1       7.518  24.927  53.322  1.00  0.00     0.017 A 
BRANCH  35  39
HETATM   39  O   UNL     1       8.997  21.905  55.791  1.00  0.00    -0.353 OA
HETATM   40  C   UNL     1       8.267  21.535  56.952  1.00  0.00     0.210 C 
ENDBRANCH  35  39
BRANCH  36  41
HETATM   41  O   UNL     1       8.986  21.521  53.204  1.00  0.00    -0.353 OA
HETATM   42  C   UNL     1       8.058  20.460  53.030  1.00  0.00     0.210 C 
ENDBRANCH  36  41
ENDBRANCH  31  33
ENDBRANCH   1  27
TORSDOF 11
ENDMDL
MODEL 4
REMARK VINA RESULT:      -9.2      4.187      6.528
REMARK  11 active torsions:
REMARK  status: ('A' for Active; 'I' for Inactive)
REMARK    1  A    between atoms: C_4  and  C_5 
REMARK    2  A    between atoms: C_7  and  O_8 
REMARK    3  A    between atoms: C_10  and  O_11 
REMARK    4  A    between atoms: C_16  and  C_17 
REMARK    5  A    between atoms: C_20  and  C_21 
REMARK    6  A    between atoms: C_21  and  N_22 
REMARK    7  A    between atoms: N_22  and  C_23 
REMARK    8  A    between atoms: C_23  and  N_24 
REMARK    9  A    between atoms: N_24  and  C_25 
REMARK   10  A    between atoms: C_27  and  C_28 
REMARK   11  A    between atoms: C_28  and  O_29 
ROOT
HETATM    1  C   UNL     1       7.159  26.209  55.130  1.00  0.00     0.067 C 
HETATM    2  C   UNL     1       6.351  25.605  56.295  1.00  0.00     0.001 C 
HETATM    3  C   UNL     1       5.229  26.549  56.774  1.00  0.00     0.040 C 
HETATM    4  C   UNL     1       5.780  27.879  57.311  1.00  0.00     0.206 C 
HETATM    5  N   UNL     1       7.266  27.912  56.960  1.00  0.00    -0.065 N 
HETATM    6  H   UNL     1       7.654  28.832  57.210  1.00  0.00     0.280 HD
HETATM    7  C   UNL     1       7.513  27.675  55.468  1.00  0.00     0.246 C 
HETATM    8  C   UNL     1       7.334  25.488  57.491  1.00  0.00     0.033 C 
HETATM    9  C   UNL     1       7.993  26.847  57.776  1.00  0.00     0.236 C 
ENDROOT
BRANCH   4  10
HETATM   10  C   UNL     1       5.022  29.122  56.790  1.00  0.00     0.155 C 
BRANCH  10  11
HETATM   11  N   UNL     1       4.326  29.845  57.855  1.00  0.00    -0.365 N 
HETATM   12  H   UNL     1       4.190  29.353  58.734  1.00  0.00     0.161 HD
BRANCH  11  13
HETATM   13  C   UNL     1       4.305  31.204  58.019  1.00  0.00     0.172 C 
HETATM   14  S   UNL     1       3.677  32.294  56.922  1.00  0.00    -0.041 SA
BRANCH  13  15
HETATM   15  N   UNL     1       4.867  31.704  59.160  1.00  0.00    -0.333 N 
HETATM   16  H   UNL     1       4.174  31.895  59.881  1.00  0.00     0.168 HD
BRANCH  15  17
HETATM   17  C   UNL     1       6.210  31.861  59.565  1.00  0.00     0.035 A 
HETATM   18  C   UNL     1       7.310  31.485  58.793  1.00  0.00     0.047 A 
HETATM   19  C   UNL     1       8.621  31.651  59.269  1.00  0.00     0.041 A 
HETATM   20  C   UNL     1       8.831  32.176  60.546  1.00  0.00     0.018 A 
HETATM   21  C   UNL     1       7.737  32.523  61.338  1.00  0.00     0.003 A 
HETATM   22  C   UNL     1       6.437  32.363  60.850  1.00  0.00     0.029 A 
BRANCH  19  23
HETATM   23  C   UNL     1       9.735  31.254  58.365  1.00  0.00     0.293 C 
HETATM   24  O   UNL     1      10.708  31.967  58.160  1.00  0.00    -0.259 OA
BRANCH  23  25
HETATM   25  O   UNL     1       9.512  30.031  57.834  1.00  0.00    -0.323 OA
HETATM   26  C   UNL     1      10.438  29.654  56.812  1.00  0.00     0.213 C 
ENDBRANCH  23  25
ENDBRANCH  19  23
ENDBRANCH  15  17
ENDBRANCH  13  15
ENDBRANCH  11  13
ENDBRANCH  10  11
ENDBRANCH   4  10
BRANCH   1  27
HETATM   27  C   UNL     1       6.713  26.052  53.701  1.00  0.00     0.038 C 
HETATM   28  N   UNL     1       6.578  24.939  52.900  1.00  0.00    -0.277 N 
HETATM   29  C   UNL     1       6.978  23.566  53.091  1.00  0.00     0.179 C 
HETATM   30  N   UNL     1       5.956  25.200  51.740  1.00  0.00    -0.172 NA
HETATM   31  C   UNL     1       5.845  26.529  51.675  1.00  0.00     0.089 C 
HETATM   32  C   UNL     1       6.311  27.100  52.880  1.00  0.00     0.061 C 
BRANCH  31  33
HETATM   33  C   UNL     1       5.273  27.202  50.511  1.00  0.00    -0.003 A 
HETATM   34  C   UNL     1       5.349  28.598  50.397  1.00  0.00     0.053 A 
HETATM   35  C   UNL     1       4.826  29.257  49.277  1.00  0.00     0.102 A 
HETATM   36  C   UNL     1       4.199  28.511  48.261  1.00  0.00     0.101 A 
HETATM   37  C   UNL     1       4.114  27.120  48.378  1.00  0.00     0.040 A 
HETATM   38  C   UNL     1       4.650  26.470  49.495  1.00  0.00     0.017 A 
BRANCH  35  39
HETATM   39  O   UNL     1       4.878  30.616  49.083  1.00  0.00    -0.353 OA
HETATM   40  C   UNL     1       4.023  31.430  49.874  1.00  0.00     0.210 C 
ENDBRANCH  35  39
BRANCH  36  41
HETATM   41  O   UNL     1       3.715  29.228  47.196  1.00  0.00    -0.353 OA
HETATM   42  C   UNL     1       2.310  29.406  47.101  1.00  0.00     0.210 C 
ENDBRANCH  36  41
ENDBRANCH  31  33
ENDBRANCH   1  27
TORSDOF 11
ENDMDL
MODEL 5
REMARK VINA RESULT:      -9.1      3.532      5.335
REMARK  11 active torsions:
REMARK  status: ('A' for Active; 'I' for Inactive)
REMARK    1  A    between atoms: C_4  and  C_5 
REMARK    2  A    between atoms: C_7  and  O_8 
REMARK    3  A    between atoms: C_10  and  O_11 
REMARK    4  A    between atoms: C_16  and  C_17 
REMARK    5  A    between atoms: C_20  and  C_21 
REMARK    6  A    between atoms: C_21  and  N_22 
REMARK    7  A    between atoms: N_22  and  C_23 
REMARK    8  A    between atoms: C_23  and  N_24 
REMARK    9  A    between atoms: N_24  and  C_25 
REMARK   10  A    between atoms: C_27  and  C_28 
REMARK   11  A    between atoms: C_28  and  O_29 
ROOT
HETATM    1  C   UNL     1       3.791  28.816  51.041  1.00  0.00     0.067 C 
HETATM    2  C   UNL     1       4.504  30.141  50.711  1.00  0.00     0.001 C 
HETATM    3  C   UNL     1       4.971  30.882  51.981  1.00  0.00     0.040 C 
HETATM    4  C   UNL     1       3.795  31.271  52.889  1.00  0.00     0.206 C 
HETATM    5  N   UNL     1       2.558  30.569  52.332  1.00  0.00    -0.065 N 
HETATM    6  H   UNL     1       1.765  30.719  52.971  1.00  0.00     0.280 HD
HETATM    7  C   UNL     1       2.772  29.061  52.176  1.00  0.00     0.246 C 
HETATM    8  C   UNL     1       3.435  31.061  50.063  1.00  0.00     0.033 C 
HETATM    9  C   UNL     1       2.206  31.181  50.979  1.00  0.00     0.236 C 
ENDROOT
BRANCH   4  10
HETATM   10  C   UNL     1       4.031  30.955  54.385  1.00  0.00     0.155 C 
BRANCH  10  11
HETATM   11  N   UNL     1       5.315  30.297  54.625  1.00  0.00    -0.365 N 
HETATM   12  H   UNL     1       6.128  30.685  54.154  1.00  0.00     0.161 HD
BRANCH  11  13
HETATM   13  C   UNL     1       5.660  29.601  55.752  1.00  0.00     0.172 C 
HETATM   14  S   UNL     1       4.687  29.406  57.096  1.00  0.00    -0.041 SA
BRANCH  13  15
HETATM   15  N   UNL     1       6.909  29.048  55.787  1.00  0.00    -0.333 N 
HETATM   16  H   UNL     1       6.997  28.252  55.158  1.00  0.00     0.168 HD
BRANCH  15  17
HETATM   17  C   UNL     1       8.109  29.455  56.408  1.00  0.00     0.035 A 
HETATM   18  C   UNL     1       8.175  30.070  57.659  1.00  0.00     0.047 A 
HETATM   19  C   UNL     1       9.405  30.470  58.207  1.00  0.00     0.041 A 
HETATM   20  C   UNL     1      10.581  30.276  57.479  1.00  0.00     0.018 A 
HETATM   21  C   UNL     1      10.522  29.693  56.214  1.00  0.00     0.003 A 
HETATM   22  C   UNL     1       9.293  29.290  55.682  1.00  0.00     0.029 A 
BRANCH  19  23
HETATM   23  C   UNL     1       9.385  31.087  59.561  1.00  0.00     0.293 C 
HETATM   24  O   UNL     1       9.779  32.225  59.777  1.00  0.00    -0.259 OA
BRANCH  23  25
HETATM   25  O   UNL     1       8.880  30.228  60.475  1.00  0.00    -0.323 OA
HETATM   26  C   UNL     1       9.319  30.464  61.814  1.00  0.00     0.213 C 
ENDBRANCH  23  25
ENDBRANCH  19  23
ENDBRANCH  15  17
ENDBRANCH  13  15
ENDBRANCH  11  13
ENDBRANCH  10  11
ENDBRANCH   4  10
BRANCH   1  27
HETATM   27  C   UNL     1       4.561  27.538  51.241  1.00  0.00     0.038 C 
HETATM   28  N   UNL     1       4.936  26.547  50.361  1.00  0.00    -0.277 N 
HETATM   29  C   UNL     1       4.577  26.299  48.985  1.00  0.00     0.179 C 
HETATM   30  N   UNL     1       5.793  25.665  50.899  1.00  0.00    -0.172 NA
HETATM   31  C   UNL     1       5.845  25.952  52.201  1.00  0.00     0.089 C 
HETATM   32  C   UNL     1       5.085  27.115  52.458  1.00  0.00     0.061 C 
BRANCH  31  33
HETATM   33  C   UNL     1       6.633  25.155  53.139  1.00  0.00    -0.003 A 
HETATM   34  C   UNL     1       6.548  25.401  54.517  1.00  0.00     0.053 A 
HETATM   35  C   UNL     1       7.278  24.632  55.432  1.00  0.00     0.102 A 
HETATM   36  C   UNL     1       8.124  23.609  54.960  1.00  0.00     0.101 A 
HETATM   37  C   UNL     1       8.216  23.369  53.586  1.00  0.00     0.040 A 
HETATM   38  C   UNL     1       7.474  24.135  52.681  1.00  0.00     0.017 A 
BRANCH  35  39
HETATM   39  O   UNL     1       7.234  24.798  56.794  1.00  0.00    -0.353 OA
HETATM   40  C   UNL     1       6.385  25.815  57.309  1.00  0.00     0.210 C 
ENDBRANCH  35  39
BRANCH  36  41
HETATM   41  O   UNL     1       8.803  22.898  55.918  1.00  0.00    -0.353 OA
HETATM   42  C   UNL     1       8.461  21.531  56.094  1.00  0.00     0.210 C 
ENDBRANCH  36  41
ENDBRANCH  31  33
ENDBRANCH   1  27
TORSDOF 11
ENDMDL
MODEL 6
REMARK VINA RESULT:      -8.9      2.393     11.380
REMARK  11 active torsions:
REMARK  status: ('A' for Active; 'I' for Inactive)
REMARK    1  A    between atoms: C_4  and  C_5 
REMARK    2  A    between atoms: C_7  and  O_8 
REMARK    3  A    between atoms: C_10  and  O_11 
REMARK    4  A    between atoms: C_16  and  C_17 
REMARK    5  A    between atoms: C_20  and  C_21 
REMARK    6  A    between atoms: C_21  and  N_22 
REMARK    7  A    between atoms: N_22  and  C_23 
REMARK    8  A    between atoms: C_23  and  N_24 
REMARK    9  A    between atoms: N_24  and  C_25 
REMARK   10  A    between atoms: C_27  and  C_28 
REMARK   11  A    between atoms: C_28  and  O_29 
ROOT
HETATM    1  C   UNL     1       7.789  29.315  58.220  1.00  0.00     0.067 C 
HETATM    2  C   UNL     1       8.670  29.440  56.963  1.00  0.00     0.001 C 
HETATM    3  C   UNL     1       7.831  29.603  55.679  1.00  0.00     0.040 C 
HETATM    4  C   UNL     1       6.927  28.388  55.419  1.00  0.00     0.206 C 
HETATM    5  N   UNL     1       6.990  27.517  56.673  1.00  0.00    -0.065 N 
HETATM    6  H   UNL     1       6.318  26.743  56.583  1.00  0.00     0.280 HD
HETATM    7  C   UNL     1       6.652  28.306  57.941  1.00  0.00     0.246 C 
HETATM    8  C   UNL     1       9.404  28.080  56.809  1.00  0.00     0.033 C 
HETATM    9  C   UNL     1       8.391  26.924  56.795  1.00  0.00     0.236 C 
ENDROOT
BRANCH   4  10
HETATM   10  C   UNL     1       5.477  28.762  55.032  1.00  0.00     0.155 C 
BRANCH  10  11
HETATM   11  N   UNL     1       4.655  27.591  54.729  1.00  0.00    -0.365 N 
HETATM   12  H   UNL     1       3.682  27.621  55.023  1.00  0.00     0.161 HD
BRANCH  11  13
HETATM   13  C   UNL     1       4.849  26.724  53.687  1.00  0.00     0.172 C 
HETATM   14  S   UNL     1       4.851  27.147  52.072  1.00  0.00    -0.041 SA
BRANCH  13  15
HETATM   15  N   UNL     1       5.027  25.405  53.998  1.00  0.00    -0.333 N 
HETATM   16  H   UNL     1       4.144  24.922  54.156  1.00  0.00     0.168 HD
BRANCH  15  17
HETATM   17  C   UNL     1       6.169  24.577  53.996  1.00  0.00     0.035 A 
HETATM   18  C   UNL     1       6.765  24.062  55.149  1.00  0.00     0.047 A 
HETATM   19  C   UNL     1       7.916  23.260  55.074  1.00  0.00     0.041 A 
HETATM   20  C   UNL     1       8.493  22.994  53.830  1.00  0.00     0.018 A 
HETATM   21  C   UNL     1       7.925  23.532  52.676  1.00  0.00     0.003 A 
HETATM   22  C   UNL     1       6.773  24.320  52.761  1.00  0.00     0.029 A 
BRANCH  19  23
HETATM   23  C   UNL     1       8.464  22.725  56.350  1.00  0.00     0.293 C 
HETATM   24  O   UNL     1       8.555  23.400  57.366  1.00  0.00    -0.259 OA
BRANCH  23  25
HETATM   25  O   UNL     1       8.827  21.429  56.214  1.00  0.00    -0.323 OA
HETATM   26  C   UNL     1       7.735  20.508  56.207  1.00  0.00     0.213 C 
ENDBRANCH  23  25
ENDBRANCH  19  23
ENDBRANCH  15  17
ENDBRANCH  13  15
ENDBRANCH  11  13
ENDBRANCH  10  11
ENDBRANCH   4  10
BRANCH   1  27
HETATM   27  C   UNL     1       7.294  30.530  58.957  1.00  0.00     0.038 C 
HETATM   28  N   UNL     1       6.405  31.520  58.598  1.00  0.00    -0.277 N 
HETATM   29  C   UNL     1       5.774  31.833  57.338  1.00  0.00     0.179 C 
HETATM   30  N   UNL     1       6.076  32.325  59.621  1.00  0.00    -0.172 NA
HETATM   31  C   UNL     1       6.893  31.996  60.623  1.00  0.00     0.089 C 
HETATM   32  C   UNL     1       7.674  30.881  60.248  1.00  0.00     0.061 C 
BRANCH  31  33
HETATM   33  C   UNL     1       6.879  32.708  61.899  1.00  0.00    -0.003 A 
HETATM   34  C   UNL     1       5.981  33.766  62.105  1.00  0.00     0.053 A 
HETATM   35  C   UNL     1       5.938  34.445  63.329  1.00  0.00     0.102 A 
HETATM   36  C   UNL     1       6.822  34.073  64.361  1.00  0.00     0.101 A 
HETATM   37  C   UNL     1       7.724  33.026  64.154  1.00  0.00     0.040 A 
HETATM   38  C   UNL     1       7.751  32.346  62.931  1.00  0.00     0.017 A 
BRANCH  35  39
HETATM   39  O   UNL     1       5.077  35.475  63.615  1.00  0.00    -0.353 OA
HETATM   40  C   UNL     1       3.684  35.234  63.462  1.00  0.00     0.210 C 
ENDBRANCH  35  39
BRANCH  36  41
HETATM   41  O   UNL     1       6.717  34.783  65.531  1.00  0.00    -0.353 OA
HETATM   42  C   UNL     1       6.031  34.175  66.615  1.00  0.00     0.210 C 
ENDBRANCH  36  41
ENDBRANCH  31  33
ENDBRANCH   1  27
TORSDOF 11
ENDMDL
MODEL 7
REMARK VINA RESULT:      -8.9      5.145      9.095
REMARK  11 active torsions:
REMARK  status: ('A' for Active; 'I' for Inactive)
REMARK    1  A    between atoms: C_4  and  C_5 
REMARK    2  A    between atoms: C_7  and  O_8 
REMARK    3  A    between atoms: C_10  and  O_11 
REMARK    4  A    between atoms: C_16  and  C_17 
REMARK    5  A    between atoms: C_20  and  C_21 
REMARK    6  A    between atoms: C_21  and  N_22 
REMARK    7  A    between atoms: N_22  and  C_23 
REMARK    8  A    between atoms: C_23  and  N_24 
REMARK    9  A    between atoms: N_24  and  C_25 
REMARK   10  A    between atoms: C_27  and  C_28 
REMARK   11  A    between atoms: C_28  and  O_29 
ROOT
HETATM    1  C   UNL     1       3.665  30.503  55.445  1.00  0.00     0.067 C 
HETATM    2  C   UNL     1       4.480  31.598  56.160  1.00  0.00     0.001 C 
HETATM    3  C   UNL     1       5.934  31.159  56.428  1.00  0.00     0.040 C 
HETATM    4  C   UNL     1       6.007  29.933  57.352  1.00  0.00     0.206 C 
HETATM    5  N   UNL     1       4.580  29.409  57.501  1.00  0.00    -0.065 N 
HETATM    6  H   UNL     1       4.596  28.526  58.030  1.00  0.00     0.280 HD
HETATM    7  C   UNL     1       3.915  29.149  56.147  1.00  0.00     0.246 C 
HETATM    8  C   UNL     1       3.835  31.776  57.560  1.00  0.00     0.033 C 
HETATM    9  C   UNL     1       3.758  30.425  58.290  1.00  0.00     0.236 C 
ENDROOT
BRANCH   4  10
HETATM   10  C   UNL     1       6.988  28.842  56.862  1.00  0.00     0.155 C 
BRANCH  10  11
HETATM   11  N   UNL     1       6.747  27.544  57.491  1.00  0.00    -0.365 N 
HETATM   12  H   UNL     1       6.310  27.549  58.409  1.00  0.00     0.161 HD
BRANCH  11  13
HETATM   13  C   UNL     1       6.543  26.360  56.834  1.00  0.00     0.172 C 
HETATM   14  S   UNL     1       5.149  25.446  56.912  1.00  0.00    -0.041 SA
BRANCH  13  15
HETATM   15  N   UNL     1       7.575  25.881  56.077  1.00  0.00    -0.333 N 
HETATM   16  H   UNL     1       8.482  26.049  56.509  1.00  0.00     0.168 HD
BRANCH  15  17
HETATM   17  C   UNL     1       7.607  25.087  54.911  1.00  0.00     0.035 A 
HETATM   18  C   UNL     1       7.774  23.702  54.911  1.00  0.00     0.047 A 
HETATM   19  C   UNL     1       7.818  22.976  53.709  1.00  0.00     0.041 A 
HETATM   20  C   UNL     1       7.721  23.652  52.490  1.00  0.00     0.018 A 
HETATM   21  C   UNL     1       7.588  25.040  52.479  1.00  0.00     0.003 A 
HETATM   22  C   UNL     1       7.535  25.751  53.682  1.00  0.00     0.029 A 
BRANCH  19  23
HETATM   23  C   UNL     1       7.965  21.498  53.804  1.00  0.00     0.293 C 
HETATM   24  O   UNL     1       8.364  20.811  52.874  1.00  0.00    -0.259 OA
BRANCH  23  25
HETATM   25  O   UNL     1       7.607  21.056  55.030  1.00  0.00    -0.323 OA
HETATM   26  C   UNL     1       8.605  20.274  55.690  1.00  0.00     0.213 C 
ENDBRANCH  23  25
ENDBRANCH  19  23
ENDBRANCH  15  17
ENDBRANCH  13  15
ENDBRANCH  11  13
ENDBRANCH  10  11
ENDBRANCH   4  10
BRANCH   1  27
HETATM   27  C   UNL     1       3.673  30.370  53.946  1.00  0.00     0.038 C 
HETATM   28  N   UNL     1       3.773  31.310  52.943  1.00  0.00    -0.277 N 
HETATM   29  C   UNL     1       3.731  32.752  52.972  1.00  0.00     0.179 C 
HETATM   30  N   UNL     1       3.946  30.764  51.729  1.00  0.00    -0.172 NA
HETATM   31  C   UNL     1       3.767  29.451  51.888  1.00  0.00     0.089 C 
HETATM   32  C   UNL     1       3.590  29.163  53.260  1.00  0.00     0.061 C 
BRANCH  31  33
HETATM   33  C   UNL     1       3.811  28.522  50.762  1.00  0.00    -0.003 A 
HETATM   34  C   UNL     1       3.010  28.745  49.632  1.00  0.00     0.053 A 
HETATM   35  C   UNL     1       3.056  27.878  48.534  1.00  0.00     0.102 A 
HETATM   36  C   UNL     1       3.906  26.754  48.572  1.00  0.00     0.101 A 
HETATM   37  C   UNL     1       4.697  26.525  49.700  1.00  0.00     0.040 A 
HETATM   38  C   UNL     1       4.652  27.404  50.788  1.00  0.00     0.017 A 
BRANCH  35  39
HETATM   39  O   UNL     1       2.319  28.039  47.387  1.00  0.00    -0.353 OA
HETATM   40  C   UNL     1       0.915  27.839  47.470  1.00  0.00     0.210 C 
ENDBRANCH  35  39
BRANCH  36  41
HETATM   41  O   UNL     1       3.897  25.954  47.457  1.00  0.00    -0.353 OA
HETATM   42  C   UNL     1       3.110  24.773  47.496  1.00  0.00     0.210 C 
ENDBRANCH  36  41
ENDBRANCH  31  33
ENDBRANCH   1  27
TORSDOF 11
ENDMDL
MODEL 8
REMARK VINA RESULT:      -8.8      1.910     11.491
REMARK  11 active torsions:
REMARK  status: ('A' for Active; 'I' for Inactive)
REMARK    1  A    between atoms: C_4  and  C_5 
REMARK    2  A    between atoms: C_7  and  O_8 
REMARK    3  A    between atoms: C_10  and  O_11 
REMARK    4  A    between atoms: C_16  and  C_17 
REMARK    5  A    between atoms: C_20  and  C_21 
REMARK    6  A    between atoms: C_21  and  N_22 
REMARK    7  A    between atoms: N_22  and  C_23 
REMARK    8  A    between atoms: C_23  and  N_24 
REMARK    9  A    between atoms: N_24  and  C_25 
REMARK   10  A    between atoms: C_27  and  C_28 
REMARK   11  A    between atoms: C_28  and  O_29 
ROOT
HETATM    1  C   UNL     1       4.807  31.745  57.222  1.00  0.00     0.067 C 
HETATM    2  C   UNL     1       3.537  30.877  57.142  1.00  0.00     0.001 C 
HETATM    3  C   UNL     1       3.843  29.442  56.665  1.00  0.00     0.040 C 
HETATM    4  C   UNL     1       4.439  29.418  55.248  1.00  0.00     0.206 C 
HETATM    5  N   UNL     1       4.754  30.867  54.879  1.00  0.00    -0.065 N 
HETATM    6  H   UNL     1       5.251  30.888  53.978  1.00  0.00     0.280 HD
HETATM    7  C   UNL     1       5.633  31.551  55.930  1.00  0.00     0.246 C 
HETATM    8  C   UNL     1       2.651  31.504  56.033  1.00  0.00     0.033 C 
HETATM    9  C   UNL     1       3.445  31.636  54.724  1.00  0.00     0.236 C 
ENDROOT
BRANCH   4  10
HETATM   10  C   UNL     1       5.668  28.491  55.105  1.00  0.00     0.155 C 
BRANCH  10  11
HETATM   11  N   UNL     1       5.489  27.208  55.784  1.00  0.00    -0.365 N 
HETATM   12  H   UNL     1       4.613  26.717  55.620  1.00  0.00     0.161 HD
BRANCH  11  13
HETATM   13  C   UNL     1       6.490  26.357  56.165  1.00  0.00     0.172 C 
HETATM   14  S   UNL     1       7.892  26.813  56.949  1.00  0.00    -0.041 SA
BRANCH  13  15
HETATM   15  N   UNL     1       6.339  25.035  55.853  1.00  0.00    -0.333 N 
HETATM   16  H   UNL     1       5.607  24.589  56.403  1.00  0.00     0.168 HD
BRANCH  15  17
HETATM   17  C   UNL     1       6.895  24.232  54.834  1.00  0.00     0.035 A 
HETATM   18  C   UNL     1       7.235  22.888  54.995  1.00  0.00     0.047 A 
HETATM   19  C   UNL     1       7.806  22.154  53.941  1.00  0.00     0.041 A 
HETATM   20  C   UNL     1       8.064  22.782  52.721  1.00  0.00     0.018 A 
HETATM   21  C   UNL     1       7.758  24.133  52.562  1.00  0.00     0.003 A 
HETATM   22  C   UNL     1       7.181  24.852  53.614  1.00  0.00     0.029 A 
BRANCH  19  23
HETATM   23  C   UNL     1       8.106  20.717  54.190  1.00  0.00     0.293 C 
HETATM   24  O   UNL     1       8.474  19.955  53.307  1.00  0.00    -0.259 OA
BRANCH  23  25
HETATM   25  O   UNL     1       7.918  20.404  55.492  1.00  0.00    -0.323 OA
HETATM   26  C   UNL     1       9.121  20.312  56.257  1.00  0.00     0.213 C 
ENDBRANCH  23  25
ENDBRANCH  19  23
ENDBRANCH  15  17
ENDBRANCH  13  15
ENDBRANCH  11  13
ENDBRANCH  10  11
ENDBRANCH   4  10
BRANCH   1  27
HETATM   27  C   UNL     1       5.678  31.753  58.450  1.00  0.00     0.038 C 
HETATM   28  N   UNL     1       6.914  31.197  58.701  1.00  0.00    -0.277 N 
HETATM   29  C   UNL     1       7.723  30.276  57.940  1.00  0.00     0.179 C 
HETATM   30  N   UNL     1       7.445  31.604  59.864  1.00  0.00    -0.172 NA
HETATM   31  C   UNL     1       6.481  32.283  60.490  1.00  0.00     0.089 C 
HETATM   32  C   UNL     1       5.357  32.395  59.641  1.00  0.00     0.061 C 
BRANCH  31  33
HETATM   33  C   UNL     1       6.666  32.830  61.832  1.00  0.00    -0.003 A 
HETATM   34  C   UNL     1       5.876  33.904  62.269  1.00  0.00     0.053 A 
HETATM   35  C   UNL     1       6.023  34.426  63.560  1.00  0.00     0.102 A 
HETATM   36  C   UNL     1       6.990  33.878  64.426  1.00  0.00     0.101 A 
HETATM   37  C   UNL     1       7.784  32.813  63.988  1.00  0.00     0.040 A 
HETATM   38  C   UNL     1       7.621  32.292  62.700  1.00  0.00     0.017 A 
BRANCH  35  39
HETATM   39  O   UNL     1       5.277  35.461  64.068  1.00  0.00    -0.353 OA
HETATM   40  C   UNL     1       4.008  35.712  63.480  1.00  0.00     0.210 C 
ENDBRANCH  35  39
BRANCH  36  41
HETATM   41  O   UNL     1       7.072  34.441  65.674  1.00  0.00    -0.353 OA
HETATM   42  C   UNL     1       6.104  34.055  66.639  1.00  0.00     0.210 C 
ENDBRANCH  36  41
ENDBRANCH  31  33
ENDBRANCH   1  27
TORSDOF 11
ENDMDL
MODEL 9
REMARK VINA RESULT:      -8.6      2.891      4.307
REMARK  11 active torsions:
REMARK  status: ('A' for Active; 'I' for Inactive)
REMARK    1  A    between atoms: C_4  and  C_5 
REMARK    2  A    between atoms: C_7  and  O_8 
REMARK    3  A    between atoms: C_10  and  O_11 
REMARK    4  A    between atoms: C_16  and  C_17 
REMARK    5  A    between atoms: C_20  and  C_21 
REMARK    6  A    between atoms: C_21  and  N_22 
REMARK    7  A    between atoms: N_22  and  C_23 
REMARK    8  A    between atoms: C_23  and  N_24 
REMARK    9  A    between atoms: N_24  and  C_25 
REMARK   10  A    between atoms: C_27  and  C_28 
REMARK   11  A    between atoms: C_28  and  O_29 
ROOT
HETATM    1  C   UNL     1       5.328  30.575  57.241  1.00  0.00     0.067 C 
HETATM    2  C   UNL     1       5.793  32.043  57.191  1.00  0.00     0.001 C 
HETATM    3  C   UNL     1       5.949  32.651  58.600  1.00  0.00     0.040 C 
HETATM    4  C   UNL     1       4.620  32.675  59.371  1.00  0.00     0.206 C 
HETATM    5  N   UNL     1       3.624  31.853  58.555  1.00  0.00    -0.065 N 
HETATM    6  H   UNL     1       2.748  31.756  59.086  1.00  0.00     0.280 HD
HETATM    7  C   UNL     1       4.154  30.452  58.238  1.00  0.00     0.246 C 
HETATM    8  C   UNL     1       4.644  32.841  56.519  1.00  0.00     0.033 C 
HETATM    9  C   UNL     1       3.318  32.592  57.255  1.00  0.00     0.236 C 
ENDROOT
BRANCH   4  10
HETATM   10  C   UNL     1       4.738  32.180  60.831  1.00  0.00     0.155 C 
BRANCH  10  11
HETATM   11  N   UNL     1       5.443  33.128  61.693  1.00  0.00    -0.365 N 
HETATM   12  H   UNL     1       5.227  34.114  61.569  1.00  0.00     0.161 HD
BRANCH  11  13
HETATM   13  C   UNL     1       5.932  32.864  62.944  1.00  0.00     0.172 C 
HETATM   14  S   UNL     1       7.525  32.508  63.297  1.00  0.00    -0.041 SA
BRANCH  13  15
HETATM   15  N   UNL     1       5.038  32.866  63.976  1.00  0.00    -0.333 N 
HETATM   16  H   UNL     1       4.512  31.995  64.034  1.00  0.00     0.168 HD
BRANCH  15  17
HETATM   17  C   UNL     1       4.817  33.768  65.039  1.00  0.00     0.035 A 
HETATM   18  C   UNL     1       5.571  33.794  66.213  1.00  0.00     0.047 A 
HETATM   19  C   UNL     1       5.281  34.708  67.241  1.00  0.00     0.041 A 
HETATM   20  C   UNL     1       4.205  35.587  67.101  1.00  0.00     0.018 A 
HETATM   21  C   UNL     1       3.426  35.545  65.946  1.00  0.00     0.003 A 
HETATM   22  C   UNL     1       3.729  34.639  64.925  1.00  0.00     0.029 A 
BRANCH  19  23
HETATM   23  C   UNL     1       6.158  34.688  68.443  1.00  0.00     0.293 C 
HETATM   24  O   UNL     1       7.379  34.730  68.374  1.00  0.00    -0.259 OA
BRANCH  23  25
HETATM   25  O   UNL     1       5.422  34.624  69.576  1.00  0.00    -0.323 OA
HETATM   26  C   UNL     1       6.185  34.702  70.782  1.00  0.00     0.213 C 
ENDBRANCH  23  25
ENDBRANCH  19  23
ENDBRANCH  15  17
ENDBRANCH  13  15
ENDBRANCH  11  13
ENDBRANCH  10  11
ENDBRANCH   4  10
BRANCH   1  27
HETATM   27  C   UNL     1       6.310  29.444  57.385  1.00  0.00     0.038 C 
HETATM   28  N   UNL     1       7.405  29.280  58.206  1.00  0.00    -0.277 N 
HETATM   29  C   UNL     1       8.090  30.196  59.085  1.00  0.00     0.179 C 
HETATM   30  N   UNL     1       7.904  28.034  58.171  1.00  0.00    -0.172 NA
HETATM   31  C   UNL     1       7.265  27.412  57.179  1.00  0.00     0.089 C 
HETATM   32  C   UNL     1       6.263  28.260  56.658  1.00  0.00     0.061 C 
BRANCH  31  33
HETATM   33  C   UNL     1       7.590  26.041  56.789  1.00  0.00    -0.003 A 
HETATM   34  C   UNL     1       7.110  25.521  55.578  1.00  0.00     0.053 A 
HETATM   35  C   UNL     1       7.431  24.218  55.178  1.00  0.00     0.102 A 
HETATM   36  C   UNL     1       8.231  23.412  56.011  1.00  0.00     0.101 A 
HETATM   37  C   UNL     1       8.702  23.926  57.223  1.00  0.00     0.040 A 
HETATM   38  C   UNL     1       8.386  25.233  57.608  1.00  0.00     0.017 A 
BRANCH  35  39
HETATM   39  O   UNL     1       7.017  23.644  54.001  1.00  0.00    -0.353 OA
HETATM   40  C   UNL     1       6.113  24.381  53.189  1.00  0.00     0.210 C 
ENDBRANCH  35  39
BRANCH  36  41
HETATM   41  O   UNL     1       8.503  22.149  55.549  1.00  0.00    -0.353 OA
HETATM   42  C   UNL     1       8.554  21.093  56.497  1.00  0.00     0.210 C 
ENDBRANCH  36  41
ENDBRANCH  31  33
ENDBRANCH   1  27
TORSDOF 11
ENDMDL
MODEL 10
REMARK VINA RESULT:      -8.6      4.742      9.218
REMARK  11 active torsions:
REMARK  status: ('A' for Active; 'I' for Inactive)
REMARK    1  A    between atoms: C_4  and  C_5 
REMARK    2  A    between atoms: C_7  and  O_8 
REMARK    3  A    between atoms: C_10  and  O_11 
REMARK    4  A    between atoms: C_16  and  C_17 
REMARK    5  A    between atoms: C_20  and  C_21 
REMARK    6  A    between atoms: C_21  and  N_22 
REMARK    7  A    between atoms: N_22  and  C_23 
REMARK    8  A    between atoms: C_23  and  N_24 
REMARK    9  A    between atoms: N_24  and  C_25 
REMARK   10  A    between atoms: C_27  and  C_28 
REMARK   11  A    between atoms: C_28  and  O_29 
ROOT
HETATM    1  C   UNL     1       5.619  30.396  57.688  1.00  0.00     0.067 C 
HETATM    2  C   UNL     1       4.114  30.088  57.808  1.00  0.00     0.001 C 
HETATM    3  C   UNL     1       3.430  29.989  56.428  1.00  0.00     0.040 C 
HETATM    4  C   UNL     1       3.511  31.310  55.646  1.00  0.00     0.206 C 
HETATM    5  N   UNL     1       4.469  32.218  56.415  1.00  0.00    -0.065 N 
HETATM    6  H   UNL     1       4.633  33.077  55.872  1.00  0.00     0.280 HD
HETATM    7  C   UNL     1       5.819  31.545  56.675  1.00  0.00     0.246 C 
HETATM    8  C   UNL     1       3.472  31.319  58.502  1.00  0.00     0.033 C 
HETATM    9  C   UNL     1       3.825  32.607  57.743  1.00  0.00     0.236 C 
ENDROOT
BRANCH   4  10
HETATM   10  C   UNL     1       3.925  31.132  54.166  1.00  0.00     0.155 C 
BRANCH  10  11
HETATM   11  N   UNL     1       4.818  29.992  53.964  1.00  0.00    -0.365 N 
HETATM   12  H   UNL     1       5.364  29.685  54.764  1.00  0.00     0.161 HD
BRANCH  11  13
HETATM   13  C   UNL     1       4.640  28.988  53.049  1.00  0.00     0.172 C 
HETATM   14  S   UNL     1       4.553  27.361  53.414  1.00  0.00    -0.041 SA
BRANCH  13  15
HETATM   15  N   UNL     1       4.557  29.350  51.734  1.00  0.00    -0.333 N 
HETATM   16  H   UNL     1       5.279  30.019  51.471  1.00  0.00     0.168 HD
BRANCH  15  17
HETATM   17  C   UNL     1       3.769  28.869  50.667  1.00  0.00     0.035 A 
HETATM   18  C   UNL     1       4.263  28.099  49.614  1.00  0.00     0.047 A 
HETATM   19  C   UNL     1       3.424  27.672  48.571  1.00  0.00     0.041 A 
HETATM   20  C   UNL     1       2.078  28.047  48.570  1.00  0.00     0.018 A 
HETATM   21  C   UNL     1       1.583  28.845  49.600  1.00  0.00     0.003 A 
HETATM   22  C   UNL     1       2.425  29.255  50.639  1.00  0.00     0.029 A 
BRANCH  19  23
HETATM   23  C   UNL     1       4.027  26.826  47.506  1.00  0.00     0.293 C 
HETATM   24  O   UNL     1       5.201  26.917  47.173  1.00  0.00    -0.259 OA
BRANCH  23  25
HETATM   25  O   UNL     1       3.112  25.974  46.990  1.00  0.00    -0.323 OA
HETATM   26  C   UNL     1       3.005  24.730  47.686  1.00  0.00     0.213 C 
ENDBRANCH  23  25
ENDBRANCH  19  23
ENDBRANCH  15  17
ENDBRANCH  13  15
ENDBRANCH  11  13
ENDBRANCH  10  11
ENDBRANCH   4  10
BRANCH   1  27
HETATM   27  C   UNL     1       6.633  29.300  57.504  1.00  0.00     0.038 C 
HETATM   28  N   UNL     1       7.919  29.152  57.978  1.00  0.00    -0.277 N 
HETATM   29  C   UNL     1       8.798  30.066  58.666  1.00  0.00     0.179 C 
HETATM   30  N   UNL     1       8.423  27.929  57.753  1.00  0.00    -0.172 NA
HETATM   31  C   UNL     1       7.548  27.313  56.955  1.00  0.00     0.089 C 
HETATM   32  C   UNL     1       6.416  28.138  56.771  1.00  0.00     0.061 C 
BRANCH  31  33
HETATM   33  C   UNL     1       7.788  25.969  56.434  1.00  0.00    -0.003 A 
HETATM   34  C   UNL     1       7.659  25.713  55.060  1.00  0.00     0.053 A 
HETATM   35  C   UNL     1       7.908  24.437  54.541  1.00  0.00     0.102 A 
HETATM   36  C   UNL     1       8.275  23.391  55.411  1.00  0.00     0.101 A 
HETATM   37  C   UNL     1       8.396  23.643  56.780  1.00  0.00     0.040 A 
HETATM   38  C   UNL     1       8.156  24.924  57.288  1.00  0.00     0.017 A 
BRANCH  35  39
HETATM   39  O   UNL     1       7.821  24.111  53.210  1.00  0.00    -0.353 OA
HETATM   40  C   UNL     1       7.559  25.161  52.288  1.00  0.00     0.210 C 
ENDBRANCH  35  39
BRANCH  36  41
HETATM   41  O   UNL     1       8.504  22.172  54.825  1.00  0.00    -0.353 OA
HETATM   42  C   UNL     1       9.089  21.154  55.624  1.00  0.00     0.210 C 
ENDBRANCH  36  41
ENDBRANCH  31  33
ENDBRANCH   1  27
TORSDOF 11
ENDMDL
