MODEL 1
REMARK VINA RESULT:      -8.7      0.000      0.000
REMARK  8 active torsions:
REMARK  status: ('A' for Active; 'I' for Inactive)
REMARK       I    between atoms: N_2  and  C_3 
REMARK       I    between atoms: C_3  and  N_4 
REMARK       I    between atoms: N_4  and  C_5 
REMARK    1  A    between atoms: C_5  and  C_6 
REMARK    2  A    between atoms: C_6  and  N_7 
REMARK    3  A    between atoms: N_7  and  C_8 
REMARK    4  A    between atoms: C_9  and  C_10 
REMARK       I    between atoms: C_10  and  N_11 
REMARK    5  A    between atoms: N_11  and  C_12 
REMARK    6  A    between atoms: C_12  and  C_13 
REMARK    7  A    between atoms: C_13  and  C_14 
REMARK    8  A    between atoms: C_17  and  O_18 
ROOT
HETATM    1  C   UNL     1       7.939  23.259  53.815  1.00  0.00     0.024 A 
HETATM    2  C   UNL     1       7.633  22.876  55.140  1.00  0.00     0.053 A 
HETATM    3  C   UNL     1       7.623  21.516  55.499  1.00  0.00     0.019 A 
HETATM    4  C   UNL     1       7.907  20.534  54.552  1.00  0.00     0.001 A 
HETATM    5  C   UNL     1       8.198  20.901  53.242  1.00  0.00     0.002 A 
HETATM    6  C   UNL     1       8.208  22.249  52.876  1.00  0.00     0.024 A 
ENDROOT
BRANCH   2   7
HETATM    7  C   UNL     1       7.317  23.872  56.201  1.00  0.00     0.253 C 
HETATM    8  N   UNL     1       6.103  24.521  56.073  1.00  0.00    -0.357 N 
HETATM    9  H   UNL     1       5.408  24.124  55.452  1.00  0.00     0.162 HD
HETATM   10  O   UNL     1       8.100  24.100  57.115  1.00  0.00    -0.268 OA
BRANCH   8  11
HETATM   11  C   UNL     1       5.655  25.438  57.108  1.00  0.00     0.127 C 
BRANCH  11  12
HETATM   12  C   UNL     1       5.463  26.868  56.598  1.00  0.00     0.058 C 
BRANCH  12  13
HETATM   13  C   UNL     1       6.691  27.740  56.442  1.00  0.00    -0.057 A 
HETATM   14  C   UNL     1       7.450  28.205  57.520  1.00  0.00     0.010 A 
HETATM   15  C   UNL     1       8.614  28.950  57.300  1.00  0.00     0.037 A 
HETATM   16  C   UNL     1       9.054  29.226  56.005  1.00  0.00     0.068 A 
HETATM   17  C   UNL     1       8.304  28.771  54.924  1.00  0.00     0.037 A 
HETATM   18  C   UNL     1       7.136  28.032  55.143  1.00  0.00     0.010 A 
BRANCH  16  19
HETATM   19  O   UNL     1      10.217  29.942  55.930  1.00  0.00    -0.356 OA
HETATM   20  C   UNL     1      11.008  29.996  57.110  1.00  0.00     0.210 C 
ENDBRANCH  16  19
ENDBRANCH  12  13
ENDBRANCH  11  12
ENDBRANCH   8  11
ENDBRANCH   2   7
BRANCH   1  21
HETATM   21  N   UNL     1       7.956  24.602  53.375  1.00  0.00    -0.283 NA
HETATM   22  H   UNL     1       8.917  24.932  53.279  1.00  0.00     0.128 HD
BRANCH  21  23
HETATM   23  C   UNL     1       7.244  24.813  52.083  1.00  0.00     0.195 C 
BRANCH  23  24
HETATM   24  C   UNL     1       6.082  25.797  52.275  1.00  0.00     0.238 C 
HETATM   25  N   UNL     1       6.027  26.754  51.272  1.00  0.00    -0.278 N 
HETATM   26  C   UNL     1       5.091  27.718  51.013  1.00  0.00     0.322 C 
HETATM   27  H   UNL     1       6.794  26.712  50.609  1.00  0.00     0.173 HD
HETATM   28  N   UNL     1       4.046  27.777  51.887  1.00  0.00    -0.347 N 
HETATM   29  O   UNL     1       5.199  28.445  50.029  1.00  0.00    -0.247 OA
HETATM   30  C   UNL     1       3.045  28.804  51.795  1.00  0.00     0.151 C 
HETATM   31  H   UNL     1       4.169  27.275  52.764  1.00  0.00     0.163 HD
HETATM   32  O   UNL     1       5.306  25.737  53.227  1.00  0.00    -0.272 OA
ENDBRANCH  23  24
ENDBRANCH  21  23
ENDBRANCH   1  21
TORSDOF 8
ENDMDL
MODEL 2
REMARK VINA RESULT:      -8.7      4.781      8.921
REMARK  8 active torsions:
REMARK  status: ('A' for Active; 'I' for Inactive)
REMARK       I    between atoms: N_2  and  C_3 
REMARK       I    between atoms: C_3  and  N_4 
REMARK       I    between atoms: N_4  and  C_5 
REMARK    1  A    between atoms: C_5  and  C_6 
REMARK    2  A    between atoms: C_6  and  N_7 
REMARK    3  A    between atoms: N_7  and  C_8 
REMARK    4  A    between atoms: C_9  and  C_10 
REMARK       I    between atoms: C_10  and  N_11 
REMARK    5  A    between atoms: N_11  and  C_12 
REMARK    6  A    between atoms: C_12  and  C_13 
REMARK    7  A    between atoms: C_13  and  C_14 
REMARK    8  A    between atoms: C_17  and  O_18 
ROOT
HETATM    1  C   UNL     1       8.549  29.994  58.519  1.00  0.00     0.024 A 
HETATM    2  C   UNL     1       8.345  29.093  57.451  1.00  0.00     0.053 A 
HETATM    3  C   UNL     1       9.319  28.958  56.444  1.00  0.00     0.019 A 
HETATM    4  C   UNL     1      10.489  29.714  56.487  1.00  0.00     0.001 A 
HETATM    5  C   UNL     1      10.693  30.612  57.529  1.00  0.00     0.002 A 
HETATM    6  C   UNL     1       9.730  30.755  58.531  1.00  0.00     0.024 A 
ENDROOT
BRANCH   2   7
HETATM    7  C   UNL     1       7.118  28.257  57.340  1.00  0.00     0.253 C 
HETATM    8  N   UNL     1       7.328  26.899  57.180  1.00  0.00    -0.357 N 
HETATM    9  H   UNL     1       8.244  26.525  57.400  1.00  0.00     0.162 HD
HETATM   10  O   UNL     1       6.001  28.757  57.376  1.00  0.00    -0.268 OA
BRANCH   8  11
HETATM   11  C   UNL     1       6.199  25.985  57.162  1.00  0.00     0.127 C 
BRANCH  11  12
HETATM   12  C   UNL     1       5.865  25.474  55.759  1.00  0.00     0.058 C 
BRANCH  12  13
HETATM   13  C   UNL     1       6.782  24.442  55.139  1.00  0.00    -0.057 A 
HETATM   14  C   UNL     1       7.408  23.427  55.869  1.00  0.00     0.010 A 
HETATM   15  C   UNL     1       8.189  22.464  55.220  1.00  0.00     0.037 A 
HETATM   16  C   UNL     1       8.345  22.482  53.834  1.00  0.00     0.068 A 
HETATM   17  C   UNL     1       7.730  23.491  53.097  1.00  0.00     0.037 A 
HETATM   18  C   UNL     1       6.954  24.458  53.745  1.00  0.00     0.010 A 
BRANCH  16  19
HETATM   19  O   UNL     1       9.114  21.472  53.325  1.00  0.00    -0.356 OA
HETATM   20  C   UNL     1       8.424  20.320  52.858  1.00  0.00     0.210 C 
ENDBRANCH  16  19
ENDBRANCH  12  13
ENDBRANCH  11  12
ENDBRANCH   8  11
ENDBRANCH   2   7
BRANCH   1  21
HETATM   21  N   UNL     1       7.613  30.195  59.559  1.00  0.00    -0.283 NA
HETATM   22  H   UNL     1       8.054  30.048  60.468  1.00  0.00     0.128 HD
BRANCH  21  23
HETATM   23  C   UNL     1       6.989  31.549  59.542  1.00  0.00     0.195 C 
BRANCH  23  24
HETATM   24  C   UNL     1       7.151  32.223  60.912  1.00  0.00     0.238 C 
HETATM   25  N   UNL     1       6.094  31.947  61.766  1.00  0.00    -0.278 N 
HETATM   26  C   UNL     1       5.917  32.250  63.088  1.00  0.00     0.322 C 
HETATM   27  H   UNL     1       5.342  31.412  61.345  1.00  0.00     0.173 HD
HETATM   28  N   UNL     1       6.926  32.957  63.673  1.00  0.00    -0.347 N 
HETATM   29  O   UNL     1       4.917  31.865  63.690  1.00  0.00    -0.247 OA
HETATM   30  C   UNL     1       6.829  33.429  65.027  1.00  0.00     0.151 C 
HETATM   31  H   UNL     1       7.592  33.393  63.038  1.00  0.00     0.163 HD
HETATM   32  O   UNL     1       8.112  32.937  61.195  1.00  0.00    -0.272 OA
ENDBRANCH  23  24
ENDBRANCH  21  23
ENDBRANCH   1  21
TORSDOF 8
ENDMDL
MODEL 3
REMARK VINA RESULT:      -8.7      2.019      2.744
REMARK  8 active torsions:
REMARK  status: ('A' for Active; 'I' for Inactive)
REMARK       I    between atoms: N_2  and  C_3 
REMARK       I    between atoms: C_3  and  N_4 
REMARK       I    between atoms: N_4  and  C_5 
REMARK    1  A    between atoms: C_5  and  C_6 
REMARK    2  A    between atoms: C_6  and  N_7 
REMARK    3  A    between atoms: N_7  and  C_8 
REMARK    4  A    between atoms: C_9  and  C_10 
REMARK       I    between atoms: C_10  and  N_11 
REMARK    5  A    between atoms: N_11  and  C_12 
REMARK    6  A    between atoms: C_12  and  C_13 
REMARK    7  A    between atoms: C_13  and  C_14 
REMARK    8  A    between atoms: C_17  and  O_18 
ROOT
HETATM    1  C   UNL     1       7.614  23.209  53.802  1.00  0.00     0.024 A 
HETATM    2  C   UNL     1       7.542  23.002  55.197  1.00  0.00     0.053 A 
HETATM    3  C   UNL     1       7.682  21.707  55.730  1.00  0.00     0.019 A 
HETATM    4  C   UNL     1       7.887  20.616  54.887  1.00  0.00     0.001 A 
HETATM    5  C   UNL     1       7.947  20.808  53.511  1.00  0.00     0.002 A 
HETATM    6  C   UNL     1       7.806  22.090  52.974  1.00  0.00     0.024 A 
ENDROOT
BRANCH   2   7
HETATM    7  C   UNL     1       7.323  24.121  56.155  1.00  0.00     0.253 C 
HETATM    8  N   UNL     1       8.458  24.807  56.549  1.00  0.00    -0.357 N 
HETATM    9  H   UNL     1       9.301  24.697  55.998  1.00  0.00     0.162 HD
HETATM   10  O   UNL     1       6.203  24.395  56.569  1.00  0.00    -0.268 OA
BRANCH   8  11
HETATM   11  C   UNL     1       8.342  25.977  57.402  1.00  0.00     0.127 C 
BRANCH  11  12
HETATM   12  C   UNL     1       8.160  27.277  56.614  1.00  0.00     0.058 C 
BRANCH  12  13
HETATM   13  C   UNL     1       8.599  28.571  57.264  1.00  0.00    -0.057 A 
HETATM   14  C   UNL     1       7.846  29.244  58.232  1.00  0.00     0.010 A 
HETATM   15  C   UNL     1       8.345  30.400  58.842  1.00  0.00     0.037 A 
HETATM   16  C   UNL     1       9.608  30.895  58.515  1.00  0.00     0.068 A 
HETATM   17  C   UNL     1      10.365  30.236  57.550  1.00  0.00     0.037 A 
HETATM   18  C   UNL     1       9.864  29.084  56.934  1.00  0.00     0.010 A 
BRANCH  16  19
HETATM   19  O   UNL     1       9.983  32.018  59.200  1.00  0.00    -0.356 OA
HETATM   20  C   UNL     1       9.430  32.184  60.500  1.00  0.00     0.210 C 
ENDBRANCH  16  19
ENDBRANCH  12  13
ENDBRANCH  11  12
ENDBRANCH   8  11
ENDBRANCH   2   7
BRANCH   1  21
HETATM   21  N   UNL     1       7.470  24.475  53.192  1.00  0.00    -0.283 NA
HETATM   22  H   UNL     1       7.994  24.510  52.317  1.00  0.00     0.128 HD
BRANCH  21  23
HETATM   23  C   UNL     1       6.051  24.844  52.917  1.00  0.00     0.195 C 
BRANCH  23  24
HETATM   24  C   UNL     1       5.810  26.317  53.275  1.00  0.00     0.238 C 
HETATM   25  N   UNL     1       5.224  26.469  54.523  1.00  0.00    -0.278 N 
HETATM   26  C   UNL     1       4.962  27.597  55.250  1.00  0.00     0.322 C 
HETATM   27  H   UNL     1       4.976  25.597  54.979  1.00  0.00     0.173 HD
HETATM   28  N   UNL     1       5.304  28.776  54.656  1.00  0.00    -0.347 N 
HETATM   29  O   UNL     1       4.478  27.517  56.377  1.00  0.00    -0.247 OA
HETATM   30  C   UNL     1       4.993  30.042  55.261  1.00  0.00     0.151 C 
HETATM   31  H   UNL     1       5.498  28.733  53.658  1.00  0.00     0.163 HD
HETATM   32  O   UNL     1       6.095  27.243  52.518  1.00  0.00    -0.272 OA
ENDBRANCH  23  24
ENDBRANCH  21  23
ENDBRANCH   1  21
TORSDOF 8
ENDMDL
MODEL 4
REMARK VINA RESULT:      -8.6      1.587      2.061
REMARK  8 active torsions:
REMARK  status: ('A' for Active; 'I' for Inactive)
REMARK       I    between atoms: N_2  and  C_3 
REMARK       I    between atoms: C_3  and  N_4 
REMARK       I    between atoms: N_4  and  C_5 
REMARK    1  A    between atoms: C_5  and  C_6 
REMARK    2  A    between atoms: C_6  and  N_7 
REMARK    3  A    between atoms: N_7  and  C_8 
REMARK    4  A    between atoms: C_9  and  C_10 
REMARK       I    between atoms: C_10  and  N_11 
REMARK    5  A    between atoms: N_11  and  C_12 
REMARK    6  A    between atoms: C_12  and  C_13 
REMARK    7  A    between atoms: C_13  and  C_14 
REMARK    8  A    between atoms: C_17  and  O_18 
ROOT
HETATM    1  C   UNL     1       8.154  22.853  54.386  1.00  0.00     0.024 A 
HETATM    2  C   UNL     1       8.273  22.847  55.793  1.00  0.00     0.053 A 
HETATM    3  C   UNL     1       8.316  21.628  56.494  1.00  0.00     0.019 A 
HETATM    4  C   UNL     1       8.237  20.416  55.810  1.00  0.00     0.001 A 
HETATM    5  C   UNL     1       8.108  20.412  54.425  1.00  0.00     0.002 A 
HETATM    6  C   UNL     1       8.061  21.618  53.722  1.00  0.00     0.024 A 
ENDROOT
BRANCH   2   7
HETATM    7  C   UNL     1       8.359  24.103  56.588  1.00  0.00     0.253 C 
HETATM    8  N   UNL     1       7.419  25.071  56.286  1.00  0.00    -0.357 N 
HETATM    9  H   UNL     1       6.598  24.797  55.758  1.00  0.00     0.162 HD
HETATM   10  O   UNL     1       9.224  24.259  57.442  1.00  0.00    -0.268 OA
BRANCH   8  11
HETATM   11  C   UNL     1       7.354  26.292  57.070  1.00  0.00     0.127 C 
BRANCH  11  12
HETATM   12  C   UNL     1       7.893  27.514  56.321  1.00  0.00     0.058 C 
BRANCH  12  13
HETATM   13  C   UNL     1       8.494  28.640  57.135  1.00  0.00    -0.057 A 
HETATM   14  C   UNL     1       9.718  29.244  56.832  1.00  0.00     0.010 A 
HETATM   15  C   UNL     1      10.182  30.327  57.587  1.00  0.00     0.037 A 
HETATM   16  C   UNL     1       9.427  30.842  58.641  1.00  0.00     0.068 A 
HETATM   17  C   UNL     1       8.208  30.247  58.954  1.00  0.00     0.037 A 
HETATM   18  C   UNL     1       7.746  29.159  58.204  1.00  0.00     0.010 A 
BRANCH  16  19
HETATM   19  O   UNL     1       9.984  31.914  59.281  1.00  0.00    -0.356 OA
HETATM   20  C   UNL     1       9.389  32.299  60.514  1.00  0.00     0.210 C 
ENDBRANCH  16  19
ENDBRANCH  12  13
ENDBRANCH  11  12
ENDBRANCH   8  11
ENDBRANCH   2   7
BRANCH   1  21
HETATM   21  N   UNL     1       8.090  24.034  53.613  1.00  0.00    -0.283 NA
HETATM   22  H   UNL     1       8.971  24.185  53.121  1.00  0.00     0.128 HD
BRANCH  21  23
HETATM   23  C   UNL     1       6.979  24.035  52.619  1.00  0.00     0.195 C 
BRANCH  23  24
HETATM   24  C   UNL     1       6.002  25.180  52.920  1.00  0.00     0.238 C 
HETATM   25  N   UNL     1       5.865  26.054  51.851  1.00  0.00    -0.278 N 
HETATM   26  C   UNL     1       5.018  27.112  51.671  1.00  0.00     0.322 C 
HETATM   27  H   UNL     1       6.476  25.855  51.066  1.00  0.00     0.173 HD
HETATM   28  N   UNL     1       4.180  27.382  52.712  1.00  0.00    -0.347 N 
HETATM   29  O   UNL     1       5.016  27.739  50.614  1.00  0.00    -0.247 OA
HETATM   30  C   UNL     1       3.309  28.525  52.701  1.00  0.00     0.151 C 
HETATM   31  H   UNL     1       4.411  26.939  53.599  1.00  0.00     0.163 HD
HETATM   32  O   UNL     1       5.427  25.301  54.000  1.00  0.00    -0.272 OA
ENDBRANCH  23  24
ENDBRANCH  21  23
ENDBRANCH   1  21
TORSDOF 8
ENDMDL
MODEL 5
REMARK VINA RESULT:      -8.2      3.218      7.285
REMARK  8 active torsions:
REMARK  status: ('A' for Active; 'I' for Inactive)
REMARK       I    between atoms: N_2  and  C_3 
REMARK       I    between atoms: C_3  and  N_4 
REMARK       I    between atoms: N_4  and  C_5 
REMARK    1  A    between atoms: C_5  and  C_6 
REMARK    2  A    between atoms: C_6  and  N_7 
REMARK    3  A    between atoms: N_7  and  C_8 
REMARK    4  A    between atoms: C_9  and  C_10 
REMARK       I    between atoms: C_10  and  N_11 
REMARK    5  A    between atoms: N_11  and  C_12 
REMARK    6  A    between atoms: C_12  and  C_13 
REMARK    7  A    between atoms: C_13  and  C_14 
REMARK    8  A    between atoms: C_17  and  O_18 
ROOT
HETATM    1  C   UNL     1       8.588  30.152  58.492  1.00  0.00     0.024 A 
HETATM    2  C   UNL     1       8.936  29.137  57.574  1.00  0.00     0.053 A 
HETATM    3  C   UNL     1      10.174  29.179  56.907  1.00  0.00     0.019 A 
HETATM    4  C   UNL     1      11.067  30.223  57.142  1.00  0.00     0.001 A 
HETATM    5  C   UNL     1      10.729  31.233  58.036  1.00  0.00     0.002 A 
HETATM    6  C   UNL     1       9.500  31.201  58.700  1.00  0.00     0.024 A 
ENDROOT
BRANCH   2   7
HETATM    7  C   UNL     1       8.029  27.995  57.273  1.00  0.00     0.253 C 
HETATM    8  N   UNL     1       7.543  27.938  55.979  1.00  0.00    -0.357 N 
HETATM    9  H   UNL     1       8.007  28.487  55.266  1.00  0.00     0.162 HD
HETATM   10  O   UNL     1       7.731  27.175  58.132  1.00  0.00    -0.268 OA
BRANCH   8  11
HETATM   11  C   UNL     1       6.731  26.809  55.556  1.00  0.00     0.127 C 
BRANCH  11  12
HETATM   12  C   UNL     1       7.132  26.265  54.183  1.00  0.00     0.058 C 
BRANCH  12  13
HETATM   13  C   UNL     1       7.523  24.806  54.081  1.00  0.00    -0.057 A 
HETATM   14  C   UNL     1       7.453  24.068  52.896  1.00  0.00     0.010 A 
HETATM   15  C   UNL     1       7.895  22.741  52.857  1.00  0.00     0.037 A 
HETATM   16  C   UNL     1       8.434  22.133  53.991  1.00  0.00     0.068 A 
HETATM   17  C   UNL     1       8.506  22.856  55.179  1.00  0.00     0.037 A 
HETATM   18  C   UNL     1       8.057  24.181  55.220  1.00  0.00     0.010 A 
BRANCH  16  19
HETATM   19  O   UNL     1       8.849  20.842  53.812  1.00  0.00    -0.356 OA
HETATM   20  C   UNL     1       8.783  19.989  54.948  1.00  0.00     0.210 C 
ENDBRANCH  16  19
ENDBRANCH  12  13
ENDBRANCH  11  12
ENDBRANCH   8  11
ENDBRANCH   2   7
BRANCH   1  21
HETATM   21  N   UNL     1       7.360  30.187  59.190  1.00  0.00    -0.283 NA
HETATM   22  H   UNL     1       7.493  29.899  60.160  1.00  0.00     0.128 HD
BRANCH  21  23
HETATM   23  C   UNL     1       6.704  31.526  59.172  1.00  0.00     0.195 C 
BRANCH  23  24
HETATM   24  C   UNL     1       5.843  31.675  57.910  1.00  0.00     0.238 C 
HETATM   25  N   UNL     1       5.299  30.469  57.494  1.00  0.00    -0.278 N 
HETATM   26  C   UNL     1       4.395  30.195  56.506  1.00  0.00     0.322 C 
HETATM   27  H   UNL     1       5.605  29.664  58.031  1.00  0.00     0.173 HD
HETATM   28  N   UNL     1       3.963  31.270  55.786  1.00  0.00    -0.347 N 
HETATM   29  O   UNL     1       3.992  29.048  56.326  1.00  0.00    -0.247 OA
HETATM   30  C   UNL     1       3.090  31.116  54.654  1.00  0.00     0.151 C 
HETATM   31  H   UNL     1       4.511  32.122  55.883  1.00  0.00     0.163 HD
HETATM   32  O   UNL     1       5.678  32.751  57.337  1.00  0.00    -0.272 OA
ENDBRANCH  23  24
ENDBRANCH  21  23
ENDBRANCH   1  21
TORSDOF 8
ENDMDL
MODEL 6
REMARK VINA RESULT:      -8.1      4.676      8.470
REMARK  8 active torsions:
REMARK  status: ('A' for Active; 'I' for Inactive)
REMARK       I    between atoms: N_2  and  C_3 
REMARK       I    between atoms: C_3  and  N_4 
REMARK       I    between atoms: N_4  and  C_5 
REMARK    1  A    between atoms: C_5  and  C_6 
REMARK    2  A    between atoms: C_6  and  N_7 
REMARK    3  A    between atoms: N_7  and  C_8 
REMARK    4  A    between atoms: C_9  and  C_10 
REMARK       I    between atoms: C_10  and  N_11 
REMARK    5  A    between atoms: N_11  and  C_12 
REMARK    6  A    between atoms: C_12  and  C_13 
REMARK    7  A    between atoms: C_13  and  C_14 
REMARK    8  A    between atoms: C_17  and  O_18 
ROOT
HETATM    1  C   UNL     1       8.297  30.289  58.245  1.00  0.00     0.024 A 
HETATM    2  C   UNL     1       8.707  29.344  57.280  1.00  0.00     0.053 A 
HETATM    3  C   UNL     1      10.034  29.341  56.812  1.00  0.00     0.019 A 
HETATM    4  C   UNL     1      10.954  30.272  57.290  1.00  0.00     0.001 A 
HETATM    5  C   UNL     1      10.556  31.215  58.232  1.00  0.00     0.002 A 
HETATM    6  C   UNL     1       9.240  31.227  58.700  1.00  0.00     0.024 A 
ENDROOT
BRANCH   2   7
HETATM    7  C   UNL     1       7.777  28.322  56.724  1.00  0.00     0.253 C 
HETATM    8  N   UNL     1       7.526  28.414  55.367  1.00  0.00    -0.357 N 
HETATM    9  H   UNL     1       8.154  28.970  54.798  1.00  0.00     0.162 HD
HETATM   10  O   UNL     1       7.265  27.471  57.439  1.00  0.00    -0.268 OA
BRANCH   8  11
HETATM   11  C   UNL     1       6.712  27.407  54.708  1.00  0.00     0.127 C 
BRANCH  11  12
HETATM   12  C   UNL     1       7.473  26.636  53.626  1.00  0.00     0.058 C 
BRANCH  12  13
HETATM   13  C   UNL     1       7.491  25.125  53.708  1.00  0.00    -0.057 A 
HETATM   14  C   UNL     1       7.803  24.296  52.626  1.00  0.00     0.010 A 
HETATM   15  C   UNL     1       7.868  22.908  52.789  1.00  0.00     0.037 A 
HETATM   16  C   UNL     1       7.644  22.322  54.036  1.00  0.00     0.068 A 
HETATM   17  C   UNL     1       7.329  23.136  55.120  1.00  0.00     0.037 A 
HETATM   18  C   UNL     1       7.257  24.524  54.956  1.00  0.00     0.010 A 
BRANCH  16  19
HETATM   19  O   UNL     1       7.761  20.960  54.063  1.00  0.00    -0.356 OA
HETATM   20  C   UNL     1       8.511  20.364  53.012  1.00  0.00     0.210 C 
ENDBRANCH  16  19
ENDBRANCH  12  13
ENDBRANCH  11  12
ENDBRANCH   8  11
ENDBRANCH   2   7
BRANCH   1  21
HETATM   21  N   UNL     1       6.980  30.364  58.754  1.00  0.00    -0.283 NA
HETATM   22  H   UNL     1       6.986  30.263  59.770  1.00  0.00     0.128 HD
BRANCH  21  23
HETATM   23  C   UNL     1       6.279  31.631  58.401  1.00  0.00     0.195 C 
BRANCH  23  24
HETATM   24  C   UNL     1       5.643  32.250  59.654  1.00  0.00     0.238 C 
HETATM   25  N   UNL     1       4.330  32.643  59.443  1.00  0.00    -0.278 N 
HETATM   26  C   UNL     1       3.392  33.117  60.318  1.00  0.00     0.322 C 
HETATM   27  H   UNL     1       4.009  32.536  58.486  1.00  0.00     0.173 HD
HETATM   28  N   UNL     1       3.805  33.252  61.611  1.00  0.00    -0.347 N 
HETATM   29  O   UNL     1       2.250  33.363  59.939  1.00  0.00    -0.247 OA
HETATM   30  C   UNL     1       2.957  33.832  62.616  1.00  0.00     0.151 C 
HETATM   31  H   UNL     1       4.811  33.219  61.764  1.00  0.00     0.163 HD
HETATM   32  O   UNL     1       6.253  32.388  60.713  1.00  0.00    -0.272 OA
ENDBRANCH  23  24
ENDBRANCH  21  23
ENDBRANCH   1  21
TORSDOF 8
ENDMDL
MODEL 7
REMARK VINA RESULT:      -8.1      2.377      6.287
REMARK  8 active torsions:
REMARK  status: ('A' for Active; 'I' for Inactive)
REMARK       I    between atoms: N_2  and  C_3 
REMARK       I    between atoms: C_3  and  N_4 
REMARK       I    between atoms: N_4  and  C_5 
REMARK    1  A    between atoms: C_5  and  C_6 
REMARK    2  A    between atoms: C_6  and  N_7 
REMARK    3  A    between atoms: N_7  and  C_8 
REMARK    4  A    between atoms: C_9  and  C_10 
REMARK       I    between atoms: C_10  and  N_11 
REMARK    5  A    between atoms: N_11  and  C_12 
REMARK    6  A    between atoms: C_12  and  C_13 
REMARK    7  A    between atoms: C_13  and  C_14 
REMARK    8  A    between atoms: C_17  and  O_18 
ROOT
HETATM    1  C   UNL     1       8.018  23.601  55.105  1.00  0.00     0.024 A 
HETATM    2  C   UNL     1       7.813  23.745  53.715  1.00  0.00     0.053 A 
HETATM    3  C   UNL     1       7.740  22.609  52.889  1.00  0.00     0.019 A 
HETATM    4  C   UNL     1       7.875  21.332  53.430  1.00  0.00     0.001 A 
HETATM    5  C   UNL     1       8.088  21.180  54.796  1.00  0.00     0.002 A 
HETATM    6  C   UNL     1       8.165  22.303  55.624  1.00  0.00     0.024 A 
ENDROOT
BRANCH   2   7
HETATM    7  C   UNL     1       7.663  25.079  53.069  1.00  0.00     0.253 C 
HETATM    8  N   UNL     1       6.680  25.896  53.598  1.00  0.00    -0.357 N 
HETATM    9  H   UNL     1       6.310  25.672  54.514  1.00  0.00     0.162 HD
HETATM   10  O   UNL     1       8.365  25.410  52.122  1.00  0.00    -0.268 OA
BRANCH   8  11
HETATM   11  C   UNL     1       6.520  27.253  53.105  1.00  0.00     0.127 C 
BRANCH  11  12
HETATM   12  C   UNL     1       5.095  27.555  52.634  1.00  0.00     0.058 C 
BRANCH  12  13
HETATM   13  C   UNL     1       4.777  27.375  51.165  1.00  0.00    -0.057 A 
HETATM   14  C   UNL     1       4.996  26.183  50.468  1.00  0.00     0.010 A 
HETATM   15  C   UNL     1       4.615  26.064  49.127  1.00  0.00     0.037 A 
HETATM   16  C   UNL     1       3.990  27.121  48.463  1.00  0.00     0.068 A 
HETATM   17  C   UNL     1       3.770  28.314  49.146  1.00  0.00     0.037 A 
HETATM   18  C   UNL     1       4.158  28.436  50.485  1.00  0.00     0.010 A 
BRANCH  16  19
HETATM   19  O   UNL     1       3.649  26.865  47.164  1.00  0.00    -0.356 OA
HETATM   20  C   UNL     1       2.676  25.851  46.949  1.00  0.00     0.210 C 
ENDBRANCH  16  19
ENDBRANCH  12  13
ENDBRANCH  11  12
ENDBRANCH   8  11
ENDBRANCH   2   7
BRANCH   1  21
HETATM   21  N   UNL     1       8.115  24.692  55.998  1.00  0.00    -0.283 NA
HETATM   22  H   UNL     1       8.216  25.567  55.481  1.00  0.00     0.128 HD
BRANCH  21  23
HETATM   23  C   UNL     1       6.950  24.811  56.920  1.00  0.00     0.195 C 
BRANCH  23  24
HETATM   24  C   UNL     1       6.487  26.272  57.000  1.00  0.00     0.238 C 
HETATM   25  N   UNL     1       7.376  27.073  57.702  1.00  0.00    -0.278 N 
HETATM   26  C   UNL     1       7.394  28.427  57.892  1.00  0.00     0.322 C 
HETATM   27  H   UNL     1       8.154  26.570  58.118  1.00  0.00     0.173 HD
HETATM   28  N   UNL     1       6.363  29.117  57.326  1.00  0.00    -0.347 N 
HETATM   29  O   UNL     1       8.312  28.959  58.511  1.00  0.00    -0.247 OA
HETATM   30  C   UNL     1       6.201  30.530  57.531  1.00  0.00     0.151 C 
HETATM   31  H   UNL     1       5.566  28.561  57.023  1.00  0.00     0.163 HD
HETATM   32  O   UNL     1       5.432  26.667  56.504  1.00  0.00    -0.272 OA
ENDBRANCH  23  24
ENDBRANCH  21  23
ENDBRANCH   1  21
TORSDOF 8
ENDMDL
MODEL 8
REMARK VINA RESULT:      -7.9      3.417      6.989
REMARK  8 active torsions:
REMARK  status: ('A' for Active; 'I' for Inactive)
REMARK       I    between atoms: N_2  and  C_3 
REMARK       I    between atoms: C_3  and  N_4 
REMARK       I    between atoms: N_4  and  C_5 
REMARK    1  A    between atoms: C_5  and  C_6 
REMARK    2  A    between atoms: C_6  and  N_7 
REMARK    3  A    between atoms: N_7  and  C_8 
REMARK    4  A    between atoms: C_9  and  C_10 
REMARK       I    between atoms: C_10  and  N_11 
REMARK    5  A    between atoms: N_11  and  C_12 
REMARK    6  A    between atoms: C_12  and  C_13 
REMARK    7  A    between atoms: C_13  and  C_14 
REMARK    8  A    between atoms: C_17  and  O_18 
ROOT
HETATM    1  C   UNL     1       3.243  27.859  48.460  1.00  0.00     0.024 A 
HETATM    2  C   UNL     1       3.920  26.783  49.074  1.00  0.00     0.053 A 
HETATM    3  C   UNL     1       3.759  25.474  48.587  1.00  0.00     0.019 A 
HETATM    4  C   UNL     1       2.926  25.224  47.497  1.00  0.00     0.001 A 
HETATM    5  C   UNL     1       2.246  26.275  46.892  1.00  0.00     0.002 A 
HETATM    6  C   UNL     1       2.398  27.578  47.372  1.00  0.00     0.024 A 
ENDROOT
BRANCH   2   7
HETATM    7  C   UNL     1       4.823  26.978  50.243  1.00  0.00     0.253 C 
HETATM    8  N   UNL     1       4.937  25.898  51.100  1.00  0.00    -0.357 N 
HETATM    9  H   UNL     1       4.633  24.989  50.772  1.00  0.00     0.162 HD
HETATM   10  O   UNL     1       5.408  28.038  50.427  1.00  0.00    -0.268 OA
BRANCH   8  11
HETATM   11  C   UNL     1       5.868  25.949  52.214  1.00  0.00     0.127 C 
BRANCH  11  12
HETATM   12  C   UNL     1       7.133  25.121  51.976  1.00  0.00     0.058 C 
BRANCH  12  13
HETATM   13  C   UNL     1       7.561  24.147  53.054  1.00  0.00    -0.057 A 
HETATM   14  C   UNL     1       7.771  22.784  52.824  1.00  0.00     0.010 A 
HETATM   15  C   UNL     1       8.233  21.954  53.851  1.00  0.00     0.037 A 
HETATM   16  C   UNL     1       8.513  22.469  55.117  1.00  0.00     0.068 A 
HETATM   17  C   UNL     1       8.304  23.823  55.359  1.00  0.00     0.037 A 
HETATM   18  C   UNL     1       7.836  24.654  54.334  1.00  0.00     0.010 A 
BRANCH  16  19
HETATM   19  O   UNL     1       8.979  21.555  56.022  1.00  0.00    -0.356 OA
HETATM   20  C   UNL     1       8.666  20.191  55.768  1.00  0.00     0.210 C 
ENDBRANCH  16  19
ENDBRANCH  12  13
ENDBRANCH  11  12
ENDBRANCH   8  11
ENDBRANCH   2   7
BRANCH   1  21
HETATM   21  N   UNL     1       3.343  29.199  48.899  1.00  0.00    -0.283 NA
HETATM   22  H   UNL     1       3.511  29.821  48.108  1.00  0.00     0.128 HD
BRANCH  21  23
HETATM   23  C   UNL     1       2.138  29.674  49.637  1.00  0.00     0.195 C 
BRANCH  23  24
HETATM   24  C   UNL     1       2.539  30.195  51.024  1.00  0.00     0.238 C 
HETATM   25  N   UNL     1       2.875  29.171  51.897  1.00  0.00    -0.278 N 
HETATM   26  C   UNL     1       3.393  29.217  53.162  1.00  0.00     0.322 C 
HETATM   27  H   UNL     1       2.738  28.239  51.523  1.00  0.00     0.173 HD
HETATM   28  N   UNL     1       3.597  30.465  53.673  1.00  0.00    -0.347 N 
HETATM   29  O   UNL     1       3.676  28.181  53.760  1.00  0.00    -0.247 OA
HETATM   30  C   UNL     1       4.040  30.661  55.026  1.00  0.00     0.151 C 
HETATM   31  H   UNL     1       3.139  31.229  53.181  1.00  0.00     0.163 HD
HETATM   32  O   UNL     1       2.539  31.390  51.313  1.00  0.00    -0.272 OA
ENDBRANCH  23  24
ENDBRANCH  21  23
ENDBRANCH   1  21
TORSDOF 8
ENDMDL
MODEL 9
REMARK VINA RESULT:      -7.9      2.269      4.757
REMARK  8 active torsions:
REMARK  status: ('A' for Active; 'I' for Inactive)
REMARK       I    between atoms: N_2  and  C_3 
REMARK       I    between atoms: C_3  and  N_4 
REMARK       I    between atoms: N_4  and  C_5 
REMARK    1  A    between atoms: C_5  and  C_6 
REMARK    2  A    between atoms: C_6  and  N_7 
REMARK    3  A    between atoms: N_7  and  C_8 
REMARK    4  A    between atoms: C_9  and  C_10 
REMARK       I    between atoms: C_10  and  N_11 
REMARK    5  A    between atoms: N_11  and  C_12 
REMARK    6  A    between atoms: C_12  and  C_13 
REMARK    7  A    between atoms: C_13  and  C_14 
REMARK    8  A    between atoms: C_17  and  O_18 
ROOT
HETATM    1  C   UNL     1       8.467  22.819  55.154  1.00  0.00     0.024 A 
HETATM    2  C   UNL     1       7.982  23.000  53.840  1.00  0.00     0.053 A 
HETATM    3  C   UNL     1       7.756  21.886  53.010  1.00  0.00     0.019 A 
HETATM    4  C   UNL     1       8.013  20.597  53.473  1.00  0.00     0.001 A 
HETATM    5  C   UNL     1       8.501  20.410  54.761  1.00  0.00     0.002 A 
HETATM    6  C   UNL     1       8.732  21.510  55.591  1.00  0.00     0.024 A 
ENDROOT
BRANCH   2   7
HETATM    7  C   UNL     1       7.689  24.348  53.280  1.00  0.00     0.253 C 
HETATM    8  N   UNL     1       6.827  24.376  52.199  1.00  0.00    -0.357 N 
HETATM    9  H   UNL     1       6.258  23.557  52.017  1.00  0.00     0.162 HD
HETATM   10  O   UNL     1       8.200  25.357  53.749  1.00  0.00    -0.268 OA
BRANCH   8  11
HETATM   11  C   UNL     1       6.398  25.647  51.642  1.00  0.00     0.127 C 
BRANCH  11  12
HETATM   12  C   UNL     1       4.932  25.969  51.943  1.00  0.00     0.058 C 
BRANCH  12  13
HETATM   13  C   UNL     1       4.635  27.048  52.962  1.00  0.00    -0.057 A 
HETATM   14  C   UNL     1       5.020  26.970  54.305  1.00  0.00     0.010 A 
HETATM   15  C   UNL     1       4.773  28.036  55.178  1.00  0.00     0.037 A 
HETATM   16  C   UNL     1       4.159  29.205  54.726  1.00  0.00     0.068 A 
HETATM   17  C   UNL     1       3.768  29.292  53.392  1.00  0.00     0.037 A 
HETATM   18  C   UNL     1       4.008  28.224  52.520  1.00  0.00     0.010 A 
BRANCH  16  19
HETATM   19  O   UNL     1       3.997  30.176  55.675  1.00  0.00    -0.356 OA
HETATM   20  C   UNL     1       5.179  30.818  56.135  1.00  0.00     0.210 C 
ENDBRANCH  16  19
ENDBRANCH  12  13
ENDBRANCH  11  12
ENDBRANCH   8  11
ENDBRANCH   2   7
BRANCH   1  21
HETATM   21  N   UNL     1       8.732  23.887  56.042  1.00  0.00    -0.283 NA
HETATM   22  H   UNL     1       9.109  24.687  55.533  1.00  0.00     0.128 HD
BRANCH  21  23
HETATM   23  C   UNL     1       7.534  24.329  56.812  1.00  0.00     0.195 C 
BRANCH  23  24
HETATM   24  C   UNL     1       7.777  25.720  57.414  1.00  0.00     0.238 C 
HETATM   25  N   UNL     1       7.982  26.689  56.443  1.00  0.00    -0.278 N 
HETATM   26  C   UNL     1       8.109  28.046  56.554  1.00  0.00     0.322 C 
HETATM   27  H   UNL     1       8.015  26.331  55.494  1.00  0.00     0.173 HD
HETATM   28  N   UNL     1       8.051  28.543  57.823  1.00  0.00    -0.347 N 
HETATM   29  O   UNL     1       8.233  28.747  55.552  1.00  0.00    -0.247 OA
HETATM   30  C   UNL     1       8.270  29.937  58.096  1.00  0.00     0.151 C 
HETATM   31  H   UNL     1       8.154  27.864  58.574  1.00  0.00     0.163 HD
HETATM   32  O   UNL     1       7.800  25.928  58.626  1.00  0.00    -0.272 OA
ENDBRANCH  23  24
ENDBRANCH  21  23
ENDBRANCH   1  21
TORSDOF 8
ENDMDL
MODEL 10
REMARK VINA RESULT:      -7.8      2.974      7.272
REMARK  8 active torsions:
REMARK  status: ('A' for Active; 'I' for Inactive)
REMARK       I    between atoms: N_2  and  C_3 
REMARK       I    between atoms: C_3  and  N_4 
REMARK       I    between atoms: N_4  and  C_5 
REMARK    1  A    between atoms: C_5  and  C_6 
REMARK    2  A    between atoms: C_6  and  N_7 
REMARK    3  A    between atoms: N_7  and  C_8 
REMARK    4  A    between atoms: C_9  and  C_10 
REMARK       I    between atoms: C_10  and  N_11 
REMARK    5  A    between atoms: N_11  and  C_12 
REMARK    6  A    between atoms: C_12  and  C_13 
REMARK    7  A    between atoms: C_13  and  C_14 
REMARK    8  A    between atoms: C_17  and  O_18 
ROOT
HETATM    1  C   UNL     1       7.136  30.887  58.839  1.00  0.00     0.024 A 
HETATM    2  C   UNL     1       8.458  30.463  58.582  1.00  0.00     0.053 A 
HETATM    3  C   UNL     1       9.539  31.071  59.246  1.00  0.00     0.019 A 
HETATM    4  C   UNL     1       9.317  32.100  60.160  1.00  0.00     0.001 A 
HETATM    5  C   UNL     1       8.019  32.532  60.412  1.00  0.00     0.002 A 
HETATM    6  C   UNL     1       6.941  31.936  59.754  1.00  0.00     0.024 A 
ENDROOT
BRANCH   2   7
HETATM    7  C   UNL     1       8.768  29.372  57.616  1.00  0.00     0.253 C 
HETATM    8  N   UNL     1       8.132  28.166  57.848  1.00  0.00    -0.357 N 
HETATM    9  H   UNL     1       7.329  28.156  58.466  1.00  0.00     0.162 HD
HETATM   10  O   UNL     1       9.550  29.544  56.689  1.00  0.00    -0.268 OA
BRANCH   8  11
HETATM   11  C   UNL     1       8.289  27.068  56.909  1.00  0.00     0.127 C 
BRANCH  11  12
HETATM   12  C   UNL     1       7.119  26.081  56.942  1.00  0.00     0.058 C 
BRANCH  12  13
HETATM   13  C   UNL     1       7.267  24.776  56.189  1.00  0.00    -0.057 A 
HETATM   14  C   UNL     1       6.834  24.590  54.872  1.00  0.00     0.010 A 
HETATM   15  C   UNL     1       7.065  23.378  54.213  1.00  0.00     0.037 A 
HETATM   16  C   UNL     1       7.749  22.338  54.845  1.00  0.00     0.068 A 
HETATM   17  C   UNL     1       8.182  22.510  56.157  1.00  0.00     0.037 A 
HETATM   18  C   UNL     1       7.945  23.720  56.819  1.00  0.00     0.010 A 
BRANCH  16  19
HETATM   19  O   UNL     1       7.928  21.217  54.082  1.00  0.00    -0.356 OA
HETATM   20  C   UNL     1       8.696  20.170  54.660  1.00  0.00     0.210 C 
ENDBRANCH  16  19
ENDBRANCH  12  13
ENDBRANCH  11  12
ENDBRANCH   8  11
ENDBRANCH   2   7
BRANCH   1  21
HETATM   21  N   UNL     1       6.001  30.335  58.203  1.00  0.00    -0.283 NA
HETATM   22  H   UNL     1       5.186  30.395  58.814  1.00  0.00     0.128 HD
BRANCH  21  23
HETATM   23  C   UNL     1       5.674  30.987  56.902  1.00  0.00     0.195 C 
BRANCH  23  24
HETATM   24  C   UNL     1       5.138  29.946  55.910  1.00  0.00     0.238 C 
HETATM   25  N   UNL     1       6.135  29.430  55.094  1.00  0.00    -0.278 N 
HETATM   26  C   UNL     1       6.097  28.414  54.180  1.00  0.00     0.322 C 
HETATM   27  H   UNL     1       7.044  29.862  55.219  1.00  0.00     0.173 HD
HETATM   28  N   UNL     1       4.884  27.813  54.013  1.00  0.00    -0.347 N 
HETATM   29  O   UNL     1       7.117  28.066  53.588  1.00  0.00    -0.247 OA
HETATM   30  C   UNL     1       4.677  26.800  53.014  1.00  0.00     0.151 C 
HETATM   31  H   UNL     1       4.083  28.312  54.393  1.00  0.00     0.163 HD
HETATM   32  O   UNL     1       3.951  29.631  55.849  1.00  0.00    -0.272 OA
ENDBRANCH  23  24
ENDBRANCH  21  23
ENDBRANCH   1  21
TORSDOF 8
ENDMDL
