MODEL 1
REMARK VINA RESULT:      -8.6      0.000      0.000
REMARK  8 active torsions:
REMARK  status: ('A' for Active; 'I' for Inactive)
REMARK    1  A    between atoms: C_4  and  O_5 
REMARK    2  A    between atoms: O_5  and  C_6 
REMARK    3  A    between atoms: C_6  and  C_7 
REMARK    4  A    between atoms: C_7  and  N_8 
REMARK    5  A    between atoms: N_8  and  C_9 
REMARK    6  A    between atoms: C_10  and  C_11 
REMARK       I    between atoms: C_11  and  N_12 
REMARK    7  A    between atoms: N_12  and  C_13 
REMARK    8  A    between atoms: C_13  and  C_14 
ROOT
HETATM    1  C   UNL     1       6.809  27.445  57.406  1.00  0.00     0.024 A 
HETATM    2  C   UNL     1       6.889  28.828  57.687  1.00  0.00     0.053 A 
HETATM    3  C   UNL     1       5.862  29.692  57.263  1.00  0.00     0.019 A 
HETATM    4  C   UNL     1       4.774  29.208  56.541  1.00  0.00     0.001 A 
HETATM    5  C   UNL     1       4.701  27.855  56.230  1.00  0.00     0.002 A 
HETATM    6  C   UNL     1       5.706  26.985  56.660  1.00  0.00     0.024 A 
ENDROOT
BRANCH   1   7
HETATM    7  N   UNL     1       7.724  26.479  57.886  1.00  0.00    -0.290 NA
HETATM    8  H   UNL     1       8.441  26.909  58.469  1.00  0.00     0.127 HD
BRANCH   7   9
HETATM    9  C   UNL     1       8.345  25.625  56.851  1.00  0.00     0.119 C 
BRANCH   9  10
HETATM   10  C   UNL     1       8.000  24.135  56.991  1.00  0.00     0.190 C 
BRANCH  10  11
HETATM   11  O   UNL     1       7.111  23.715  55.953  1.00  0.00    -0.350 OA
BRANCH  11  12
HETATM   12  C   UNL     1       7.474  22.634  55.196  1.00  0.00     0.068 A 
HETATM   13  C   UNL     1       7.793  21.362  55.671  1.00  0.00     0.037 A 
HETATM   14  C   UNL     1       8.163  20.351  54.779  1.00  0.00     0.003 A 
HETATM   15  C   UNL     1       8.214  20.605  53.409  1.00  0.00     0.000 A 
HETATM   16  C   UNL     1       7.903  21.873  52.930  1.00  0.00     0.003 A 
HETATM   17  C   UNL     1       7.540  22.884  53.823  1.00  0.00     0.037 A 
ENDBRANCH  11  12
ENDBRANCH  10  11
ENDBRANCH   9  10
ENDBRANCH   7   9
ENDBRANCH   1   7
BRANCH   2  18
HETATM   18  C   UNL     1       8.046  29.483  58.365  1.00  0.00     0.253 C 
HETATM   19  N   UNL     1       7.767  30.153  59.528  1.00  0.00    -0.351 N 
HETATM   20  H   UNL     1       6.802  30.186  59.850  1.00  0.00     0.163 HD
HETATM   21  O   UNL     1       9.178  29.378  57.906  1.00  0.00    -0.268 OA
BRANCH  19  22
HETATM   22  C   UNL     1       8.806  30.721  60.348  1.00  0.00     0.187 C 
BRANCH  22  23
HETATM   23  C   UNL     1       8.182  31.462  61.469  1.00  0.00     0.070 A 
HETATM   24  O   UNL     1       6.828  31.635  61.413  1.00  0.00    -0.325 OA
HETATM   25  C   UNL     1       6.471  32.329  62.524  1.00  0.00     0.142 A 
HETATM   26  C   UNL     1       7.576  32.610  63.292  1.00  0.00     0.027 A 
HETATM   27  C   UNL     1       8.684  32.052  62.611  1.00  0.00     0.036 A 
ENDBRANCH  22  23
ENDBRANCH  19  22
ENDBRANCH   2  18
TORSDOF 8
ENDMDL
MODEL 2
REMARK VINA RESULT:      -8.5      2.503      3.633
REMARK  8 active torsions:
REMARK  status: ('A' for Active; 'I' for Inactive)
REMARK    1  A    between atoms: C_4  and  O_5 
REMARK    2  A    between atoms: O_5  and  C_6 
REMARK    3  A    between atoms: C_6  and  C_7 
REMARK    4  A    between atoms: C_7  and  N_8 
REMARK    5  A    between atoms: N_8  and  C_9 
REMARK    6  A    between atoms: C_10  and  C_11 
REMARK       I    between atoms: C_11  and  N_12 
REMARK    7  A    between atoms: N_12  and  C_13 
REMARK    8  A    between atoms: C_13  and  C_14 
ROOT
HETATM    1  C   UNL     1       6.079  27.516  57.004  1.00  0.00     0.024 A 
HETATM    2  C   UNL     1       7.491  27.566  56.965  1.00  0.00     0.053 A 
HETATM    3  C   UNL     1       8.237  26.373  56.977  1.00  0.00     0.019 A 
HETATM    4  C   UNL     1       7.604  25.135  57.057  1.00  0.00     0.001 A 
HETATM    5  C   UNL     1       6.217  25.075  57.129  1.00  0.00     0.002 A 
HETATM    6  C   UNL     1       5.465  26.252  57.100  1.00  0.00     0.024 A 
ENDROOT
BRANCH   1   7
HETATM    7  N   UNL     1       5.237  28.646  56.878  1.00  0.00    -0.290 NA
HETATM    8  H   UNL     1       4.817  28.893  57.774  1.00  0.00     0.127 HD
BRANCH   7   9
HETATM    9  C   UNL     1       4.198  28.548  55.830  1.00  0.00     0.119 C 
BRANCH   9  10
HETATM   10  C   UNL     1       4.744  28.696  54.403  1.00  0.00     0.190 C 
BRANCH  10  11
HETATM   11  O   UNL     1       4.428  27.548  53.612  1.00  0.00    -0.350 OA
BRANCH  11  12
HETATM   12  C   UNL     1       5.371  26.563  53.503  1.00  0.00     0.068 A 
HETATM   13  C   UNL     1       5.137  25.188  53.536  1.00  0.00     0.037 A 
HETATM   14  C   UNL     1       6.204  24.291  53.429  1.00  0.00     0.003 A 
HETATM   15  C   UNL     1       7.508  24.762  53.286  1.00  0.00     0.000 A 
HETATM   16  C   UNL     1       7.748  26.132  53.259  1.00  0.00     0.003 A 
HETATM   17  C   UNL     1       6.683  27.027  53.373  1.00  0.00     0.037 A 
ENDBRANCH  11  12
ENDBRANCH  10  11
ENDBRANCH   9  10
ENDBRANCH   7   9
ENDBRANCH   1   7
BRANCH   2  18
HETATM   18  C   UNL     1       8.289  28.828  56.977  1.00  0.00     0.253 C 
HETATM   19  N   UNL     1       8.212  29.583  58.119  1.00  0.00    -0.351 N 
HETATM   20  H   UNL     1       7.611  29.261  58.874  1.00  0.00     0.163 HD
HETATM   21  O   UNL     1       8.995  29.127  56.020  1.00  0.00    -0.268 OA
BRANCH  19  22
HETATM   22  C   UNL     1       9.027  30.754  58.313  1.00  0.00     0.187 C 
BRANCH  22  23
HETATM   23  C   UNL     1       9.067  31.076  59.759  1.00  0.00     0.070 A 
HETATM   24  O   UNL     1       9.033  30.021  60.625  1.00  0.00    -0.325 OA
HETATM   25  C   UNL     1       9.078  30.536  61.881  1.00  0.00     0.142 A 
HETATM   26  C   UNL     1       9.135  31.909  61.835  1.00  0.00     0.027 A 
HETATM   27  C   UNL     1       9.125  32.261  60.465  1.00  0.00     0.036 A 
ENDBRANCH  22  23
ENDBRANCH  19  22
ENDBRANCH   2  18
TORSDOF 8
ENDMDL
MODEL 3
REMARK VINA RESULT:      -8.4      2.988      7.717
REMARK  8 active torsions:
REMARK  status: ('A' for Active; 'I' for Inactive)
REMARK    1  A    between atoms: C_4  and  O_5 
REMARK    2  A    between atoms: O_5  and  C_6 
REMARK    3  A    between atoms: C_6  and  C_7 
REMARK    4  A    between atoms: C_7  and  N_8 
REMARK    5  A    between atoms: N_8  and  C_9 
REMARK    6  A    between atoms: C_10  and  C_11 
REMARK       I    between atoms: C_11  and  N_12 
REMARK    7  A    between atoms: N_12  and  C_13 
REMARK    8  A    between atoms: C_13  and  C_14 
ROOT
HETATM    1  C   UNL     1       7.385  23.144  55.151  1.00  0.00     0.024 A 
HETATM    2  C   UNL     1       7.469  23.330  53.753  1.00  0.00     0.053 A 
HETATM    3  C   UNL     1       7.803  22.246  52.919  1.00  0.00     0.019 A 
HETATM    4  C   UNL     1       8.082  20.991  53.455  1.00  0.00     0.001 A 
HETATM    5  C   UNL     1       8.034  20.805  54.832  1.00  0.00     0.002 A 
HETATM    6  C   UNL     1       7.686  21.869  55.669  1.00  0.00     0.024 A 
ENDROOT
BRANCH   1   7
HETATM    7  N   UNL     1       6.945  24.133  56.062  1.00  0.00    -0.290 NA
HETATM    8  H   UNL     1       6.508  24.915  55.574  1.00  0.00     0.127 HD
BRANCH   7   9
HETATM    9  C   UNL     1       7.969  24.623  57.009  1.00  0.00     0.119 C 
BRANCH   9  10
HETATM   10  C   UNL     1       7.693  26.036  57.542  1.00  0.00     0.190 C 
BRANCH  10  11
HETATM   11  O   UNL     1       8.203  27.029  56.650  1.00  0.00    -0.350 OA
BRANCH  11  12
HETATM   12  C   UNL     1       8.624  28.217  57.184  1.00  0.00     0.068 A 
HETATM   13  C   UNL     1       9.824  28.870  56.905  1.00  0.00     0.037 A 
HETATM   14  C   UNL     1      10.132  30.077  57.541  1.00  0.00     0.003 A 
HETATM   15  C   UNL     1       9.242  30.638  58.455  1.00  0.00     0.000 A 
HETATM   16  C   UNL     1       8.045  29.988  58.741  1.00  0.00     0.003 A 
HETATM   17  C   UNL     1       7.742  28.780  58.112  1.00  0.00     0.037 A 
ENDBRANCH  11  12
ENDBRANCH  10  11
ENDBRANCH   9  10
ENDBRANCH   7   9
ENDBRANCH   1   7
BRANCH   2  18
HETATM   18  C   UNL     1       7.291  24.643  53.066  1.00  0.00     0.253 C 
HETATM   19  N   UNL     1       6.100  25.285  53.285  1.00  0.00    -0.351 N 
HETATM   20  H   UNL     1       5.406  24.832  53.875  1.00  0.00     0.163 HD
HETATM   21  O   UNL     1       8.192  25.114  52.381  1.00  0.00    -0.268 OA
BRANCH  19  22
HETATM   22  C   UNL     1       5.847  26.613  52.788  1.00  0.00     0.187 C 
BRANCH  22  23
HETATM   23  C   UNL     1       5.352  27.456  53.901  1.00  0.00     0.070 A 
HETATM   24  O   UNL     1       5.259  26.862  55.127  1.00  0.00    -0.325 OA
HETATM   25  C   UNL     1       4.791  27.801  55.988  1.00  0.00     0.142 A 
HETATM   26  C   UNL     1       4.576  28.991  55.333  1.00  0.00     0.027 A 
HETATM   27  C   UNL     1       4.936  28.769  53.982  1.00  0.00     0.036 A 
ENDBRANCH  22  23
ENDBRANCH  19  22
ENDBRANCH   2  18
TORSDOF 8
ENDMDL
MODEL 4
REMARK VINA RESULT:      -8.4      1.918     10.148
REMARK  8 active torsions:
REMARK  status: ('A' for Active; 'I' for Inactive)
REMARK    1  A    between atoms: C_4  and  O_5 
REMARK    2  A    between atoms: O_5  and  C_6 
REMARK    3  A    between atoms: C_6  and  C_7 
REMARK    4  A    between atoms: C_7  and  N_8 
REMARK    5  A    between atoms: N_8  and  C_9 
REMARK    6  A    between atoms: C_10  and  C_11 
REMARK       I    between atoms: C_11  and  N_12 
REMARK    7  A    between atoms: N_12  and  C_13 
REMARK    8  A    between atoms: C_13  and  C_14 
ROOT
HETATM    1  C   UNL     1       8.548  30.168  58.605  1.00  0.00     0.024 A 
HETATM    2  C   UNL     1       8.628  29.064  57.727  1.00  0.00     0.053 A 
HETATM    3  C   UNL     1       9.744  28.917  56.882  1.00  0.00     0.019 A 
HETATM    4  C   UNL     1      10.765  29.865  56.875  1.00  0.00     0.001 A 
HETATM    5  C   UNL     1      10.681  30.972  57.711  1.00  0.00     0.002 A 
HETATM    6  C   UNL     1       9.586  31.120  58.568  1.00  0.00     0.024 A 
ENDROOT
BRANCH   1   7
HETATM    7  N   UNL     1       7.532  30.346  59.573  1.00  0.00    -0.290 NA
HETATM    8  H   UNL     1       6.611  30.159  59.179  1.00  0.00     0.127 HD
BRANCH   7   9
HETATM    9  C   UNL     1       7.540  31.651  60.268  1.00  0.00     0.119 C 
BRANCH   9  10
HETATM   10  C   UNL     1       7.322  31.546  61.784  1.00  0.00     0.190 C 
BRANCH  10  11
HETATM   11  O   UNL     1       6.122  32.216  62.178  1.00  0.00    -0.350 OA
BRANCH  11  12
HETATM   12  C   UNL     1       6.086  32.792  63.418  1.00  0.00     0.068 A 
HETATM   13  C   UNL     1       4.944  33.045  64.179  1.00  0.00     0.037 A 
HETATM   14  C   UNL     1       5.056  33.658  65.431  1.00  0.00     0.003 A 
HETATM   15  C   UNL     1       6.307  34.019  65.929  1.00  0.00     0.000 A 
HETATM   16  C   UNL     1       7.448  33.774  65.172  1.00  0.00     0.003 A 
HETATM   17  C   UNL     1       7.335  33.168  63.919  1.00  0.00     0.037 A 
ENDBRANCH  11  12
ENDBRANCH  10  11
ENDBRANCH   9  10
ENDBRANCH   7   9
ENDBRANCH   1   7
BRANCH   2  18
HETATM   18  C   UNL     1       7.558  28.036  57.569  1.00  0.00     0.253 C 
HETATM   19  N   UNL     1       7.976  26.733  57.488  1.00  0.00    -0.351 N 
HETATM   20  H   UNL     1       8.975  26.541  57.518  1.00  0.00     0.163 HD
HETATM   21  O   UNL     1       6.376  28.364  57.554  1.00  0.00    -0.268 OA
BRANCH  19  22
HETATM   22  C   UNL     1       7.045  25.634  57.461  1.00  0.00     0.187 C 
BRANCH  22  23
HETATM   23  C   UNL     1       7.487  24.656  56.439  1.00  0.00     0.070 A 
HETATM   24  O   UNL     1       8.762  24.180  56.554  1.00  0.00    -0.325 OA
HETATM   25  C   UNL     1       8.954  23.310  55.530  1.00  0.00     0.142 A 
HETATM   26  C   UNL     1       7.823  23.223  54.754  1.00  0.00     0.027 A 
HETATM   27  C   UNL     1       6.873  24.094  55.338  1.00  0.00     0.036 A 
ENDBRANCH  22  23
ENDBRANCH  19  22
ENDBRANCH   2  18
TORSDOF 8
ENDMDL
MODEL 5
REMARK VINA RESULT:      -8.3      3.257      8.566
REMARK  8 active torsions:
REMARK  status: ('A' for Active; 'I' for Inactive)
REMARK    1  A    between atoms: C_4  and  O_5 
REMARK    2  A    between atoms: O_5  and  C_6 
REMARK    3  A    between atoms: C_6  and  C_7 
REMARK    4  A    between atoms: C_7  and  N_8 
REMARK    5  A    between atoms: N_8  and  C_9 
REMARK    6  A    between atoms: C_10  and  C_11 
REMARK       I    between atoms: C_11  and  N_12 
REMARK    7  A    between atoms: N_12  and  C_13 
REMARK    8  A    between atoms: C_13  and  C_14 
ROOT
HETATM    1  C   UNL     1       7.627  22.623  55.245  1.00  0.00     0.024 A 
HETATM    2  C   UNL     1       7.634  22.998  53.882  1.00  0.00     0.053 A 
HETATM    3  C   UNL     1       7.846  22.025  52.887  1.00  0.00     0.019 A 
HETATM    4  C   UNL     1       8.081  20.695  53.227  1.00  0.00     0.001 A 
HETATM    5  C   UNL     1       8.110  20.321  54.565  1.00  0.00     0.002 A 
HETATM    6  C   UNL     1       7.883  21.274  55.562  1.00  0.00     0.024 A 
ENDROOT
BRANCH   1   7
HETATM    7  N   UNL     1       7.308  23.497  56.311  1.00  0.00    -0.290 NA
HETATM    8  H   UNL     1       6.669  24.231  56.007  1.00  0.00     0.127 HD
BRANCH   7   9
HETATM    9  C   UNL     1       8.467  24.083  57.019  1.00  0.00     0.119 C 
BRANCH   9  10
HETATM   10  C   UNL     1       8.361  25.600  57.228  1.00  0.00     0.190 C 
BRANCH  10  11
HETATM   11  O   UNL     1       7.073  26.082  56.840  1.00  0.00    -0.350 OA
BRANCH  11  12
HETATM   12  C   UNL     1       6.756  27.379  57.139  1.00  0.00     0.068 A 
HETATM   13  C   UNL     1       5.519  27.994  56.944  1.00  0.00     0.037 A 
HETATM   14  C   UNL     1       5.342  29.340  57.283  1.00  0.00     0.003 A 
HETATM   15  C   UNL     1       6.397  30.075  57.820  1.00  0.00     0.000 A 
HETATM   16  C   UNL     1       7.635  29.469  58.011  1.00  0.00     0.003 A 
HETATM   17  C   UNL     1       7.813  28.127  57.666  1.00  0.00     0.037 A 
ENDBRANCH  11  12
ENDBRANCH  10  11
ENDBRANCH   9  10
ENDBRANCH   7   9
ENDBRANCH   1   7
BRANCH   2  18
HETATM   18  C   UNL     1       7.493  24.401  53.394  1.00  0.00     0.253 C 
HETATM   19  N   UNL     1       6.364  25.071  53.791  1.00  0.00    -0.351 N 
HETATM   20  H   UNL     1       5.686  24.579  54.369  1.00  0.00     0.163 HD
HETATM   21  O   UNL     1       8.372  24.913  52.710  1.00  0.00    -0.268 OA
BRANCH  19  22
HETATM   22  C   UNL     1       6.164  26.466  53.498  1.00  0.00     0.187 C 
BRANCH  22  23
HETATM   23  C   UNL     1       5.645  26.597  52.116  1.00  0.00     0.070 A 
HETATM   24  O   UNL     1       5.643  27.852  51.577  1.00  0.00    -0.325 OA
HETATM   25  C   UNL     1       5.134  27.744  50.323  1.00  0.00     0.142 A 
HETATM   26  C   UNL     1       4.803  26.438  50.049  1.00  0.00     0.027 A 
HETATM   27  C   UNL     1       5.130  25.695  51.208  1.00  0.00     0.036 A 
ENDBRANCH  22  23
ENDBRANCH  19  22
ENDBRANCH   2  18
TORSDOF 8
ENDMDL
MODEL 6
REMARK VINA RESULT:      -8.2      1.853      2.863
REMARK  8 active torsions:
REMARK  status: ('A' for Active; 'I' for Inactive)
REMARK    1  A    between atoms: C_4  and  O_5 
REMARK    2  A    between atoms: O_5  and  C_6 
REMARK    3  A    between atoms: C_6  and  C_7 
REMARK    4  A    between atoms: C_7  and  N_8 
REMARK    5  A    between atoms: N_8  and  C_9 
REMARK    6  A    between atoms: C_10  and  C_11 
REMARK       I    between atoms: C_11  and  N_12 
REMARK    7  A    between atoms: N_12  and  C_13 
REMARK    8  A    between atoms: C_13  and  C_14 
ROOT
HETATM    1  C   UNL     1       8.437  29.325  57.452  1.00  0.00     0.024 A 
HETATM    2  C   UNL     1       8.362  30.521  58.200  1.00  0.00     0.053 A 
HETATM    3  C   UNL     1       9.514  31.310  58.380  1.00  0.00     0.019 A 
HETATM    4  C   UNL     1      10.741  30.914  57.853  1.00  0.00     0.001 A 
HETATM    5  C   UNL     1      10.833  29.722  57.143  1.00  0.00     0.002 A 
HETATM    6  C   UNL     1       9.692  28.939  56.943  1.00  0.00     0.024 A 
ENDROOT
BRANCH   1   7
HETATM    7  N   UNL     1       7.320  28.524  57.115  1.00  0.00    -0.290 NA
HETATM    8  H   UNL     1       6.480  28.842  57.597  1.00  0.00     0.127 HD
BRANCH   7   9
HETATM    9  C   UNL     1       7.503  27.069  57.306  1.00  0.00     0.119 C 
BRANCH   9  10
HETATM   10  C   UNL     1       7.476  26.266  55.997  1.00  0.00     0.190 C 
BRANCH  10  11
HETATM   11  O   UNL     1       7.280  24.874  56.253  1.00  0.00    -0.350 OA
BRANCH  11  12
HETATM   12  C   UNL     1       7.487  23.996  55.224  1.00  0.00     0.068 A 
HETATM   13  C   UNL     1       7.566  22.607  55.326  1.00  0.00     0.037 A 
HETATM   14  C   UNL     1       7.798  21.831  54.185  1.00  0.00     0.003 A 
HETATM   15  C   UNL     1       7.950  22.438  52.939  1.00  0.00     0.000 A 
HETATM   16  C   UNL     1       7.877  23.824  52.833  1.00  0.00     0.003 A 
HETATM   17  C   UNL     1       7.652  24.598  53.973  1.00  0.00     0.037 A 
ENDBRANCH  11  12
ENDBRANCH  10  11
ENDBRANCH   9  10
ENDBRANCH   7   9
ENDBRANCH   1   7
BRANCH   2  18
HETATM   18  C   UNL     1       7.133  31.003  58.897  1.00  0.00     0.253 C 
HETATM   19  N   UNL     1       7.306  31.482  60.170  1.00  0.00    -0.351 N 
HETATM   20  H   UNL     1       8.241  31.464  60.572  1.00  0.00     0.163 HD
HETATM   21  O   UNL     1       6.050  30.995  58.324  1.00  0.00    -0.268 OA
BRANCH  19  22
HETATM   22  C   UNL     1       6.230  32.093  60.906  1.00  0.00     0.187 C 
BRANCH  22  23
HETATM   23  C   UNL     1       6.727  32.484  62.247  1.00  0.00     0.070 A 
HETATM   24  O   UNL     1       5.800  32.950  63.134  1.00  0.00    -0.325 OA
HETATM   25  C   UNL     1       6.462  33.245  64.281  1.00  0.00     0.142 A 
HETATM   26  C   UNL     1       7.804  32.981  64.144  1.00  0.00     0.027 A 
HETATM   27  C   UNL     1       7.979  32.491  62.828  1.00  0.00     0.036 A 
ENDBRANCH  22  23
ENDBRANCH  19  22
ENDBRANCH   2  18
TORSDOF 8
ENDMDL
MODEL 7
REMARK VINA RESULT:      -8.2      2.765      3.825
REMARK  8 active torsions:
REMARK  status: ('A' for Active; 'I' for Inactive)
REMARK    1  A    between atoms: C_4  and  O_5 
REMARK    2  A    between atoms: O_5  and  C_6 
REMARK    3  A    between atoms: C_6  and  C_7 
REMARK    4  A    between atoms: C_7  and  N_8 
REMARK    5  A    between atoms: N_8  and  C_9 
REMARK    6  A    between atoms: C_10  and  C_11 
REMARK       I    between atoms: C_11  and  N_12 
REMARK    7  A    between atoms: N_12  and  C_13 
REMARK    8  A    between atoms: C_13  and  C_14 
ROOT
HETATM    1  C   UNL     1       5.777  25.633  55.146  1.00  0.00     0.024 A 
HETATM    2  C   UNL     1       5.365  26.979  55.030  1.00  0.00     0.053 A 
HETATM    3  C   UNL     1       4.827  27.447  53.817  1.00  0.00     0.019 A 
HETATM    4  C   UNL     1       4.720  26.607  52.711  1.00  0.00     0.001 A 
HETATM    5  C   UNL     1       5.152  25.289  52.804  1.00  0.00     0.002 A 
HETATM    6  C   UNL     1       5.672  24.808  54.009  1.00  0.00     0.024 A 
ENDROOT
BRANCH   1   7
HETATM    7  N   UNL     1       6.219  25.035  56.350  1.00  0.00    -0.290 NA
HETATM    8  H   UNL     1       5.686  25.377  57.149  1.00  0.00     0.127 HD
BRANCH   7   9
HETATM    9  C   UNL     1       7.670  25.142  56.614  1.00  0.00     0.119 C 
BRANCH   9  10
HETATM   10  C   UNL     1       8.342  23.797  56.926  1.00  0.00     0.190 C 
BRANCH  10  11
HETATM   11  O   UNL     1       9.224  23.407  55.871  1.00  0.00    -0.350 OA
BRANCH  11  12
HETATM   12  C   UNL     1       8.855  22.351  55.082  1.00  0.00     0.068 A 
HETATM   13  C   UNL     1       8.924  21.001  55.423  1.00  0.00     0.037 A 
HETATM   14  C   UNL     1       8.524  20.023  54.506  1.00  0.00     0.003 A 
HETATM   15  C   UNL     1       8.052  20.389  53.247  1.00  0.00     0.000 A 
HETATM   16  C   UNL     1       7.986  21.735  52.899  1.00  0.00     0.003 A 
HETATM   17  C   UNL     1       8.392  22.710  53.813  1.00  0.00     0.037 A 
ENDBRANCH  11  12
ENDBRANCH  10  11
ENDBRANCH   9  10
ENDBRANCH   7   9
ENDBRANCH   1   7
BRANCH   2  18
HETATM   18  C   UNL     1       5.518  28.002  56.106  1.00  0.00     0.253 C 
HETATM   19  N   UNL     1       6.798  28.250  56.530  1.00  0.00    -0.351 N 
HETATM   20  H   UNL     1       7.559  27.719  56.112  1.00  0.00     0.163 HD
HETATM   21  O   UNL     1       4.539  28.600  56.540  1.00  0.00    -0.268 OA
BRANCH  19  22
HETATM   22  C   UNL     1       7.099  29.299  57.469  1.00  0.00     0.187 C 
BRANCH  22  23
HETATM   23  C   UNL     1       8.528  29.670  57.332  1.00  0.00     0.070 A 
HETATM   24  O   UNL     1       9.163  29.259  56.195  1.00  0.00    -0.325 OA
HETATM   25  C   UNL     1      10.444  29.700  56.275  1.00  0.00     0.142 A 
HETATM   26  C   UNL     1      10.645  30.385  57.451  1.00  0.00     0.027 A 
HETATM   27  C   UNL     1       9.407  30.365  58.137  1.00  0.00     0.036 A 
ENDBRANCH  22  23
ENDBRANCH  19  22
ENDBRANCH   2  18
TORSDOF 8
ENDMDL
MODEL 8
REMARK VINA RESULT:      -8.2      3.771      7.140
REMARK  8 active torsions:
REMARK  status: ('A' for Active; 'I' for Inactive)
REMARK    1  A    between atoms: C_4  and  O_5 
REMARK    2  A    between atoms: O_5  and  C_6 
REMARK    3  A    between atoms: C_6  and  C_7 
REMARK    4  A    between atoms: C_7  and  N_8 
REMARK    5  A    between atoms: N_8  and  C_9 
REMARK    6  A    between atoms: C_10  and  C_11 
REMARK       I    between atoms: C_11  and  N_12 
REMARK    7  A    between atoms: N_12  and  C_13 
REMARK    8  A    between atoms: C_13  and  C_14 
ROOT
HETATM    1  C   UNL     1       7.969  23.139  53.835  1.00  0.00     0.024 A 
HETATM    2  C   UNL     1       7.916  22.845  55.216  1.00  0.00     0.053 A 
HETATM    3  C   UNL     1       7.870  21.506  55.648  1.00  0.00     0.019 A 
HETATM    4  C   UNL     1       7.846  20.459  54.730  1.00  0.00     0.001 A 
HETATM    5  C   UNL     1       7.865  20.738  53.368  1.00  0.00     0.002 A 
HETATM    6  C   UNL     1       7.928  22.063  52.927  1.00  0.00     0.024 A 
ENDROOT
BRANCH   1   7
HETATM    7  N   UNL     1       8.135  24.439  53.303  1.00  0.00    -0.290 NA
HETATM    8  H   UNL     1       8.012  25.151  54.022  1.00  0.00     0.127 HD
BRANCH   7   9
HETATM    9  C   UNL     1       7.301  24.751  52.122  1.00  0.00     0.119 C 
BRANCH   9  10
HETATM   10  C   UNL     1       6.035  25.554  52.454  1.00  0.00     0.190 C 
BRANCH  10  11
HETATM   11  O   UNL     1       5.070  25.448  51.406  1.00  0.00    -0.350 OA
BRANCH  11  12
HETATM   12  C   UNL     1       5.004  26.461  50.488  1.00  0.00     0.068 A 
HETATM   13  C   UNL     1       4.617  26.344  49.153  1.00  0.00     0.037 A 
HETATM   14  C   UNL     1       4.612  27.468  48.321  1.00  0.00     0.003 A 
HETATM   15  C   UNL     1       4.991  28.714  48.819  1.00  0.00     0.000 A 
HETATM   16  C   UNL     1       5.384  28.836  50.148  1.00  0.00     0.003 A 
HETATM   17  C   UNL     1       5.395  27.711  50.976  1.00  0.00     0.037 A 
ENDBRANCH  11  12
ENDBRANCH  10  11
ENDBRANCH   9  10
ENDBRANCH   7   9
ENDBRANCH   1   7
BRANCH   2  18
HETATM   18  C   UNL     1       7.837  23.875  56.294  1.00  0.00     0.253 C 
HETATM   19  N   UNL     1       6.910  24.869  56.116  1.00  0.00    -0.351 N 
HETATM   20  H   UNL     1       6.351  24.864  55.266  1.00  0.00     0.163 HD
HETATM   21  O   UNL     1       8.547  23.789  57.290  1.00  0.00    -0.268 OA
BRANCH  19  22
HETATM   22  C   UNL     1       6.641  25.851  57.134  1.00  0.00     0.187 C 
BRANCH  22  23
HETATM   23  C   UNL     1       7.400  27.085  56.823  1.00  0.00     0.070 A 
HETATM   24  O   UNL     1       8.264  27.534  57.781  1.00  0.00    -0.325 OA
HETATM   25  C   UNL     1       8.845  28.660  57.295  1.00  0.00     0.142 A 
HETATM   26  C   UNL     1       8.365  28.946  56.039  1.00  0.00     0.027 A 
HETATM   27  C   UNL     1       7.428  27.931  55.733  1.00  0.00     0.036 A 
ENDBRANCH  22  23
ENDBRANCH  19  22
ENDBRANCH   2  18
TORSDOF 8
ENDMDL
MODEL 9
REMARK VINA RESULT:      -8.1      2.878      6.247
REMARK  8 active torsions:
REMARK  status: ('A' for Active; 'I' for Inactive)
REMARK    1  A    between atoms: C_4  and  O_5 
REMARK    2  A    between atoms: O_5  and  C_6 
REMARK    3  A    between atoms: C_6  and  C_7 
REMARK    4  A    between atoms: C_7  and  N_8 
REMARK    5  A    between atoms: N_8  and  C_9 
REMARK    6  A    between atoms: C_10  and  C_11 
REMARK       I    between atoms: C_11  and  N_12 
REMARK    7  A    between atoms: N_12  and  C_13 
REMARK    8  A    between atoms: C_13  and  C_14 
ROOT
HETATM    1  C   UNL     1       6.970  28.031  57.026  1.00  0.00     0.024 A 
HETATM    2  C   UNL     1       6.032  29.022  56.661  1.00  0.00     0.053 A 
HETATM    3  C   UNL     1       6.109  30.306  57.231  1.00  0.00     0.019 A 
HETATM    4  C   UNL     1       7.083  30.610  58.179  1.00  0.00     0.001 A 
HETATM    5  C   UNL     1       7.991  29.633  58.571  1.00  0.00     0.002 A 
HETATM    6  C   UNL     1       7.936  28.359  57.998  1.00  0.00     0.024 A 
ENDROOT
BRANCH   1   7
HETATM    7  N   UNL     1       7.052  26.752  56.428  1.00  0.00    -0.290 NA
HETATM    8  H   UNL     1       6.236  26.563  55.847  1.00  0.00     0.127 HD
BRANCH   7   9
HETATM    9  C   UNL     1       7.291  25.629  57.361  1.00  0.00     0.119 C 
BRANCH   9  10
HETATM   10  C   UNL     1       8.404  24.675  56.907  1.00  0.00     0.190 C 
BRANCH  10  11
HETATM   11  O   UNL     1       7.913  23.339  56.775  1.00  0.00    -0.350 OA
BRANCH  11  12
HETATM   12  C   UNL     1       7.940  22.764  55.534  1.00  0.00     0.068 A 
HETATM   13  C   UNL     1       8.025  23.436  54.314  1.00  0.00     0.037 A 
HETATM   14  C   UNL     1       8.027  22.716  53.114  1.00  0.00     0.003 A 
HETATM   15  C   UNL     1       7.948  21.325  53.128  1.00  0.00     0.000 A 
HETATM   16  C   UNL     1       7.857  20.650  54.341  1.00  0.00     0.003 A 
HETATM   17  C   UNL     1       7.848  21.370  55.538  1.00  0.00     0.037 A 
ENDBRANCH  11  12
ENDBRANCH  10  11
ENDBRANCH   9  10
ENDBRANCH   7   9
ENDBRANCH   1   7
BRANCH   2  18
HETATM   18  C   UNL     1       4.884  28.795  55.734  1.00  0.00     0.253 C 
HETATM   19  N   UNL     1       5.202  28.570  54.419  1.00  0.00    -0.351 N 
HETATM   20  H   UNL     1       6.182  28.590  54.147  1.00  0.00     0.163 HD
HETATM   21  O   UNL     1       3.735  28.777  56.160  1.00  0.00    -0.268 OA
BRANCH  19  22
HETATM   22  C   UNL     1       4.204  28.212  53.445  1.00  0.00     0.187 C 
BRANCH  22  23
HETATM   23  C   UNL     1       4.607  26.946  52.788  1.00  0.00     0.070 A 
HETATM   24  O   UNL     1       4.810  26.993  51.438  1.00  0.00    -0.325 OA
HETATM   25  C   UNL     1       5.167  25.743  51.048  1.00  0.00     0.142 A 
HETATM   26  C   UNL     1       5.192  24.890  52.126  1.00  0.00     0.027 A 
HETATM   27  C   UNL     1       4.828  25.666  53.252  1.00  0.00     0.036 A 
ENDBRANCH  22  23
ENDBRANCH  19  22
ENDBRANCH   2  18
TORSDOF 8
ENDMDL
MODEL 10
REMARK VINA RESULT:      -8.1      4.210      9.271
REMARK  8 active torsions:
REMARK  status: ('A' for Active; 'I' for Inactive)
REMARK    1  A    between atoms: C_4  and  O_5 
REMARK    2  A    between atoms: O_5  and  C_6 
REMARK    3  A    between atoms: C_6  and  C_7 
REMARK    4  A    between atoms: C_7  and  N_8 
REMARK    5  A    between atoms: N_8  and  C_9 
REMARK    6  A    between atoms: C_10  and  C_11 
REMARK       I    between atoms: C_11  and  N_12 
REMARK    7  A    between atoms: N_12  and  C_13 
REMARK    8  A    between atoms: C_13  and  C_14 
ROOT
HETATM    1  C   UNL     1       7.085  24.716  54.843  1.00  0.00     0.024 A 
HETATM    2  C   UNL     1       7.125  25.035  53.468  1.00  0.00     0.053 A 
HETATM    3  C   UNL     1       7.567  24.075  52.537  1.00  0.00     0.019 A 
HETATM    4  C   UNL     1       7.996  22.818  52.956  1.00  0.00     0.001 A 
HETATM    5  C   UNL     1       7.992  22.506  54.311  1.00  0.00     0.002 A 
HETATM    6  C   UNL     1       7.539  23.444  55.242  1.00  0.00     0.024 A 
ENDROOT
BRANCH   1   7
HETATM    7  N   UNL     1       6.549  25.563  55.843  1.00  0.00    -0.290 NA
HETATM    8  H   UNL     1       6.449  26.519  55.501  1.00  0.00     0.127 HD
BRANCH   7   9
HETATM    9  C   UNL     1       7.268  25.551  57.135  1.00  0.00     0.119 C 
BRANCH   9  10
HETATM   10  C   UNL     1       7.603  26.951  57.668  1.00  0.00     0.190 C 
BRANCH  10  11
HETATM   11  O   UNL     1       8.471  27.648  56.771  1.00  0.00    -0.350 OA
BRANCH  11  12
HETATM   12  C   UNL     1       9.074  28.792  57.219  1.00  0.00     0.068 A 
HETATM   13  C   UNL     1      10.320  29.278  56.824  1.00  0.00     0.037 A 
HETATM   14  C   UNL     1      10.822  30.459  57.380  1.00  0.00     0.003 A 
HETATM   15  C   UNL     1      10.081  31.160  58.330  1.00  0.00     0.000 A 
HETATM   16  C   UNL     1       8.840  30.677  58.732  1.00  0.00     0.003 A 
HETATM   17  C   UNL     1       8.343  29.494  58.181  1.00  0.00     0.037 A 
ENDBRANCH  11  12
ENDBRANCH  10  11
ENDBRANCH   9  10
ENDBRANCH   7   9
ENDBRANCH   1   7
BRANCH   2  18
HETATM   18  C   UNL     1       6.786  26.374  52.903  1.00  0.00     0.253 C 
HETATM   19  N   UNL     1       5.978  26.378  51.795  1.00  0.00    -0.351 N 
HETATM   20  H   UNL     1       5.676  25.486  51.412  1.00  0.00     0.163 HD
HETATM   21  O   UNL     1       7.190  27.398  53.443  1.00  0.00    -0.268 OA
BRANCH  19  22
HETATM   22  C   UNL     1       5.472  27.601  51.226  1.00  0.00     0.187 C 
BRANCH  22  23
HETATM   23  C   UNL     1       5.108  27.357  49.811  1.00  0.00     0.070 A 
HETATM   24  O   UNL     1       5.554  28.268  48.896  1.00  0.00    -0.325 OA
HETATM   25  C   UNL     1       5.113  27.858  47.680  1.00  0.00     0.142 A 
HETATM   26  C   UNL     1       4.385  26.697  47.798  1.00  0.00     0.027 A 
HETATM   27  C   UNL     1       4.379  26.373  49.176  1.00  0.00     0.036 A 
ENDBRANCH  22  23
ENDBRANCH  19  22
ENDBRANCH   2  18
TORSDOF 8
ENDMDL
