MODEL 1
REMARK VINA RESULT:      -9.0      0.000      0.000
REMARK  3 active torsions:
REMARK  status: ('A' for Active; 'I' for Inactive)
REMARK    1  A    between atoms: C_4  and  C_5 
REMARK    2  A    between atoms: C_11  and  C_12 
REMARK    3  A    between atoms: C_21  and  N_22 
ROOT
HETATM    1  C   UNL     1       6.309  24.556  53.285  1.00  0.00     0.071 A 
HETATM    2  N   UNL     1       5.813  24.504  52.000  1.00  0.00    -0.274 N 
HETATM    3  H   UNL     1       5.920  23.750  51.329  1.00  0.00     0.189 HD
HETATM    4  N   UNL     1       5.074  25.571  51.647  1.00  0.00    -0.148 NA
HETATM    5  C   UNL     1       5.110  26.311  52.746  1.00  0.00     0.199 A 
HETATM    6  C   UNL     1       5.889  25.779  53.784  1.00  0.00     0.036 A 
HETATM    7  C   UNL     1       6.045  26.512  55.082  1.00  0.00     0.079 A 
HETATM    8  C   UNL     1       5.104  27.737  55.085  1.00  0.00     0.063 A 
HETATM    9  C   UNL     1       5.081  28.564  56.360  1.00  0.00     0.020 C 
HETATM   10  N   UNL     1       5.061  29.251  57.418  1.00  0.00    -0.096 N 
HETATM   11  C   UNL     1       4.373  28.141  54.015  1.00  0.00     0.139 A 
HETATM   12  O   UNL     1       4.401  27.452  52.800  1.00  0.00    -0.277 OA
ENDROOT
BRANCH   7  13
HETATM   13  C   UNL     1       7.515  26.943  55.430  1.00  0.00     0.022 C 
HETATM   14  C   UNL     1       7.819  28.386  55.096  1.00  0.00    -0.025 C 
HETATM   15  C   UNL     1       8.333  29.264  55.970  1.00  0.00    -0.030 C 
HETATM   16  C   UNL     1       8.610  28.936  57.403  1.00  0.00     0.027 C 
HETATM   17  C   UNL     1       7.894  27.670  57.871  1.00  0.00     0.004 C 
HETATM   18  C   UNL     1       7.998  26.543  56.845  1.00  0.00     0.010 C 
ENDBRANCH   7  13
BRANCH  11  19
HETATM   19  N   UNL     1       3.558  29.250  53.981  1.00  0.00    -0.282 NA
HETATM   20  H   UNL     1       3.970  30.121  54.309  1.00  0.00     0.126 HD
HETATM   21  H   UNL     1       3.083  29.343  53.086  1.00  0.00     0.126 HD
ENDBRANCH  11  19
BRANCH   1  22
HETATM   22  C   UNL     1       7.069  23.451  53.851  1.00  0.00    -0.007 A 
HETATM   23  C   UNL     1       7.115  23.259  55.239  1.00  0.00     0.014 A 
HETATM   24  C   UNL     1       7.853  22.206  55.784  1.00  0.00     0.001 A 
HETATM   25  C   UNL     1       8.555  21.342  54.946  1.00  0.00     0.000 A 
HETATM   26  C   UNL     1       8.521  21.529  53.566  1.00  0.00     0.001 A 
HETATM   27  C   UNL     1       7.782  22.581  53.020  1.00  0.00     0.014 A 
ENDBRANCH   1  22
TORSDOF 3
ENDMDL
MODEL 2
REMARK VINA RESULT:      -9.0      9.682     12.611
REMARK  3 active torsions:
REMARK  status: ('A' for Active; 'I' for Inactive)
REMARK    1  A    between atoms: C_4  and  C_5 
REMARK    2  A    between atoms: C_11  and  C_12 
REMARK    3  A    between atoms: C_21  and  N_22 
ROOT
HETATM    1  C   UNL     1       5.674  33.161  63.729  1.00  0.00     0.071 A 
HETATM    2  N   UNL     1       6.648  32.328  63.222  1.00  0.00    -0.274 N 
HETATM    3  H   UNL     1       7.458  31.959  63.711  1.00  0.00     0.189 HD
HETATM    4  N   UNL     1       6.444  31.948  61.948  1.00  0.00    -0.148 NA
HETATM    5  C   UNL     1       5.309  32.563  61.652  1.00  0.00     0.199 A 
HETATM    6  C   UNL     1       4.794  33.368  62.678  1.00  0.00     0.036 A 
HETATM    7  C   UNL     1       3.528  34.146  62.485  1.00  0.00     0.079 A 
HETATM    8  C   UNL     1       2.892  33.746  61.135  1.00  0.00     0.063 A 
HETATM    9  C   UNL     1       1.556  34.391  60.803  1.00  0.00     0.020 C 
HETATM   10  N   UNL     1       0.448  34.926  60.527  1.00  0.00    -0.096 N 
HETATM   11  C   UNL     1       3.482  32.929  60.226  1.00  0.00     0.139 A 
HETATM   12  O   UNL     1       4.735  32.354  60.454  1.00  0.00    -0.277 OA
ENDROOT
BRANCH   7  13
HETATM   13  C   UNL     1       3.683  35.706  62.582  1.00  0.00     0.022 C 
HETATM   14  C   UNL     1       3.722  36.224  64.002  1.00  0.00    -0.025 C 
HETATM   15  C   UNL     1       4.688  37.019  64.483  1.00  0.00    -0.030 C 
HETATM   16  C   UNL     1       5.883  37.439  63.686  1.00  0.00     0.027 C 
HETATM   17  C   UNL     1       6.103  36.575  62.446  1.00  0.00     0.004 C 
HETATM   18  C   UNL     1       4.800  36.310  61.696  1.00  0.00     0.010 C 
ENDBRANCH   7  13
BRANCH  11  19
HETATM   19  N   UNL     1       2.954  32.589  59.000  1.00  0.00    -0.282 NA
HETATM   20  H   UNL     1       2.925  33.329  58.303  1.00  0.00     0.126 HD
HETATM   21  H   UNL     1       3.348  31.720  58.646  1.00  0.00     0.126 HD
ENDBRANCH  11  19
BRANCH   1  22
HETATM   22  C   UNL     1       5.703  33.609  65.114  1.00  0.00    -0.007 A 
HETATM   23  C   UNL     1       6.920  33.929  65.730  1.00  0.00     0.014 A 
HETATM   24  C   UNL     1       6.952  34.349  67.061  1.00  0.00     0.001 A 
HETATM   25  C   UNL     1       5.766  34.446  67.789  1.00  0.00     0.000 A 
HETATM   26  C   UNL     1       4.552  34.124  67.187  1.00  0.00     0.001 A 
HETATM   27  C   UNL     1       4.519  33.706  65.854  1.00  0.00     0.014 A 
ENDBRANCH   1  22
TORSDOF 3
ENDMDL
MODEL 3
REMARK VINA RESULT:      -8.7      7.314     11.291
REMARK  3 active torsions:
REMARK  status: ('A' for Active; 'I' for Inactive)
REMARK    1  A    between atoms: C_4  and  C_5 
REMARK    2  A    between atoms: C_11  and  C_12 
REMARK    3  A    between atoms: C_21  and  N_22 
ROOT
HETATM    1  C   UNL     1       4.269  34.248  61.077  1.00  0.00     0.071 A 
HETATM    2  N   UNL     1       3.046  34.148  60.447  1.00  0.00    -0.274 N 
HETATM    3  H   UNL     1       2.224  34.720  60.606  1.00  0.00     0.189 HD
HETATM    4  N   UNL     1       2.991  33.202  59.491  1.00  0.00    -0.148 NA
HETATM    5  C   UNL     1       4.216  32.699  59.527  1.00  0.00     0.199 A 
HETATM    6  C   UNL     1       5.050  33.254  60.508  1.00  0.00     0.036 A 
HETATM    7  C   UNL     1       6.457  32.771  60.686  1.00  0.00     0.079 A 
HETATM    8  C   UNL     1       6.799  31.785  59.547  1.00  0.00     0.063 A 
HETATM    9  C   UNL     1       8.219  31.243  59.530  1.00  0.00     0.020 C 
HETATM   10  N   UNL     1       9.397  30.793  59.515  1.00  0.00    -0.096 N 
HETATM   11  C   UNL     1       5.903  31.336  58.632  1.00  0.00     0.139 A 
HETATM   12  O   UNL     1       4.571  31.756  58.636  1.00  0.00    -0.277 OA
ENDROOT
BRANCH   7  13
HETATM   13  C   UNL     1       6.769  32.130  62.085  1.00  0.00     0.022 C 
HETATM   14  C   UNL     1       7.836  32.865  62.865  1.00  0.00    -0.025 C 
HETATM   15  C   UNL     1       7.680  33.296  64.125  1.00  0.00    -0.030 C 
HETATM   16  C   UNL     1       6.402  33.157  64.891  1.00  0.00     0.027 C 
HETATM   17  C   UNL     1       5.202  32.856  63.995  1.00  0.00     0.004 C 
HETATM   18  C   UNL     1       5.525  31.796  62.944  1.00  0.00     0.010 C 
ENDBRANCH   7  13
BRANCH  11  19
HETATM   19  N   UNL     1       6.173  30.427  57.632  1.00  0.00    -0.282 NA
HETATM   20  H   UNL     1       6.522  29.520  57.932  1.00  0.00     0.126 HD
HETATM   21  H   UNL     1       5.408  30.362  56.965  1.00  0.00     0.126 HD
ENDBRANCH  11  19
BRANCH   1  22
HETATM   22  C   UNL     1       4.522  35.266  62.086  1.00  0.00    -0.007 A 
HETATM   23  C   UNL     1       5.765  35.911  62.147  1.00  0.00     0.014 A 
HETATM   24  C   UNL     1       6.013  36.880  63.121  1.00  0.00     0.001 A 
HETATM   25  C   UNL     1       5.022  37.207  64.046  1.00  0.00     0.000 A 
HETATM   26  C   UNL     1       3.786  36.567  63.997  1.00  0.00     0.001 A 
HETATM   27  C   UNL     1       3.536  35.598  63.022  1.00  0.00     0.014 A 
ENDBRANCH   1  22
TORSDOF 3
ENDMDL
MODEL 4
REMARK VINA RESULT:      -8.7      2.579      4.545
REMARK  3 active torsions:
REMARK  status: ('A' for Active; 'I' for Inactive)
REMARK    1  A    between atoms: C_4  and  C_5 
REMARK    2  A    between atoms: C_11  and  C_12 
REMARK    3  A    between atoms: C_21  and  N_22 
ROOT
HETATM    1  C   UNL     1       8.358  23.627  56.633  1.00  0.00     0.071 A 
HETATM    2  N   UNL     1       8.625  23.696  57.985  1.00  0.00    -0.274 N 
HETATM    3  H   UNL     1       8.931  22.942  58.590  1.00  0.00     0.189 HD
HETATM    4  N   UNL     1       8.494  24.926  58.513  1.00  0.00    -0.148 NA
HETATM    5  C   UNL     1       8.136  25.646  57.459  1.00  0.00     0.199 A 
HETATM    6  C   UNL     1       7.983  24.912  56.274  1.00  0.00     0.036 A 
HETATM    7  C   UNL     1       7.559  25.583  55.003  1.00  0.00     0.079 A 
HETATM    8  C   UNL     1       7.530  27.111  55.225  1.00  0.00     0.063 A 
HETATM    9  C   UNL     1       7.184  27.961  54.014  1.00  0.00     0.020 C 
HETATM   10  N   UNL     1       6.897  28.667  53.009  1.00  0.00    -0.096 N 
HETATM   11  C   UNL     1       7.721  27.711  56.428  1.00  0.00     0.139 A 
HETATM   12  O   UNL     1       7.984  26.976  57.586  1.00  0.00    -0.277 OA
ENDROOT
BRANCH   7  13
HETATM   13  C   UNL     1       6.193  25.084  54.411  1.00  0.00     0.022 C 
HETATM   14  C   UNL     1       5.092  26.119  54.467  1.00  0.00    -0.025 C 
HETATM   15  C   UNL     1       4.363  26.495  53.407  1.00  0.00    -0.030 C 
HETATM   16  C   UNL     1       4.593  25.978  52.022  1.00  0.00     0.027 C 
HETATM   17  C   UNL     1       5.958  25.313  51.857  1.00  0.00     0.004 C 
HETATM   18  C   UNL     1       6.291  24.392  53.029  1.00  0.00     0.010 C 
ENDBRANCH   7  13
BRANCH  11  19
HETATM   19  N   UNL     1       7.660  29.068  56.659  1.00  0.00    -0.282 NA
HETATM   20  H   UNL     1       7.916  29.376  57.594  1.00  0.00     0.126 HD
HETATM   21  H   UNL     1       8.121  29.598  55.923  1.00  0.00     0.126 HD
ENDBRANCH  11  19
BRANCH   1  22
HETATM   22  C   UNL     1       8.520  22.386  55.890  1.00  0.00    -0.007 A 
HETATM   23  C   UNL     1       8.850  22.413  54.528  1.00  0.00     0.014 A 
HETATM   24  C   UNL     1       8.995  21.224  53.810  1.00  0.00     0.001 A 
HETATM   25  C   UNL     1       8.806  19.999  54.448  1.00  0.00     0.000 A 
HETATM   26  C   UNL     1       8.471  19.962  55.800  1.00  0.00     0.001 A 
HETATM   27  C   UNL     1       8.328  21.151  56.519  1.00  0.00     0.014 A 
ENDBRANCH   1  22
TORSDOF 3
ENDMDL
MODEL 5
REMARK VINA RESULT:      -8.6      2.143      5.340
REMARK  3 active torsions:
REMARK  status: ('A' for Active; 'I' for Inactive)
REMARK    1  A    between atoms: C_4  and  C_5 
REMARK    2  A    between atoms: C_11  and  C_12 
REMARK    3  A    between atoms: C_21  and  N_22 
ROOT
HETATM    1  C   UNL     1       6.513  29.106  55.226  1.00  0.00     0.071 A 
HETATM    2  N   UNL     1       5.446  29.960  55.036  1.00  0.00    -0.274 N 
HETATM    3  H   UNL     1       5.242  30.813  55.546  1.00  0.00     0.189 HD
HETATM    4  N   UNL     1       4.631  29.611  54.024  1.00  0.00    -0.148 NA
HETATM    5  C   UNL     1       5.207  28.508  53.569  1.00  0.00     0.199 A 
HETATM    6  C   UNL     1       6.343  28.103  54.285  1.00  0.00     0.036 A 
HETATM    7  C   UNL     1       7.090  26.861  53.904  1.00  0.00     0.079 A 
HETATM    8  C   UNL     1       6.511  26.310  52.583  1.00  0.00     0.063 A 
HETATM    9  C   UNL     1       7.197  25.081  52.008  1.00  0.00     0.020 C 
HETATM   10  N   UNL     1       7.766  24.062  51.531  1.00  0.00    -0.096 N 
HETATM   11  C   UNL     1       5.410  26.808  51.965  1.00  0.00     0.139 A 
HETATM   12  O   UNL     1       4.706  27.899  52.480  1.00  0.00    -0.277 OA
ENDROOT
BRANCH   7  13
HETATM   13  C   UNL     1       7.121  25.740  55.005  1.00  0.00     0.022 C 
HETATM   14  C   UNL     1       8.251  25.896  55.998  1.00  0.00    -0.025 C 
HETATM   15  C   UNL     1       8.081  25.914  57.328  1.00  0.00    -0.030 C 
HETATM   16  C   UNL     1       6.741  25.845  57.989  1.00  0.00     0.027 C 
HETATM   17  C   UNL     1       5.590  26.155  57.033  1.00  0.00     0.004 C 
HETATM   18  C   UNL     1       5.761  25.454  55.687  1.00  0.00     0.010 C 
ENDBRANCH   7  13
BRANCH  11  19
HETATM   19  N   UNL     1       4.852  26.310  50.809  1.00  0.00    -0.282 NA
HETATM   20  H   UNL     1       4.011  25.749  50.921  1.00  0.00     0.126 HD
HETATM   21  H   UNL     1       4.762  27.028  50.093  1.00  0.00     0.126 HD
ENDBRANCH  11  19
BRANCH   1  22
HETATM   22  C   UNL     1       7.529  29.374  56.232  1.00  0.00    -0.007 A 
HETATM   23  C   UNL     1       8.885  29.413  55.878  1.00  0.00     0.014 A 
HETATM   24  C   UNL     1       9.863  29.659  56.844  1.00  0.00     0.001 A 
HETATM   25  C   UNL     1       9.493  29.863  58.172  1.00  0.00     0.000 A 
HETATM   26  C   UNL     1       8.148  29.821  58.535  1.00  0.00     0.001 A 
HETATM   27  C   UNL     1       7.169  29.576  57.569  1.00  0.00     0.014 A 
ENDBRANCH   1  22
TORSDOF 3
ENDMDL
MODEL 6
REMARK VINA RESULT:      -8.5      1.989      3.171
REMARK  3 active torsions:
REMARK  status: ('A' for Active; 'I' for Inactive)
REMARK    1  A    between atoms: C_4  and  C_5 
REMARK    2  A    between atoms: C_11  and  C_12 
REMARK    3  A    between atoms: C_21  and  N_22 
ROOT
HETATM    1  C   UNL     1       5.304  27.582  54.259  1.00  0.00     0.071 A 
HETATM    2  N   UNL     1       5.009  27.895  52.949  1.00  0.00    -0.274 N 
HETATM    3  H   UNL     1       5.244  27.359  52.120  1.00  0.00     0.189 HD
HETATM    4  N   UNL     1       4.292  29.024  52.797  1.00  0.00    -0.148 NA
HETATM    5  C   UNL     1       4.136  29.425  54.050  1.00  0.00     0.199 A 
HETATM    6  C   UNL     1       4.768  28.619  55.006  1.00  0.00     0.036 A 
HETATM    7  C   UNL     1       4.701  28.957  56.465  1.00  0.00     0.079 A 
HETATM    8  C   UNL     1       3.725  30.138  56.663  1.00  0.00     0.063 A 
HETATM    9  C   UNL     1       3.479  30.574  58.098  1.00  0.00     0.020 C 
HETATM   10  N   UNL     1       3.276  30.937  59.289  1.00  0.00    -0.096 N 
HETATM   11  C   UNL     1       3.148  30.830  55.648  1.00  0.00     0.139 A 
HETATM   12  O   UNL     1       3.384  30.509  54.309  1.00  0.00    -0.277 OA
ENDROOT
BRANCH   7  13
HETATM   13  C   UNL     1       6.085  29.264  57.142  1.00  0.00     0.022 C 
HETATM   14  C   UNL     1       6.714  28.061  57.807  1.00  0.00    -0.025 C 
HETATM   15  C   UNL     1       7.964  27.640  57.566  1.00  0.00    -0.030 C 
HETATM   16  C   UNL     1       8.868  28.277  56.558  1.00  0.00     0.027 C 
HETATM   17  C   UNL     1       8.119  29.166  55.567  1.00  0.00     0.004 C 
HETATM   18  C   UNL     1       7.085  30.051  56.260  1.00  0.00     0.010 C 
ENDBRANCH   7  13
BRANCH  11  19
HETATM   19  N   UNL     1       2.307  31.910  55.798  1.00  0.00    -0.282 NA
HETATM   20  H   UNL     1       2.626  32.788  55.395  1.00  0.00     0.126 HD
HETATM   21  H   UNL     1       1.348  31.680  55.549  1.00  0.00     0.126 HD
ENDBRANCH  11  19
BRANCH   1  22
HETATM   22  C   UNL     1       6.011  26.358  54.606  1.00  0.00    -0.007 A 
HETATM   23  C   UNL     1       5.557  25.550  55.657  1.00  0.00     0.014 A 
HETATM   24  C   UNL     1       6.240  24.381  55.999  1.00  0.00     0.001 A 
HETATM   25  C   UNL     1       7.386  24.014  55.295  1.00  0.00     0.000 A 
HETATM   26  C   UNL     1       7.849  24.814  54.252  1.00  0.00     0.001 A 
HETATM   27  C   UNL     1       7.165  25.983  53.909  1.00  0.00     0.014 A 
ENDBRANCH   1  22
TORSDOF 3
ENDMDL
MODEL 7
REMARK VINA RESULT:      -8.5     14.871     17.344
REMARK  3 active torsions:
REMARK  status: ('A' for Active; 'I' for Inactive)
REMARK    1  A    between atoms: C_4  and  C_5 
REMARK    2  A    between atoms: C_11  and  C_12 
REMARK    3  A    between atoms: C_21  and  N_22 
ROOT
HETATM    1  C   UNL     1      13.893  11.079  51.778  1.00  0.00     0.071 A 
HETATM    2  N   UNL     1      13.740  12.235  51.042  1.00  0.00    -0.274 N 
HETATM    3  H   UNL     1      14.268  12.516  50.222  1.00  0.00     0.189 HD
HETATM    4  N   UNL     1      12.741  13.032  51.462  1.00  0.00    -0.148 NA
HETATM    5  C   UNL     1      12.257  12.352  52.491  1.00  0.00     0.199 A 
HETATM    6  C   UNL     1      12.940  11.163  52.782  1.00  0.00     0.036 A 
HETATM    7  C   UNL     1      12.524  10.297  53.932  1.00  0.00     0.079 A 
HETATM    8  C   UNL     1      11.208  10.845  54.525  1.00  0.00     0.063 A 
HETATM    9  C   UNL     1      10.598  10.046  55.665  1.00  0.00     0.020 C 
HETATM   10  N   UNL     1      10.093   9.383  56.611  1.00  0.00    -0.096 N 
HETATM   11  C   UNL     1      10.623  12.008  54.139  1.00  0.00     0.139 A 
HETATM   12  O   UNL     1      11.170  12.812  53.136  1.00  0.00    -0.277 OA
ENDROOT
BRANCH   7  13
HETATM   13  C   UNL     1      13.606  10.120  55.057  1.00  0.00     0.022 C 
HETATM   14  C   UNL     1      14.589   9.004  54.783  1.00  0.00    -0.025 C 
HETATM   15  C   UNL     1      15.921   9.158  54.804  1.00  0.00    -0.030 C 
HETATM   16  C   UNL     1      16.596  10.472  55.041  1.00  0.00     0.027 C 
HETATM   17  C   UNL     1      15.657  11.663  54.856  1.00  0.00     0.004 C 
HETATM   18  C   UNL     1      14.298  11.428  55.512  1.00  0.00     0.010 C 
ENDBRANCH   7  13
BRANCH  11  19
HETATM   19  N   UNL     1       9.472  12.538  54.679  1.00  0.00    -0.282 NA
HETATM   20  H   UNL     1       8.604  12.063  54.442  1.00  0.00     0.126 HD
HETATM   21  H   UNL     1       9.570  12.718  55.675  1.00  0.00     0.126 HD
ENDBRANCH  11  19
BRANCH   1  22
HETATM   22  C   UNL     1      14.880  10.072  51.416  1.00  0.00    -0.007 A 
HETATM   23  C   UNL     1      14.483   8.757  51.138  1.00  0.00     0.014 A 
HETATM   24  C   UNL     1      15.429   7.788  50.800  1.00  0.00     0.001 A 
HETATM   25  C   UNL     1      16.781   8.125  50.744  1.00  0.00     0.000 A 
HETATM   26  C   UNL     1      17.186   9.428  51.026  1.00  0.00     0.001 A 
HETATM   27  C   UNL     1      16.240  10.399  51.361  1.00  0.00     0.014 A 
ENDBRANCH   1  22
TORSDOF 3
ENDMDL
MODEL 8
REMARK VINA RESULT:      -8.4      2.425      5.300
REMARK  3 active torsions:
REMARK  status: ('A' for Active; 'I' for Inactive)
REMARK    1  A    between atoms: C_4  and  C_5 
REMARK    2  A    between atoms: C_11  and  C_12 
REMARK    3  A    between atoms: C_21  and  N_22 
ROOT
HETATM    1  C   UNL     1       6.031  29.753  55.933  1.00  0.00     0.071 A 
HETATM    2  N   UNL     1       5.119  30.691  56.369  1.00  0.00    -0.274 N 
HETATM    3  H   UNL     1       5.243  31.370  57.113  1.00  0.00     0.189 HD
HETATM    4  N   UNL     1       3.965  30.705  55.678  1.00  0.00    -0.148 NA
HETATM    5  C   UNL     1       4.164  29.747  54.784  1.00  0.00     0.199 A 
HETATM    6  C   UNL     1       5.391  29.080  54.904  1.00  0.00     0.036 A 
HETATM    7  C   UNL     1       5.751  27.957  53.979  1.00  0.00     0.079 A 
HETATM    8  C   UNL     1       4.678  27.852  52.873  1.00  0.00     0.063 A 
HETATM    9  C   UNL     1       4.918  26.803  51.800  1.00  0.00     0.020 C 
HETATM   10  N   UNL     1       5.116  25.932  50.909  1.00  0.00    -0.096 N 
HETATM   11  C   UNL     1       3.532  28.578  52.851  1.00  0.00     0.139 A 
HETATM   12  O   UNL     1       3.232  29.515  53.843  1.00  0.00    -0.277 OA
ENDROOT
BRANCH   7  13
HETATM   13  C   UNL     1       5.966  26.565  54.675  1.00  0.00     0.022 C 
HETATM   14  C   UNL     1       7.414  26.257  54.980  1.00  0.00    -0.025 C 
HETATM   15  C   UNL     1       7.864  25.899  56.191  1.00  0.00    -0.030 C 
HETATM   16  C   UNL     1       6.992  25.822  57.405  1.00  0.00     0.027 C 
HETATM   17  C   UNL     1       5.667  26.562  57.232  1.00  0.00     0.004 C 
HETATM   18  C   UNL     1       5.029  26.280  55.874  1.00  0.00     0.010 C 
ENDBRANCH   7  13
BRANCH  11  19
HETATM   19  N   UNL     1       2.542  28.475  51.898  1.00  0.00    -0.282 NA
HETATM   20  H   UNL     1       1.601  28.304  52.244  1.00  0.00     0.126 HD
HETATM   21  H   UNL     1       2.589  29.234  51.221  1.00  0.00     0.126 HD
ENDBRANCH  11  19
BRANCH   1  22
HETATM   22  C   UNL     1       7.357  29.651  56.525  1.00  0.00    -0.007 A 
HETATM   23  C   UNL     1       7.531  29.811  57.906  1.00  0.00     0.014 A 
HETATM   24  C   UNL     1       8.804  29.724  58.475  1.00  0.00     0.001 A 
HETATM   25  C   UNL     1       9.913  29.482  57.665  1.00  0.00     0.000 A 
HETATM   26  C   UNL     1       9.750  29.329  56.290  1.00  0.00     0.001 A 
HETATM   27  C   UNL     1       8.478  29.414  55.721  1.00  0.00     0.014 A 
ENDBRANCH   1  22
TORSDOF 3
ENDMDL
MODEL 9
REMARK VINA RESULT:      -8.1      2.179      5.130
REMARK  3 active torsions:
REMARK  status: ('A' for Active; 'I' for Inactive)
REMARK    1  A    between atoms: C_4  and  C_5 
REMARK    2  A    between atoms: C_11  and  C_12 
REMARK    3  A    between atoms: C_21  and  N_22 
ROOT
HETATM    1  C   UNL     1       5.337  28.487  54.957  1.00  0.00     0.071 A 
HETATM    2  N   UNL     1       4.192  28.881  55.618  1.00  0.00    -0.274 N 
HETATM    3  H   UNL     1       4.075  29.015  56.617  1.00  0.00     0.189 HD
HETATM    4  N   UNL     1       3.150  29.148  54.811  1.00  0.00    -0.148 NA
HETATM    5  C   UNL     1       3.660  28.914  53.610  1.00  0.00     0.199 A 
HETATM    6  C   UNL     1       4.985  28.458  53.616  1.00  0.00     0.036 A 
HETATM    7  C   UNL     1       5.692  28.128  52.336  1.00  0.00     0.079 A 
HETATM    8  C   UNL     1       4.801  28.549  51.147  1.00  0.00     0.063 A 
HETATM    9  C   UNL     1       5.391  28.350  49.760  1.00  0.00     0.020 C 
HETATM   10  N   UNL     1       5.880  28.184  48.609  1.00  0.00    -0.096 N 
HETATM   11  C   UNL     1       3.529  29.006  51.270  1.00  0.00     0.139 A 
HETATM   12  O   UNL     1       2.916  29.154  52.517  1.00  0.00    -0.277 OA
ENDROOT
BRANCH   7  13
HETATM   13  C   UNL     1       6.139  26.630  52.189  1.00  0.00     0.022 C 
HETATM   14  C   UNL     1       7.484  26.334  52.814  1.00  0.00    -0.025 C 
HETATM   15  C   UNL     1       7.697  25.352  53.702  1.00  0.00    -0.030 C 
HETATM   16  C   UNL     1       6.612  24.466  54.229  1.00  0.00     0.027 C 
HETATM   17  C   UNL     1       5.214  25.031  53.984  1.00  0.00     0.004 C 
HETATM   18  C   UNL     1       5.061  25.584  52.568  1.00  0.00     0.010 C 
ENDBRANCH   7  13
BRANCH  11  19
HETATM   19  N   UNL     1       2.701  29.350  50.224  1.00  0.00    -0.282 NA
HETATM   20  H   UNL     1       1.955  30.007  50.438  1.00  0.00     0.126 HD
HETATM   21  H   UNL     1       3.229  29.601  49.391  1.00  0.00     0.126 HD
ENDBRANCH  11  19
BRANCH   1  22
HETATM   22  C   UNL     1       6.577  28.228  55.673  1.00  0.00    -0.007 A 
HETATM   23  C   UNL     1       6.629  27.238  56.665  1.00  0.00     0.014 A 
HETATM   24  C   UNL     1       7.814  26.994  57.361  1.00  0.00     0.001 A 
HETATM   25  C   UNL     1       8.955  27.743  57.075  1.00  0.00     0.000 A 
HETATM   26  C   UNL     1       8.911  28.733  56.096  1.00  0.00     0.001 A 
HETATM   27  C   UNL     1       7.726  28.976  55.398  1.00  0.00     0.014 A 
ENDBRANCH   1  22
TORSDOF 3
ENDMDL
MODEL 10
REMARK VINA RESULT:      -8.1      8.454     11.493
REMARK  3 active torsions:
REMARK  status: ('A' for Active; 'I' for Inactive)
REMARK    1  A    between atoms: C_4  and  C_5 
REMARK    2  A    between atoms: C_11  and  C_12 
REMARK    3  A    between atoms: C_21  and  N_22 
ROOT
HETATM    1  C   UNL     1       4.681  32.428  61.457  1.00  0.00     0.071 A 
HETATM    2  N   UNL     1       4.497  31.330  62.271  1.00  0.00    -0.274 N 
HETATM    3  H   UNL     1       4.336  30.371  61.983  1.00  0.00     0.189 HD
HETATM    4  N   UNL     1       4.593  31.594  63.587  1.00  0.00    -0.148 NA
HETATM    5  C   UNL     1       4.844  32.895  63.593  1.00  0.00     0.199 A 
HETATM    6  C   UNL     1       4.866  33.493  62.325  1.00  0.00     0.036 A 
HETATM    7  C   UNL     1       5.114  34.963  62.171  1.00  0.00     0.079 A 
HETATM    8  C   UNL     1       5.493  35.556  63.546  1.00  0.00     0.063 A 
HETATM    9  C   UNL     1       5.848  37.034  63.566  1.00  0.00     0.020 C 
HETATM   10  N   UNL     1       6.142  38.261  63.584  1.00  0.00    -0.096 N 
HETATM   11  C   UNL     1       5.458  34.864  64.712  1.00  0.00     0.139 A 
HETATM   12  O   UNL     1       5.084  33.518  64.760  1.00  0.00    -0.277 OA
ENDROOT
BRANCH   7  13
HETATM   13  C   UNL     1       3.933  35.773  61.526  1.00  0.00     0.022 C 
HETATM   14  C   UNL     1       3.984  35.820  60.015  1.00  0.00    -0.025 C 
HETATM   15  C   UNL     1       2.961  35.471  59.221  1.00  0.00    -0.030 C 
HETATM   16  C   UNL     1       1.663  34.932  59.736  1.00  0.00     0.027 C 
HETATM   17  C   UNL     1       1.755  34.445  61.181  1.00  0.00     0.004 C 
HETATM   18  C   UNL     1       2.525  35.422  62.066  1.00  0.00     0.010 C 
ENDBRANCH   7  13
BRANCH  11  19
HETATM   19  N   UNL     1       5.753  35.380  65.955  1.00  0.00    -0.282 NA
HETATM   20  H   UNL     1       5.857  34.705  66.709  1.00  0.00     0.126 HD
HETATM   21  H   UNL     1       6.514  36.054  65.913  1.00  0.00     0.126 HD
ENDBRANCH  11  19
BRANCH   1  22
HETATM   22  C   UNL     1       4.680  32.307  60.007  1.00  0.00    -0.007 A 
HETATM   23  C   UNL     1       3.570  31.768  59.341  1.00  0.00     0.014 A 
HETATM   24  C   UNL     1       3.571  31.640  57.951  1.00  0.00     0.001 A 
HETATM   25  C   UNL     1       4.684  32.045  57.216  1.00  0.00     0.000 A 
HETATM   26  C   UNL     1       5.795  32.575  57.869  1.00  0.00     0.001 A 
HETATM   27  C   UNL     1       5.794  32.705  59.260  1.00  0.00     0.014 A 
ENDBRANCH   1  22
TORSDOF 3
ENDMDL
