MODEL 1
REMARK VINA RESULT:      -9.4      0.000      0.000
REMARK  9 active torsions:
REMARK  status: ('A' for Active; 'I' for Inactive)
REMARK    1  A    between atoms: C_2  and  C_3 
REMARK    2  A    between atoms: C_3  and  N_4 
REMARK    3  A    between atoms: N_4  and  C_7 
REMARK    4  A    between atoms: C_7  and  C_8 
REMARK       I    between atoms: C_8  and  N_9 
REMARK    5  A    between atoms: N_9  and  C_10 
REMARK    6  A    between atoms: C_16  and  C_17 
REMARK    7  A    between atoms: C_22  and  C_23 
REMARK       I    between atoms: C_23  and  N_24 
REMARK    8  A    between atoms: N_24  and  C_25 
REMARK    9  A    between atoms: C_28  and  O_29 
ROOT
HETATM    1  C   UNL     1       6.506  27.175  53.301  1.00  0.00     0.093 A 
HETATM    2  S   UNL     1       6.392  25.723  52.444  1.00  0.00    -0.075 SA
HETATM    3  C   UNL     1       7.046  24.839  53.735  1.00  0.00    -0.008 A 
HETATM    4  C   UNL     1       7.311  25.622  54.846  1.00  0.00    -0.026 A 
HETATM    5  C   UNL     1       7.895  24.997  56.082  1.00  0.00     0.041 C 
HETATM    6  C   UNL     1       8.529  23.625  55.809  1.00  0.00     0.010 C 
HETATM    7  C   UNL     1       7.603  22.707  54.968  1.00  0.00    -0.002 C 
HETATM    8  C   UNL     1       7.336  23.372  53.591  1.00  0.00     0.052 C 
HETATM    9  C   UNL     1       6.980  27.016  54.602  1.00  0.00     0.073 A 
ENDROOT
BRANCH   1  10
HETATM   10  N   UNL     1       6.195  28.389  52.704  1.00  0.00    -0.319 N 
HETATM   11  C   UNL     1       4.949  28.861  52.370  1.00  0.00     0.248 C 
HETATM   12  O   UNL     1       3.849  28.374  52.622  1.00  0.00    -0.271 OA
HETATM   13  H   UNL     1       7.017  28.990  52.586  1.00  0.00     0.169 HD
BRANCH  11  14
HETATM   14  C   UNL     1       4.978  30.219  51.669  1.00  0.00     0.335 C 
BRANCH  14  15
HETATM   15  N   UNL     1       5.584  30.077  50.289  1.00  0.00    -0.067 N 
HETATM   16  H   UNL     1       6.429  29.493  50.428  1.00  0.00     0.277 HD
HETATM   17  H   UNL     1       5.902  30.989  49.943  1.00  0.00     0.277 HD
BRANCH  15  18
HETATM   18  C   UNL     1       4.691  29.404  49.298  1.00  0.00     0.236 C 
BRANCH  18  19
HETATM   19  C   UNL     1       5.308  28.085  48.822  1.00  0.00     0.003 C 
HETATM   20  C   UNL     1       5.391  28.084  47.294  1.00  0.00     0.011 C 
HETATM   21  C   UNL     1       4.518  26.864  49.298  1.00  0.00     0.011 C 
ENDBRANCH  18  19
ENDBRANCH  15  18
ENDBRANCH  14  15
ENDBRANCH  11  14
ENDBRANCH   1  10
BRANCH   9  22
HETATM   22  C   UNL     1       7.111  28.201  55.481  1.00  0.00     0.259 C 
HETATM   23  N   UNL     1       8.161  28.178  56.374  1.00  0.00    -0.323 N 
HETATM   24  H   UNL     1       8.672  27.312  56.458  1.00  0.00     0.169 HD
HETATM   25  O   UNL     1       6.257  29.088  55.420  1.00  0.00    -0.267 OA
BRANCH  23  26
HETATM   26  C   UNL     1       8.573  29.211  57.242  1.00  0.00     0.035 A 
HETATM   27  C   UNL     1       7.798  29.711  58.288  1.00  0.00     0.032 A 
HETATM   28  C   UNL     1       8.274  30.757  59.085  1.00  0.00     0.039 A 
HETATM   29  C   UNL     1       9.524  31.329  58.846  1.00  0.00     0.068 A 
HETATM   30  C   UNL     1      10.306  30.832  57.806  1.00  0.00     0.039 A 
HETATM   31  C   UNL     1       9.832  29.779  57.011  1.00  0.00     0.032 A 
BRANCH  29  32
HETATM   32  O   UNL     1       9.857  32.349  59.691  1.00  0.00    -0.356 OA
HETATM   33  C   UNL     1       9.728  32.099  61.085  1.00  0.00     0.210 C 
ENDBRANCH  29  32
ENDBRANCH  23  26
ENDBRANCH   9  22
BRANCH   7  34
HETATM   34  C   UNL     1       8.125  21.225  54.857  1.00  0.00    -0.047 C 
HETATM   35  C   UNL     1       7.788  20.658  53.460  1.00  0.00     0.015 C 
HETATM   36  C   UNL     1       9.660  21.166  55.014  1.00  0.00     0.015 C 
HETATM   37  C   UNL     1       7.498  20.297  55.916  1.00  0.00     0.015 C 
ENDBRANCH   7  34
TORSDOF 9
ENDMDL
MODEL 2
REMARK VINA RESULT:      -9.3      2.457      8.094
REMARK  9 active torsions:
REMARK  status: ('A' for Active; 'I' for Inactive)
REMARK    1  A    between atoms: C_2  and  C_3 
REMARK    2  A    between atoms: C_3  and  N_4 
REMARK    3  A    between atoms: N_4  and  C_7 
REMARK    4  A    between atoms: C_7  and  C_8 
REMARK       I    between atoms: C_8  and  N_9 
REMARK    5  A    between atoms: N_9  and  C_10 
REMARK    6  A    between atoms: C_16  and  C_17 
REMARK    7  A    between atoms: C_22  and  C_23 
REMARK       I    between atoms: C_23  and  N_24 
REMARK    8  A    between atoms: N_24  and  C_25 
REMARK    9  A    between atoms: C_28  and  O_29 
ROOT
HETATM    1  C   UNL     1       5.371  28.632  53.287  1.00  0.00     0.093 A 
HETATM    2  S   UNL     1       4.185  29.499  52.452  1.00  0.00    -0.075 SA
HETATM    3  C   UNL     1       4.122  28.340  51.216  1.00  0.00    -0.008 A 
HETATM    4  C   UNL     1       4.959  27.260  51.445  1.00  0.00    -0.026 A 
HETATM    5  C   UNL     1       5.026  26.138  50.446  1.00  0.00     0.041 C 
HETATM    6  C   UNL     1       4.468  26.535  49.071  1.00  0.00     0.010 C 
HETATM    7  C   UNL     1       3.097  27.254  49.179  1.00  0.00    -0.002 C 
HETATM    8  C   UNL     1       3.267  28.561  50.000  1.00  0.00     0.052 C 
HETATM    9  C   UNL     1       5.699  27.419  52.685  1.00  0.00     0.073 A 
ENDROOT
BRANCH   1  10
HETATM   10  N   UNL     1       5.968  29.147  54.430  1.00  0.00    -0.319 N 
HETATM   11  C   UNL     1       5.637  28.882  55.737  1.00  0.00     0.248 C 
HETATM   12  O   UNL     1       4.833  28.062  56.176  1.00  0.00    -0.271 OA
HETATM   13  H   UNL     1       6.785  29.728  54.218  1.00  0.00     0.169 HD
BRANCH  11  14
HETATM   14  C   UNL     1       6.467  29.671  56.749  1.00  0.00     0.335 C 
BRANCH  14  15
HETATM   15  N   UNL     1       7.287  28.722  57.597  1.00  0.00    -0.067 N 
HETATM   16  H   UNL     1       6.774  27.822  57.562  1.00  0.00     0.277 HD
HETATM   17  H   UNL     1       7.288  29.030  58.577  1.00  0.00     0.277 HD
BRANCH  15  18
HETATM   18  C   UNL     1       8.677  28.504  57.098  1.00  0.00     0.236 C 
BRANCH  18  19
HETATM   19  C   UNL     1       9.504  29.788  57.220  1.00  0.00     0.003 C 
HETATM   20  C   UNL     1      10.957  29.495  56.836  1.00  0.00     0.011 C 
HETATM   21  C   UNL     1       9.451  30.387  58.627  1.00  0.00     0.011 C 
ENDBRANCH  18  19
ENDBRANCH  15  18
ENDBRANCH  14  15
ENDBRANCH  11  14
ENDBRANCH   1  10
BRANCH   9  22
HETATM   22  C   UNL     1       6.709  26.539  53.319  1.00  0.00     0.259 C 
HETATM   23  N   UNL     1       6.299  25.252  53.594  1.00  0.00    -0.323 N 
HETATM   24  H   UNL     1       5.319  25.046  53.474  1.00  0.00     0.169 HD
HETATM   25  O   UNL     1       7.806  27.010  53.623  1.00  0.00    -0.267 OA
BRANCH  23  26
HETATM   26  C   UNL     1       7.084  24.189  54.092  1.00  0.00     0.035 A 
HETATM   27  C   UNL     1       7.244  23.902  55.448  1.00  0.00     0.032 A 
HETATM   28  C   UNL     1       8.063  22.843  55.855  1.00  0.00     0.039 A 
HETATM   29  C   UNL     1       8.744  22.063  54.921  1.00  0.00     0.068 A 
HETATM   30  C   UNL     1       8.586  22.341  53.565  1.00  0.00     0.039 A 
HETATM   31  C   UNL     1       7.760  23.397  53.155  1.00  0.00     0.032 A 
BRANCH  29  32
HETATM   32  O   UNL     1       9.517  21.073  55.457  1.00  0.00    -0.356 OA
HETATM   33  C   UNL     1       8.953  20.321  56.524  1.00  0.00     0.210 C 
ENDBRANCH  29  32
ENDBRANCH  23  26
ENDBRANCH   9  22
BRANCH   7  34
HETATM   34  C   UNL     1       2.397  27.477  47.786  1.00  0.00    -0.047 C 
HETATM   35  C   UNL     1       2.704  26.284  46.853  1.00  0.00     0.015 C 
HETATM   36  C   UNL     1       0.863  27.551  47.942  1.00  0.00     0.015 C 
HETATM   37  C   UNL     1       2.871  28.767  47.087  1.00  0.00     0.015 C 
ENDBRANCH   7  34
TORSDOF 9
ENDMDL
MODEL 3
REMARK VINA RESULT:      -9.2      2.180      7.418
REMARK  9 active torsions:
REMARK  status: ('A' for Active; 'I' for Inactive)
REMARK    1  A    between atoms: C_2  and  C_3 
REMARK    2  A    between atoms: C_3  and  N_4 
REMARK    3  A    between atoms: N_4  and  C_7 
REMARK    4  A    between atoms: C_7  and  C_8 
REMARK       I    between atoms: C_8  and  N_9 
REMARK    5  A    between atoms: N_9  and  C_10 
REMARK    6  A    between atoms: C_16  and  C_17 
REMARK    7  A    between atoms: C_22  and  C_23 
REMARK       I    between atoms: C_23  and  N_24 
REMARK    8  A    between atoms: N_24  and  C_25 
REMARK    9  A    between atoms: C_28  and  O_29 
ROOT
HETATM    1  C   UNL     1       7.549  26.921  56.787  1.00  0.00     0.093 A 
HETATM    2  S   UNL     1       7.963  25.563  57.704  1.00  0.00    -0.075 SA
HETATM    3  C   UNL     1       7.963  24.563  56.335  1.00  0.00    -0.008 A 
HETATM    4  C   UNL     1       7.700  25.252  55.163  1.00  0.00    -0.026 A 
HETATM    5  C   UNL     1       7.662  24.517  53.852  1.00  0.00     0.041 C 
HETATM    6  C   UNL     1       7.498  23.000  54.029  1.00  0.00     0.010 C 
HETATM    7  C   UNL     1       8.471  22.424  55.092  1.00  0.00    -0.002 C 
HETATM    8  C   UNL     1       8.175  23.081  56.467  1.00  0.00     0.052 C 
HETATM    9  C   UNL     1       7.464  26.663  55.420  1.00  0.00     0.073 A 
ENDROOT
BRANCH   1  10
HETATM   10  N   UNL     1       7.278  28.141  57.391  1.00  0.00    -0.319 N 
HETATM   11  C   UNL     1       8.180  29.111  57.756  1.00  0.00     0.248 C 
HETATM   12  O   UNL     1       9.387  29.164  57.530  1.00  0.00    -0.271 OA
HETATM   13  H   UNL     1       6.273  28.316  57.488  1.00  0.00     0.169 HD
BRANCH  11  14
HETATM   14  C   UNL     1       7.538  30.310  58.455  1.00  0.00     0.335 C 
BRANCH  14  15
HETATM   15  N   UNL     1       7.910  30.313  59.922  1.00  0.00    -0.067 N 
HETATM   16  H   UNL     1       8.893  29.984  59.949  1.00  0.00     0.277 HD
HETATM   17  H   UNL     1       7.348  29.623  60.434  1.00  0.00     0.277 HD
BRANCH  15  18
HETATM   18  C   UNL     1       7.835  31.658  60.568  1.00  0.00     0.236 C 
BRANCH  18  19
HETATM   19  C   UNL     1       8.831  31.758  61.728  1.00  0.00     0.003 C 
HETATM   20  C   UNL     1       9.441  30.380  61.993  1.00  0.00     0.011 C 
HETATM   21  C   UNL     1       8.187  32.294  63.007  1.00  0.00     0.011 C 
ENDBRANCH  18  19
ENDBRANCH  15  18
ENDBRANCH  14  15
ENDBRANCH  11  14
ENDBRANCH   1  10
BRANCH   9  22
HETATM   22  C   UNL     1       7.132  27.766  54.489  1.00  0.00     0.259 C 
HETATM   23  N   UNL     1       5.879  27.716  53.917  1.00  0.00    -0.323 N 
HETATM   24  H   UNL     1       5.340  26.876  54.064  1.00  0.00     0.169 HD
HETATM   25  O   UNL     1       7.994  28.606  54.226  1.00  0.00    -0.267 OA
BRANCH  23  26
HETATM   26  C   UNL     1       5.274  28.685  53.088  1.00  0.00     0.035 A 
HETATM   27  C   UNL     1       5.573  28.854  51.735  1.00  0.00     0.032 A 
HETATM   28  C   UNL     1       4.945  29.859  50.992  1.00  0.00     0.039 A 
HETATM   29  C   UNL     1       4.019  30.718  51.586  1.00  0.00     0.068 A 
HETATM   30  C   UNL     1       3.712  30.552  52.934  1.00  0.00     0.039 A 
HETATM   31  C   UNL     1       4.336  29.541  53.679  1.00  0.00     0.032 A 
BRANCH  29  32
HETATM   32  O   UNL     1       3.493  31.659  50.748  1.00  0.00    -0.356 OA
HETATM   33  C   UNL     1       3.874  31.589  49.379  1.00  0.00     0.210 C 
ENDBRANCH  29  32
ENDBRANCH  23  26
ENDBRANCH   9  22
BRANCH   7  34
HETATM   34  C   UNL     1       8.483  20.850  55.140  1.00  0.00    -0.047 C 
HETATM   35  C   UNL     1       7.212  20.342  55.857  1.00  0.00     0.015 C 
HETATM   36  C   UNL     1       8.473  20.252  53.717  1.00  0.00     0.015 C 
HETATM   37  C   UNL     1       9.711  20.291  55.887  1.00  0.00     0.015 C 
ENDBRANCH   7  34
TORSDOF 9
ENDMDL
MODEL 4
REMARK VINA RESULT:      -8.8      2.177      3.350
REMARK  9 active torsions:
REMARK  status: ('A' for Active; 'I' for Inactive)
REMARK    1  A    between atoms: C_2  and  C_3 
REMARK    2  A    between atoms: C_3  and  N_4 
REMARK    3  A    between atoms: N_4  and  C_7 
REMARK    4  A    between atoms: C_7  and  C_8 
REMARK       I    between atoms: C_8  and  N_9 
REMARK    5  A    between atoms: N_9  and  C_10 
REMARK    6  A    between atoms: C_16  and  C_17 
REMARK    7  A    between atoms: C_22  and  C_23 
REMARK       I    between atoms: C_23  and  N_24 
REMARK    8  A    between atoms: N_24  and  C_25 
REMARK    9  A    between atoms: C_28  and  O_29 
ROOT
HETATM    1  C   UNL     1       5.044  26.780  53.614  1.00  0.00     0.093 A 
HETATM    2  S   UNL     1       5.265  25.435  52.615  1.00  0.00    -0.075 SA
HETATM    3  C   UNL     1       6.198  24.642  53.787  1.00  0.00    -0.008 A 
HETATM    4  C   UNL     1       6.312  25.361  54.965  1.00  0.00    -0.026 A 
HETATM    5  C   UNL     1       7.107  24.802  56.112  1.00  0.00     0.041 C 
HETATM    6  C   UNL     1       8.061  23.678  55.679  1.00  0.00     0.010 C 
HETATM    7  C   UNL     1       7.360  22.628  54.776  1.00  0.00    -0.002 C 
HETATM    8  C   UNL     1       6.851  23.323  53.484  1.00  0.00     0.052 C 
HETATM    9  C   UNL     1       5.616  26.634  54.877  1.00  0.00     0.073 A 
ENDROOT
BRANCH   1  10
HETATM   10  N   UNL     1       4.395  27.918  53.156  1.00  0.00    -0.319 N 
HETATM   11  C   UNL     1       4.925  28.935  52.399  1.00  0.00     0.248 C 
HETATM   12  O   UNL     1       6.034  29.006  51.874  1.00  0.00    -0.271 OA
HETATM   13  H   UNL     1       3.394  27.914  53.376  1.00  0.00     0.169 HD
BRANCH  11  14
HETATM   14  C   UNL     1       3.937  30.068  52.121  1.00  0.00     0.335 C 
BRANCH  14  15
HETATM   15  N   UNL     1       3.056  30.294  53.331  1.00  0.00    -0.067 N 
HETATM   16  H   UNL     1       2.892  29.348  53.721  1.00  0.00     0.277 HD
HETATM   17  H   UNL     1       2.142  30.664  53.043  1.00  0.00     0.277 HD
BRANCH  15  18
HETATM   18  C   UNL     1       3.676  31.150  54.386  1.00  0.00     0.236 C 
BRANCH  18  19
HETATM   19  C   UNL     1       2.598  31.881  55.193  1.00  0.00     0.003 C 
HETATM   20  C   UNL     1       1.816  32.814  54.265  1.00  0.00     0.011 C 
HETATM   21  C   UNL     1       3.181  32.680  56.360  1.00  0.00     0.011 C 
ENDBRANCH  18  19
ENDBRANCH  15  18
ENDBRANCH  14  15
ENDBRANCH  11  14
ENDBRANCH   1  10
BRANCH   9  22
HETATM   22  C   UNL     1       5.482  27.725  55.870  1.00  0.00     0.259 C 
HETATM   23  N   UNL     1       6.661  28.221  56.384  1.00  0.00    -0.323 N 
HETATM   24  H   UNL     1       7.508  27.722  56.155  1.00  0.00     0.169 HD
HETATM   25  O   UNL     1       4.356  28.073  56.227  1.00  0.00    -0.267 OA
BRANCH  23  26
HETATM   26  C   UNL     1       6.824  29.320  57.254  1.00  0.00     0.035 A 
HETATM   27  C   UNL     1       6.063  30.488  57.192  1.00  0.00     0.032 A 
HETATM   28  C   UNL     1       6.310  31.541  58.078  1.00  0.00     0.039 A 
HETATM   29  C   UNL     1       7.324  31.454  59.032  1.00  0.00     0.068 A 
HETATM   30  C   UNL     1       8.085  30.289  59.103  1.00  0.00     0.039 A 
HETATM   31  C   UNL     1       7.835  29.229  58.220  1.00  0.00     0.032 A 
BRANCH  29  32
HETATM   32  O   UNL     1       7.463  32.558  59.822  1.00  0.00    -0.356 OA
HETATM   33  C   UNL     1       7.424  32.353  61.229  1.00  0.00     0.210 C 
ENDBRANCH  29  32
ENDBRANCH  23  26
ENDBRANCH   9  22
BRANCH   7  34
HETATM   34  C   UNL     1       8.243  21.355  54.496  1.00  0.00    -0.047 C 
HETATM   35  C   UNL     1       7.981  20.291  55.586  1.00  0.00     0.015 C 
HETATM   36  C   UNL     1       7.880  20.716  53.139  1.00  0.00     0.015 C 
HETATM   37  C   UNL     1       9.751  21.673  54.489  1.00  0.00     0.015 C 
ENDBRANCH   7  34
TORSDOF 9
ENDMDL
MODEL 5
REMARK VINA RESULT:      -8.8      2.502      2.848
REMARK  9 active torsions:
REMARK  status: ('A' for Active; 'I' for Inactive)
REMARK    1  A    between atoms: C_2  and  C_3 
REMARK    2  A    between atoms: C_3  and  N_4 
REMARK    3  A    between atoms: N_4  and  C_7 
REMARK    4  A    between atoms: C_7  and  C_8 
REMARK       I    between atoms: C_8  and  N_9 
REMARK    5  A    between atoms: N_9  and  C_10 
REMARK    6  A    between atoms: C_16  and  C_17 
REMARK    7  A    between atoms: C_22  and  C_23 
REMARK       I    between atoms: C_23  and  N_24 
REMARK    8  A    between atoms: N_24  and  C_25 
REMARK    9  A    between atoms: C_28  and  O_29 
ROOT
HETATM    1  C   UNL     1       4.825  26.500  52.803  1.00  0.00     0.093 A 
HETATM    2  S   UNL     1       4.935  24.918  52.221  1.00  0.00    -0.075 SA
HETATM    3  C   UNL     1       6.047  24.487  53.427  1.00  0.00    -0.008 A 
HETATM    4  C   UNL     1       6.308  25.519  54.313  1.00  0.00    -0.026 A 
HETATM    5  C   UNL     1       7.273  25.307  55.447  1.00  0.00     0.041 C 
HETATM    6  C   UNL     1       8.184  24.090  55.230  1.00  0.00     0.010 C 
HETATM    7  C   UNL     1       7.389  22.833  54.784  1.00  0.00    -0.002 C 
HETATM    8  C   UNL     1       6.684  23.126  53.433  1.00  0.00     0.052 C 
HETATM    9  C   UNL     1       5.574  26.721  53.957  1.00  0.00     0.073 A 
ENDROOT
BRANCH   1  10
HETATM   10  N   UNL     1       4.087  27.465  52.130  1.00  0.00    -0.319 N 
HETATM   11  C   UNL     1       4.329  27.979  50.879  1.00  0.00     0.248 C 
HETATM   12  O   UNL     1       5.166  27.626  50.050  1.00  0.00    -0.271 OA
HETATM   13  H   UNL     1       3.240  27.737  52.638  1.00  0.00     0.169 HD
BRANCH  11  14
HETATM   14  C   UNL     1       3.345  29.075  50.468  1.00  0.00     0.335 C 
BRANCH  14  15
HETATM   15  N   UNL     1       2.027  28.457  50.055  1.00  0.00    -0.067 N 
HETATM   16  H   UNL     1       1.309  28.971  50.598  1.00  0.00     0.277 HD
HETATM   17  H   UNL     1       1.983  27.475  50.352  1.00  0.00     0.277 HD
BRANCH  15  18
HETATM   18  C   UNL     1       1.718  28.594  48.599  1.00  0.00     0.236 C 
BRANCH  18  19
HETATM   19  C   UNL     1       1.167  27.280  48.037  1.00  0.00     0.003 C 
HETATM   20  C   UNL     1       2.330  26.340  47.711  1.00  0.00     0.011 C 
HETATM   21  C   UNL     1       0.308  27.492  46.789  1.00  0.00     0.011 C 
ENDBRANCH  18  19
ENDBRANCH  15  18
ENDBRANCH  14  15
ENDBRANCH  11  14
ENDBRANCH   1  10
BRANCH   9  22
HETATM   22  C   UNL     1       5.555  28.058  54.595  1.00  0.00     0.259 C 
HETATM   23  N   UNL     1       5.276  28.079  55.945  1.00  0.00    -0.323 N 
HETATM   24  H   UNL     1       4.975  27.212  56.365  1.00  0.00     0.169 HD
HETATM   25  O   UNL     1       5.713  29.058  53.893  1.00  0.00    -0.267 OA
BRANCH  23  26
HETATM   26  C   UNL     1       5.300  29.193  56.810  1.00  0.00     0.035 A 
HETATM   27  C   UNL     1       4.180  29.962  57.128  1.00  0.00     0.032 A 
HETATM   28  C   UNL     1       4.299  31.069  57.975  1.00  0.00     0.039 A 
HETATM   29  C   UNL     1       5.535  31.435  58.508  1.00  0.00     0.068 A 
HETATM   30  C   UNL     1       6.657  30.670  58.199  1.00  0.00     0.039 A 
HETATM   31  C   UNL     1       6.538  29.556  57.356  1.00  0.00     0.032 A 
BRANCH  29  32
HETATM   32  O   UNL     1       5.508  32.542  59.308  1.00  0.00    -0.356 OA
HETATM   33  C   UNL     1       4.670  33.615  58.895  1.00  0.00     0.210 C 
ENDBRANCH  29  32
ENDBRANCH  23  26
ENDBRANCH   9  22
BRANCH   7  34
HETATM   34  C   UNL     1       8.256  21.519  54.766  1.00  0.00    -0.047 C 
HETATM   35  C   UNL     1       8.112  20.820  53.396  1.00  0.00     0.015 C 
HETATM   36  C   UNL     1       9.754  21.841  54.959  1.00  0.00     0.015 C 
HETATM   37  C   UNL     1       7.836  20.519  55.862  1.00  0.00     0.015 C 
ENDBRANCH   7  34
TORSDOF 9
ENDMDL
MODEL 6
REMARK VINA RESULT:      -8.7      3.337      7.497
REMARK  9 active torsions:
REMARK  status: ('A' for Active; 'I' for Inactive)
REMARK    1  A    between atoms: C_2  and  C_3 
REMARK    2  A    between atoms: C_3  and  N_4 
REMARK    3  A    between atoms: N_4  and  C_7 
REMARK    4  A    between atoms: C_7  and  C_8 
REMARK       I    between atoms: C_8  and  N_9 
REMARK    5  A    between atoms: N_9  and  C_10 
REMARK    6  A    between atoms: C_16  and  C_17 
REMARK    7  A    between atoms: C_22  and  C_23 
REMARK       I    between atoms: C_23  and  N_24 
REMARK    8  A    between atoms: N_24  and  C_25 
REMARK    9  A    between atoms: C_28  and  O_29 
ROOT
HETATM    1  C   UNL     1       4.477  27.747  52.369  1.00  0.00     0.093 A 
HETATM    2  S   UNL     1       4.223  29.409  52.538  1.00  0.00    -0.075 SA
HETATM    3  C   UNL     1       4.658  29.369  54.177  1.00  0.00    -0.008 A 
HETATM    4  C   UNL     1       5.048  28.110  54.602  1.00  0.00    -0.026 A 
HETATM    5  C   UNL     1       5.466  27.898  56.030  1.00  0.00     0.041 C 
HETATM    6  C   UNL     1       4.998  29.027  56.959  1.00  0.00     0.010 C 
HETATM    7  C   UNL     1       5.302  30.433  56.375  1.00  0.00    -0.002 C 
HETATM    8  C   UNL     1       4.548  30.602  55.029  1.00  0.00     0.052 C 
HETATM    9  C   UNL     1       4.955  27.137  53.527  1.00  0.00     0.073 A 
ENDROOT
BRANCH   1  10
HETATM   10  N   UNL     1       4.171  27.089  51.185  1.00  0.00    -0.319 N 
HETATM   11  C   UNL     1       4.668  27.352  49.931  1.00  0.00     0.248 C 
HETATM   12  O   UNL     1       5.557  28.135  49.604  1.00  0.00    -0.271 OA
HETATM   13  H   UNL     1       3.557  26.282  51.331  1.00  0.00     0.169 HD
BRANCH  11  14
HETATM   14  C   UNL     1       4.068  26.467  48.838  1.00  0.00     0.335 C 
BRANCH  14  15
HETATM   15  N   UNL     1       2.563  26.627  48.811  1.00  0.00    -0.067 N 
HETATM   16  H   UNL     1       2.251  26.379  49.768  1.00  0.00     0.277 HD
HETATM   17  H   UNL     1       2.142  25.944  48.171  1.00  0.00     0.277 HD
BRANCH  15  18
HETATM   18  C   UNL     1       2.103  28.014  48.500  1.00  0.00     0.236 C 
BRANCH  18  19
HETATM   19  C   UNL     1       1.759  28.149  47.012  1.00  0.00     0.003 C 
HETATM   20  C   UNL     1       1.694  29.632  46.639  1.00  0.00     0.011 C 
HETATM   21  C   UNL     1       0.440  27.465  46.652  1.00  0.00     0.011 C 
ENDBRANCH  18  19
ENDBRANCH  15  18
ENDBRANCH  14  15
ENDBRANCH  11  14
ENDBRANCH   1  10
BRANCH   9  22
HETATM   22  C   UNL     1       5.247  25.684  53.521  1.00  0.00     0.259 C 
HETATM   23  N   UNL     1       6.530  25.325  53.874  1.00  0.00    -0.323 N 
HETATM   24  H   UNL     1       7.204  26.068  53.976  1.00  0.00     0.169 HD
HETATM   25  O   UNL     1       4.374  24.901  53.142  1.00  0.00    -0.267 OA
BRANCH  23  26
HETATM   26  C   UNL     1       7.038  24.020  54.052  1.00  0.00     0.035 A 
HETATM   27  C   UNL     1       7.139  23.381  55.288  1.00  0.00     0.032 A 
HETATM   28  C   UNL     1       7.681  22.094  55.376  1.00  0.00     0.039 A 
HETATM   29  C   UNL     1       8.141  21.430  54.239  1.00  0.00     0.068 A 
HETATM   30  C   UNL     1       8.039  22.060  53.001  1.00  0.00     0.039 A 
HETATM   31  C   UNL     1       7.489  23.346  52.910  1.00  0.00     0.032 A 
BRANCH  29  32
HETATM   32  O   UNL     1       8.657  20.187  54.473  1.00  0.00    -0.356 OA
HETATM   33  C   UNL     1       8.966  19.860  55.822  1.00  0.00     0.210 C 
ENDBRANCH  29  32
ENDBRANCH  23  26
ENDBRANCH   9  22
BRANCH   7  34
HETATM   34  C   UNL     1       5.037  31.604  57.394  1.00  0.00    -0.047 C 
HETATM   35  C   UNL     1       4.883  32.936  56.626  1.00  0.00     0.015 C 
HETATM   36  C   UNL     1       3.725  31.372  58.174  1.00  0.00     0.015 C 
HETATM   37  C   UNL     1       6.179  31.768  58.416  1.00  0.00     0.015 C 
ENDBRANCH   7  34
TORSDOF 9
ENDMDL
MODEL 7
REMARK VINA RESULT:      -8.6      2.768      7.531
REMARK  9 active torsions:
REMARK  status: ('A' for Active; 'I' for Inactive)
REMARK    1  A    between atoms: C_2  and  C_3 
REMARK    2  A    between atoms: C_3  and  N_4 
REMARK    3  A    between atoms: N_4  and  C_7 
REMARK    4  A    between atoms: C_7  and  C_8 
REMARK       I    between atoms: C_8  and  N_9 
REMARK    5  A    between atoms: N_9  and  C_10 
REMARK    6  A    between atoms: C_16  and  C_17 
REMARK    7  A    between atoms: C_22  and  C_23 
REMARK       I    between atoms: C_23  and  N_24 
REMARK    8  A    between atoms: N_24  and  C_25 
REMARK    9  A    between atoms: C_28  and  O_29 
ROOT
HETATM    1  C   UNL     1       5.282  26.884  54.741  1.00  0.00     0.093 A 
HETATM    2  S   UNL     1       5.667  25.793  55.973  1.00  0.00    -0.075 SA
HETATM    3  C   UNL     1       6.462  24.758  54.890  1.00  0.00    -0.008 A 
HETATM    4  C   UNL     1       6.490  25.249  53.595  1.00  0.00    -0.026 A 
HETATM    5  C   UNL     1       7.158  24.456  52.507  1.00  0.00     0.041 C 
HETATM    6  C   UNL     1       7.358  22.981  52.886  1.00  0.00     0.010 C 
HETATM    7  C   UNL     1       7.969  22.817  54.304  1.00  0.00    -0.002 C 
HETATM    8  C   UNL     1       7.003  23.434  55.351  1.00  0.00     0.052 C 
HETATM    9  C   UNL     1       5.799  26.524  53.498  1.00  0.00     0.073 A 
ENDROOT
BRANCH   1  10
HETATM   10  N   UNL     1       4.479  27.990  54.985  1.00  0.00    -0.319 N 
HETATM   11  C   UNL     1       4.858  29.194  55.527  1.00  0.00     0.248 C 
HETATM   12  O   UNL     1       5.988  29.591  55.806  1.00  0.00    -0.271 OA
HETATM   13  H   UNL     1       3.524  27.865  54.638  1.00  0.00     0.169 HD
BRANCH  11  14
HETATM   14  C   UNL     1       3.699  30.174  55.710  1.00  0.00     0.335 C 
BRANCH  14  15
HETATM   15  N   UNL     1       3.068  29.980  57.072  1.00  0.00    -0.067 N 
HETATM   16  H   UNL     1       3.231  28.982  57.302  1.00  0.00     0.277 HD
HETATM   17  H   UNL     1       2.052  30.114  57.017  1.00  0.00     0.277 HD
BRANCH  15  18
HETATM   18  C   UNL     1       3.667  30.825  58.148  1.00  0.00     0.236 C 
BRANCH  18  19
HETATM   19  C   UNL     1       4.279  32.100  57.557  1.00  0.00     0.003 C 
HETATM   20  C   UNL     1       5.701  32.277  58.095  1.00  0.00     0.011 C 
HETATM   21  C   UNL     1       3.449  33.347  57.869  1.00  0.00     0.011 C 
ENDBRANCH  18  19
ENDBRANCH  15  18
ENDBRANCH  14  15
ENDBRANCH  11  14
ENDBRANCH   1  10
BRANCH   9  22
HETATM   22  C   UNL     1       5.562  27.399  52.327  1.00  0.00     0.259 C 
HETATM   23  N   UNL     1       4.797  26.859  51.315  1.00  0.00    -0.323 N 
HETATM   24  H   UNL     1       4.575  25.877  51.381  1.00  0.00     0.169 HD
HETATM   25  O   UNL     1       6.103  28.505  52.287  1.00  0.00    -0.267 OA
BRANCH  23  26
HETATM   26  C   UNL     1       4.335  27.505  50.149  1.00  0.00     0.035 A 
HETATM   27  C   UNL     1       4.840  27.269  48.870  1.00  0.00     0.032 A 
HETATM   28  C   UNL     1       4.341  27.975  47.770  1.00  0.00     0.039 A 
HETATM   29  C   UNL     1       3.342  28.936  47.928  1.00  0.00     0.068 A 
HETATM   30  C   UNL     1       2.830  29.175  49.201  1.00  0.00     0.039 A 
HETATM   31  C   UNL     1       3.324  28.463  50.303  1.00  0.00     0.032 A 
BRANCH  29  32
HETATM   32  O   UNL     1       2.959  29.558  46.774  1.00  0.00    -0.356 OA
HETATM   33  C   UNL     1       1.657  30.132  46.753  1.00  0.00     0.210 C 
ENDBRANCH  29  32
ENDBRANCH  23  26
ENDBRANCH   9  22
BRANCH   7  34
HETATM   34  C   UNL     1       8.389  21.336  54.636  1.00  0.00    -0.047 C 
HETATM   35  C   UNL     1       9.833  21.317  55.186  1.00  0.00     0.015 C 
HETATM   36  C   UNL     1       7.478  20.733  55.726  1.00  0.00     0.015 C 
HETATM   37  C   UNL     1       8.334  20.416  53.400  1.00  0.00     0.015 C 
ENDBRANCH   7  34
TORSDOF 9
ENDMDL
MODEL 8
REMARK VINA RESULT:      -8.5      2.906      8.032
REMARK  9 active torsions:
REMARK  status: ('A' for Active; 'I' for Inactive)
REMARK    1  A    between atoms: C_2  and  C_3 
REMARK    2  A    between atoms: C_3  and  N_4 
REMARK    3  A    between atoms: N_4  and  C_7 
REMARK    4  A    between atoms: C_7  and  C_8 
REMARK       I    between atoms: C_8  and  N_9 
REMARK    5  A    between atoms: N_9  and  C_10 
REMARK    6  A    between atoms: C_16  and  C_17 
REMARK    7  A    between atoms: C_22  and  C_23 
REMARK       I    between atoms: C_23  and  N_24 
REMARK    8  A    between atoms: N_24  and  C_25 
REMARK    9  A    between atoms: C_28  and  O_29 
ROOT
HETATM    1  C   UNL     1       6.017  30.630  56.693  1.00  0.00     0.093 A 
HETATM    2  S   UNL     1       5.284  31.949  57.453  1.00  0.00    -0.075 SA
HETATM    3  C   UNL     1       6.215  31.735  58.855  1.00  0.00    -0.008 A 
HETATM    4  C   UNL     1       7.125  30.696  58.745  1.00  0.00    -0.026 A 
HETATM    5  C   UNL     1       8.032  30.369  59.899  1.00  0.00     0.041 C 
HETATM    6  C   UNL     1       7.538  30.961  61.227  1.00  0.00     0.010 C 
HETATM    7  C   UNL     1       7.140  32.455  61.092  1.00  0.00    -0.002 C 
HETATM    8  C   UNL     1       5.978  32.585  60.071  1.00  0.00     0.052 C 
HETATM    9  C   UNL     1       7.023  30.038  57.454  1.00  0.00     0.073 A 
ENDROOT
BRANCH   1  10
HETATM   10  N   UNL     1       5.584  30.185  55.451  1.00  0.00    -0.319 N 
HETATM   11  C   UNL     1       4.822  29.075  55.180  1.00  0.00     0.248 C 
HETATM   12  O   UNL     1       4.269  28.310  55.968  1.00  0.00    -0.271 OA
HETATM   13  H   UNL     1       5.830  30.831  54.695  1.00  0.00     0.169 HD
BRANCH  11  14
HETATM   14  C   UNL     1       4.579  28.849  53.688  1.00  0.00     0.335 C 
BRANCH  14  15
HETATM   15  N   UNL     1       5.418  27.688  53.198  1.00  0.00    -0.067 N 
HETATM   16  H   UNL     1       5.306  26.954  53.921  1.00  0.00     0.277 HD
HETATM   17  H   UNL     1       6.411  27.946  53.182  1.00  0.00     0.277 HD
BRANCH  15  18
HETATM   18  C   UNL     1       4.983  27.135  51.880  1.00  0.00     0.236 C 
BRANCH  18  19
HETATM   19  C   UNL     1       5.333  25.647  51.775  1.00  0.00     0.003 C 
HETATM   20  C   UNL     1       4.735  24.899  52.969  1.00  0.00     0.011 C 
HETATM   21  C   UNL     1       6.842  25.403  51.716  1.00  0.00     0.011 C 
ENDBRANCH  18  19
ENDBRANCH  15  18
ENDBRANCH  14  15
ENDBRANCH  11  14
ENDBRANCH   1  10
BRANCH   9  22
HETATM   22  C   UNL     1       7.771  28.883  56.904  1.00  0.00     0.259 C 
HETATM   23  N   UNL     1       7.260  27.638  57.200  1.00  0.00    -0.323 N 
HETATM   24  H   UNL     1       6.508  27.597  57.871  1.00  0.00     0.169 HD
HETATM   25  O   UNL     1       8.819  29.087  56.289  1.00  0.00    -0.267 OA
BRANCH  23  26
HETATM   26  C   UNL     1       7.708  26.389  56.719  1.00  0.00     0.035 A 
HETATM   27  C   UNL     1       7.346  25.848  55.485  1.00  0.00     0.032 A 
HETATM   28  C   UNL     1       7.817  24.589  55.098  1.00  0.00     0.039 A 
HETATM   29  C   UNL     1       8.645  23.844  55.938  1.00  0.00     0.068 A 
HETATM   30  C   UNL     1       9.014  24.379  57.170  1.00  0.00     0.039 A 
HETATM   31  C   UNL     1       8.549  25.644  57.556  1.00  0.00     0.032 A 
BRANCH  29  32
HETATM   32  O   UNL     1       9.019  22.628  55.441  1.00  0.00    -0.356 OA
HETATM   33  C   UNL     1       8.850  22.424  54.043  1.00  0.00     0.210 C 
ENDBRANCH  29  32
ENDBRANCH  23  26
ENDBRANCH   9  22
BRANCH   7  34
HETATM   34  C   UNL     1       6.840  33.149  62.473  1.00  0.00    -0.047 C 
HETATM   35  C   UNL     1       5.640  32.454  63.155  1.00  0.00     0.015 C 
HETATM   36  C   UNL     1       8.045  33.022  63.430  1.00  0.00     0.015 C 
HETATM   37  C   UNL     1       6.504  34.646  62.321  1.00  0.00     0.015 C 
ENDBRANCH   7  34
TORSDOF 9
ENDMDL
MODEL 9
REMARK VINA RESULT:      -8.4      2.811      8.547
REMARK  9 active torsions:
REMARK  status: ('A' for Active; 'I' for Inactive)
REMARK    1  A    between atoms: C_2  and  C_3 
REMARK    2  A    between atoms: C_3  and  N_4 
REMARK    3  A    between atoms: N_4  and  C_7 
REMARK    4  A    between atoms: C_7  and  C_8 
REMARK       I    between atoms: C_8  and  N_9 
REMARK    5  A    between atoms: N_9  and  C_10 
REMARK    6  A    between atoms: C_16  and  C_17 
REMARK    7  A    between atoms: C_22  and  C_23 
REMARK       I    between atoms: C_23  and  N_24 
REMARK    8  A    between atoms: N_24  and  C_25 
REMARK    9  A    between atoms: C_28  and  O_29 
ROOT
HETATM    1  C   UNL     1       5.382  28.553  53.531  1.00  0.00     0.093 A 
HETATM    2  S   UNL     1       4.229  29.572  52.833  1.00  0.00    -0.075 SA
HETATM    3  C   UNL     1       4.158  28.627  51.426  1.00  0.00    -0.008 A 
HETATM    4  C   UNL     1       4.966  27.504  51.489  1.00  0.00    -0.026 A 
HETATM    5  C   UNL     1       5.022  26.555  50.324  1.00  0.00     0.041 C 
HETATM    6  C   UNL     1       4.494  27.180  49.024  1.00  0.00     0.010 C 
HETATM    7  C   UNL     1       3.138  27.907  49.231  1.00  0.00    -0.002 C 
HETATM    8  C   UNL     1       3.326  29.060  50.252  1.00  0.00     0.052 C 
HETATM    9  C   UNL     1       5.692  27.444  52.746  1.00  0.00     0.073 A 
ENDROOT
BRANCH   1  10
HETATM   10  N   UNL     1       5.974  28.864  54.748  1.00  0.00    -0.319 N 
HETATM   11  C   UNL     1       5.423  28.742  56.000  1.00  0.00     0.248 C 
HETATM   12  O   UNL     1       4.350  28.235  56.323  1.00  0.00    -0.271 OA
HETATM   13  H   UNL     1       6.954  29.144  54.647  1.00  0.00     0.169 HD
BRANCH  11  14
HETATM   14  C   UNL     1       6.338  29.234  57.121  1.00  0.00     0.335 C 
BRANCH  14  15
HETATM   15  N   UNL     1       5.567  30.138  58.058  1.00  0.00    -0.067 N 
HETATM   16  H   UNL     1       5.847  29.838  59.010  1.00  0.00     0.277 HD
HETATM   17  H   UNL     1       4.559  29.965  57.973  1.00  0.00     0.277 HD
BRANCH  15  18
HETATM   18  C   UNL     1       5.881  31.590  57.900  1.00  0.00     0.236 C 
BRANCH  18  19
HETATM   19  C   UNL     1       5.272  32.404  59.048  1.00  0.00     0.003 C 
HETATM   20  C   UNL     1       6.189  32.322  60.270  1.00  0.00     0.011 C 
HETATM   21  C   UNL     1       3.867  31.928  59.421  1.00  0.00     0.011 C 
ENDBRANCH  18  19
ENDBRANCH  15  18
ENDBRANCH  14  15
ENDBRANCH  11  14
ENDBRANCH   1  10
BRANCH   9  22
HETATM   22  C   UNL     1       6.671  26.449  53.242  1.00  0.00     0.259 C 
HETATM   23  N   UNL     1       6.197  25.165  53.406  1.00  0.00    -0.323 N 
HETATM   24  H   UNL     1       5.202  25.027  53.311  1.00  0.00     0.169 HD
HETATM   25  O   UNL     1       7.806  26.825  53.541  1.00  0.00    -0.267 OA
BRANCH  23  26
HETATM   26  C   UNL     1       6.935  24.015  53.758  1.00  0.00     0.035 A 
HETATM   27  C   UNL     1       7.588  23.192  52.840  1.00  0.00     0.032 A 
HETATM   28  C   UNL     1       8.276  22.054  53.274  1.00  0.00     0.039 A 
HETATM   29  C   UNL     1       8.315  21.712  54.626  1.00  0.00     0.068 A 
HETATM   30  C   UNL     1       7.670  22.531  55.549  1.00  0.00     0.039 A 
HETATM   31  C   UNL     1       6.986  23.676  55.116  1.00  0.00     0.032 A 
BRANCH  29  32
HETATM   32  O   UNL     1       9.011  20.571  54.907  1.00  0.00    -0.356 OA
HETATM   33  C   UNL     1       9.355  20.344  56.268  1.00  0.00     0.210 C 
ENDBRANCH  29  32
ENDBRANCH  23  26
ENDBRANCH   9  22
BRANCH   7  34
HETATM   34  C   UNL     1       2.464  28.367  47.884  1.00  0.00    -0.047 C 
HETATM   35  C   UNL     1       3.482  29.166  47.040  1.00  0.00     0.015 C 
HETATM   36  C   UNL     1       2.027  27.150  47.040  1.00  0.00     0.015 C 
HETATM   37  C   UNL     1       1.228  29.258  48.116  1.00  0.00     0.015 C 
ENDBRANCH   7  34
TORSDOF 9
ENDMDL
MODEL 10
REMARK VINA RESULT:      -8.4      3.091      3.699
REMARK  9 active torsions:
REMARK  status: ('A' for Active; 'I' for Inactive)
REMARK    1  A    between atoms: C_2  and  C_3 
REMARK    2  A    between atoms: C_3  and  N_4 
REMARK    3  A    between atoms: N_4  and  C_7 
REMARK    4  A    between atoms: C_7  and  C_8 
REMARK       I    between atoms: C_8  and  N_9 
REMARK    5  A    between atoms: N_9  and  C_10 
REMARK    6  A    between atoms: C_16  and  C_17 
REMARK    7  A    between atoms: C_22  and  C_23 
REMARK       I    between atoms: C_23  and  N_24 
REMARK    8  A    between atoms: N_24  and  C_25 
REMARK    9  A    between atoms: C_28  and  O_29 
ROOT
HETATM    1  C   UNL     1       4.914  26.480  52.699  1.00  0.00     0.093 A 
HETATM    2  S   UNL     1       5.042  24.901  52.112  1.00  0.00    -0.075 SA
HETATM    3  C   UNL     1       6.107  24.460  53.355  1.00  0.00    -0.008 A 
HETATM    4  C   UNL     1       6.338  25.485  54.257  1.00  0.00    -0.026 A 
HETATM    5  C   UNL     1       7.260  25.263  55.424  1.00  0.00     0.041 C 
HETATM    6  C   UNL     1       8.175  24.044  55.233  1.00  0.00     0.010 C 
HETATM    7  C   UNL     1       7.394  22.793  54.751  1.00  0.00    -0.002 C 
HETATM    8  C   UNL     1       6.740  23.097  53.376  1.00  0.00     0.052 C 
HETATM    9  C   UNL     1       5.621  26.692  53.882  1.00  0.00     0.073 A 
ENDROOT
BRANCH   1  10
HETATM   10  N   UNL     1       4.205  27.451  52.005  1.00  0.00    -0.319 N 
HETATM   11  C   UNL     1       4.560  28.064  50.829  1.00  0.00     0.248 C 
HETATM   12  O   UNL     1       5.507  27.814  50.086  1.00  0.00    -0.271 OA
HETATM   13  H   UNL     1       3.290  27.643  52.425  1.00  0.00     0.169 HD
BRANCH  11  14
HETATM   14  C   UNL     1       3.568  29.134  50.374  1.00  0.00     0.335 C 
BRANCH  14  15
HETATM   15  N   UNL     1       2.256  28.490  49.981  1.00  0.00    -0.067 N 
HETATM   16  H   UNL     1       1.593  29.279  49.873  1.00  0.00     0.277 HD
HETATM   17  H   UNL     1       1.903  27.903  50.746  1.00  0.00     0.277 HD
BRANCH  15  18
HETATM   18  C   UNL     1       2.310  27.728  48.697  1.00  0.00     0.236 C 
BRANCH  18  19
HETATM   19  C   UNL     1       1.358  28.340  47.664  1.00  0.00     0.003 C 
HETATM   20  C   UNL     1       0.879  27.246  46.706  1.00  0.00     0.011 C 
HETATM   21  C   UNL     1       2.007  29.475  46.871  1.00  0.00     0.011 C 
ENDBRANCH  18  19
ENDBRANCH  15  18
ENDBRANCH  14  15
ENDBRANCH  11  14
ENDBRANCH   1  10
BRANCH   9  22
HETATM   22  C   UNL     1       5.582  28.024  54.527  1.00  0.00     0.259 C 
HETATM   23  N   UNL     1       4.410  28.346  55.177  1.00  0.00    -0.323 N 
HETATM   24  H   UNL     1       3.629  27.721  55.051  1.00  0.00     0.169 HD
HETATM   25  O   UNL     1       6.544  28.782  54.392  1.00  0.00    -0.267 OA
BRANCH  23  26
HETATM   26  C   UNL     1       4.147  29.493  55.956  1.00  0.00     0.035 A 
HETATM   27  C   UNL     1       4.503  29.627  57.298  1.00  0.00     0.032 A 
HETATM   28  C   UNL     1       4.179  30.791  58.003  1.00  0.00     0.039 A 
HETATM   29  C   UNL     1       3.484  31.833  57.388  1.00  0.00     0.068 A 
HETATM   30  C   UNL     1       3.129  31.708  56.047  1.00  0.00     0.039 A 
HETATM   31  C   UNL     1       3.459  30.545  55.337  1.00  0.00     0.032 A 
BRANCH  29  32
HETATM   32  O   UNL     1       3.223  32.902  58.197  1.00  0.00    -0.356 OA
HETATM   33  C   UNL     1       3.137  34.177  57.572  1.00  0.00     0.210 C 
ENDBRANCH  29  32
ENDBRANCH  23  26
ENDBRANCH   9  22
BRANCH   7  34
HETATM   34  C   UNL     1       8.257  21.476  54.756  1.00  0.00    -0.047 C 
HETATM   35  C   UNL     1       7.808  20.565  55.920  1.00  0.00     0.015 C 
HETATM   36  C   UNL     1       8.060  20.679  53.449  1.00  0.00     0.015 C 
HETATM   37  C   UNL     1       9.764  21.759  54.923  1.00  0.00     0.015 C 
ENDBRANCH   7  34
TORSDOF 9
ENDMDL
