MODEL 1
REMARK VINA RESULT:      -9.1      0.000      0.000
REMARK  8 active torsions:
REMARK  status: ('A' for Active; 'I' for Inactive)
REMARK    1  A    between atoms: C_2  and  C_3 
REMARK    2  A    between atoms: C_3  and  N_4 
REMARK    3  A    between atoms: C_7  and  C_8 
REMARK       I    between atoms: C_8  and  N_9 
REMARK    4  A    between atoms: N_9  and  N_10 
REMARK       I    between atoms: N_10  and  C_11 
REMARK    5  A    between atoms: C_11  and  C_12 
REMARK    6  A    between atoms: C_12  and  O_13 
REMARK    7  A    between atoms: O_13  and  C_14 
REMARK    8  A    between atoms: C_23  and  C_24 
ROOT
HETATM    1  C   UNL     1       7.262  26.965  55.873  1.00  0.00     0.273 C 
HETATM    2  N   UNL     1       6.572  27.306  57.025  1.00  0.00    -0.263 N 
HETATM    3  O   UNL     1       7.512  27.790  54.998  1.00  0.00    -0.266 OA
HETATM    4  H   UNL     1       6.626  26.715  57.852  1.00  0.00     0.190 HD
ENDROOT
BRANCH   2   5
HETATM    5  N   UNL     1       6.298  28.663  57.265  1.00  0.00    -0.265 N 
HETATM    6  C   UNL     1       7.231  29.385  57.985  1.00  0.00     0.260 C 
HETATM    7  O   UNL     1       8.209  28.853  58.512  1.00  0.00    -0.269 OA
HETATM    8  H   UNL     1       5.636  29.110  56.631  1.00  0.00     0.190 HD
BRANCH   6   9
HETATM    9  C   UNL     1       6.938  30.873  58.083  1.00  0.00     0.280 C 
BRANCH   9  10
HETATM   10  O   UNL     1       8.108  31.514  58.581  1.00  0.00    -0.342 OA
BRANCH  10  11
HETATM   11  C   UNL     1       8.106  31.826  59.913  1.00  0.00     0.069 A 
HETATM   12  C   UNL     1       6.933  32.424  60.377  1.00  0.00     0.037 A 
HETATM   13  C   UNL     1       6.807  32.796  61.718  1.00  0.00     0.009 A 
HETATM   14  C   UNL     1       7.864  32.589  62.610  1.00  0.00    -0.062 A 
HETATM   15  C   UNL     1       7.733  32.961  64.058  1.00  0.00     0.048 C 
HETATM   16  C   UNL     1       9.040  31.993  62.140  1.00  0.00     0.009 A 
HETATM   17  C   UNL     1       9.163  31.618  60.797  1.00  0.00     0.037 A 
ENDBRANCH  10  11
ENDBRANCH   9  10
ENDBRANCH   6   9
ENDBRANCH   2   5
BRANCH   1  18
HETATM   18  C   UNL     1       7.609  25.555  55.804  1.00  0.00     0.077 A 
HETATM   19  C   UNL     1       8.314  24.850  56.811  1.00  0.00     0.158 A 
HETATM   20  N   UNL     1       8.531  23.574  56.508  1.00  0.00    -0.183 NA
HETATM   21  N   UNL     1       7.904  23.416  55.327  1.00  0.00    -0.268 N 
HETATM   22  C   UNL     1       7.392  24.597  54.819  1.00  0.00     0.052 A 
BRANCH  21  23
HETATM   23  C   UNL     1       7.868  22.086  54.717  1.00  0.00     0.106 C 
HETATM   24  C   UNL     1       9.159  21.836  53.934  1.00  0.00     0.034 C 
BRANCH  23  25
HETATM   25  C   UNL     1       7.620  20.944  55.726  1.00  0.00     0.022 C 
HETATM   26  C   UNL     1       8.803  19.990  55.851  1.00  0.00     0.007 C 
ENDBRANCH  23  25
ENDBRANCH  21  23
BRANCH  22  27
HETATM   27  C   UNL     1       6.790  24.721  53.417  1.00  0.00     0.038 A 
HETATM   28  C   UNL     1       7.043  25.936  52.562  1.00  0.00     0.011 A 
HETATM   29  C   UNL     1       7.682  24.637  52.200  1.00  0.00     0.011 A 
ENDBRANCH  22  27
ENDBRANCH   1  18
TORSDOF 8
ENDMDL
MODEL 2
REMARK VINA RESULT:      -9.0      2.179     10.169
REMARK  8 active torsions:
REMARK  status: ('A' for Active; 'I' for Inactive)
REMARK    1  A    between atoms: C_2  and  C_3 
REMARK    2  A    between atoms: C_3  and  N_4 
REMARK    3  A    between atoms: C_7  and  C_8 
REMARK       I    between atoms: C_8  and  N_9 
REMARK    4  A    between atoms: N_9  and  N_10 
REMARK       I    between atoms: N_10  and  C_11 
REMARK    5  A    between atoms: C_11  and  C_12 
REMARK    6  A    between atoms: C_12  and  O_13 
REMARK    7  A    between atoms: O_13  and  C_14 
REMARK    8  A    between atoms: C_23  and  C_24 
ROOT
HETATM    1  C   UNL     1       8.394  30.327  58.979  1.00  0.00     0.273 C 
HETATM    2  N   UNL     1       7.576  29.260  58.646  1.00  0.00    -0.263 N 
HETATM    3  O   UNL     1       9.269  30.734  58.219  1.00  0.00    -0.266 OA
HETATM    4  H   UNL     1       6.688  29.121  59.127  1.00  0.00     0.190 HD
ENDROOT
BRANCH   2   5
HETATM    5  N   UNL     1       7.646  28.742  57.342  1.00  0.00    -0.265 N 
HETATM    6  C   UNL     1       7.733  27.369  57.205  1.00  0.00     0.260 C 
HETATM    7  O   UNL     1       7.872  26.619  58.173  1.00  0.00    -0.269 OA
HETATM    8  H   UNL     1       7.291  29.340  56.597  1.00  0.00     0.190 HD
BRANCH   6   9
HETATM    9  C   UNL     1       7.661  26.873  55.770  1.00  0.00     0.280 C 
BRANCH   9  10
HETATM   10  O   UNL     1       6.716  25.809  55.725  1.00  0.00    -0.342 OA
BRANCH  10  11
HETATM   11  C   UNL     1       7.080  24.708  54.999  1.00  0.00     0.069 A 
HETATM   12  C   UNL     1       7.258  23.541  55.745  1.00  0.00     0.037 A 
HETATM   13  C   UNL     1       7.634  22.349  55.123  1.00  0.00     0.009 A 
HETATM   14  C   UNL     1       7.857  22.313  53.743  1.00  0.00    -0.062 A 
HETATM   15  C   UNL     1       8.238  21.034  53.058  1.00  0.00     0.048 C 
HETATM   16  C   UNL     1       7.682  23.485  52.999  1.00  0.00     0.009 A 
HETATM   17  C   UNL     1       7.300  24.679  53.624  1.00  0.00     0.037 A 
ENDBRANCH  10  11
ENDBRANCH   9  10
ENDBRANCH   6   9
ENDBRANCH   2   5
BRANCH   1  18
HETATM   18  C   UNL     1       8.132  30.864  60.303  1.00  0.00     0.077 A 
HETATM   19  C   UNL     1       8.746  30.405  61.495  1.00  0.00     0.158 A 
HETATM   20  N   UNL     1       8.327  31.039  62.584  1.00  0.00    -0.183 NA
HETATM   21  N   UNL     1       7.482  31.972  62.104  1.00  0.00    -0.268 N 
HETATM   22  C   UNL     1       7.270  31.866  60.741  1.00  0.00     0.052 A 
BRANCH  21  23
HETATM   23  C   UNL     1       6.878  32.925  63.035  1.00  0.00     0.106 C 
HETATM   24  C   UNL     1       5.519  32.404  63.508  1.00  0.00     0.034 C 
BRANCH  23  25
HETATM   25  C   UNL     1       7.773  33.269  64.245  1.00  0.00     0.022 C 
HETATM   26  C   UNL     1       6.979  33.699  65.473  1.00  0.00     0.007 C 
ENDBRANCH  23  25
ENDBRANCH  21  23
BRANCH  22  27
HETATM   27  C   UNL     1       6.225  32.689  59.983  1.00  0.00     0.038 A 
HETATM   28  C   UNL     1       5.624  32.193  58.693  1.00  0.00     0.011 A 
HETATM   29  C   UNL     1       4.789  32.224  59.929  1.00  0.00     0.011 A 
ENDBRANCH  22  27
ENDBRANCH   1  18
TORSDOF 8
ENDMDL
MODEL 3
REMARK VINA RESULT:      -8.9      2.577      9.051
REMARK  8 active torsions:
REMARK  status: ('A' for Active; 'I' for Inactive)
REMARK    1  A    between atoms: C_2  and  C_3 
REMARK    2  A    between atoms: C_3  and  N_4 
REMARK    3  A    between atoms: C_7  and  C_8 
REMARK       I    between atoms: C_8  and  N_9 
REMARK    4  A    between atoms: N_9  and  N_10 
REMARK       I    between atoms: N_10  and  C_11 
REMARK    5  A    between atoms: C_11  and  C_12 
REMARK    6  A    between atoms: C_12  and  O_13 
REMARK    7  A    between atoms: O_13  and  C_14 
REMARK    8  A    between atoms: C_23  and  C_24 
ROOT
HETATM    1  C   UNL     1       5.493  29.736  56.331  1.00  0.00     0.273 C 
HETATM    2  N   UNL     1       6.140  29.819  55.109  1.00  0.00    -0.263 N 
HETATM    3  O   UNL     1       4.463  29.083  56.475  1.00  0.00    -0.266 OA
HETATM    4  H   UNL     1       7.118  30.102  55.062  1.00  0.00     0.190 HD
ENDROOT
BRANCH   2   5
HETATM    5  N   UNL     1       5.694  29.003  54.056  1.00  0.00    -0.265 N 
HETATM    6  C   UNL     1       6.602  28.119  53.505  1.00  0.00     0.260 C 
HETATM    7  O   UNL     1       7.792  28.116  53.822  1.00  0.00    -0.269 OA
HETATM    8  H   UNL     1       4.687  28.858  53.992  1.00  0.00     0.190 HD
BRANCH   6   9
HETATM    9  C   UNL     1       6.012  27.172  52.472  1.00  0.00     0.280 C 
BRANCH   9  10
HETATM   10  O   UNL     1       5.432  26.075  53.170  1.00  0.00    -0.342 OA
BRANCH  10  11
HETATM   11  C   UNL     1       6.285  25.068  53.531  1.00  0.00     0.069 A 
HETATM   12  C   UNL     1       7.027  24.519  52.483  1.00  0.00     0.037 A 
HETATM   13  C   UNL     1       7.931  23.480  52.719  1.00  0.00     0.009 A 
HETATM   14  C   UNL     1       8.091  22.964  54.009  1.00  0.00    -0.062 A 
HETATM   15  C   UNL     1       9.075  21.865  54.281  1.00  0.00     0.048 C 
HETATM   16  C   UNL     1       7.343  23.514  55.056  1.00  0.00     0.009 A 
HETATM   17  C   UNL     1       6.440  24.558  54.818  1.00  0.00     0.037 A 
ENDBRANCH  10  11
ENDBRANCH   9  10
ENDBRANCH   6   9
ENDBRANCH   2   5
BRANCH   1  18
HETATM   18  C   UNL     1       6.130  30.519  57.376  1.00  0.00     0.077 A 
HETATM   19  C   UNL     1       5.764  31.842  57.728  1.00  0.00     0.158 A 
HETATM   20  N   UNL     1       6.509  32.355  58.701  1.00  0.00    -0.183 NA
HETATM   21  N   UNL     1       7.327  31.342  59.044  1.00  0.00    -0.268 N 
HETATM   22  C   UNL     1       7.193  30.233  58.228  1.00  0.00     0.052 A 
BRANCH  21  23
HETATM   23  C   UNL     1       8.254  31.528  60.161  1.00  0.00     0.106 C 
HETATM   24  C   UNL     1       9.611  32.008  59.640  1.00  0.00     0.034 C 
BRANCH  23  25
HETATM   25  C   UNL     1       7.729  32.483  61.255  1.00  0.00     0.022 C 
HETATM   26  C   UNL     1       8.315  32.193  62.632  1.00  0.00     0.007 C 
ENDBRANCH  23  25
ENDBRANCH  21  23
BRANCH  22  27
HETATM   27  C   UNL     1       8.123  29.019  58.295  1.00  0.00     0.038 A 
HETATM   28  C   UNL     1       7.931  27.835  57.382  1.00  0.00     0.011 A 
HETATM   29  C   UNL     1       9.093  28.746  57.169  1.00  0.00     0.011 A 
ENDBRANCH  22  27
ENDBRANCH   1  18
TORSDOF 8
ENDMDL
MODEL 4
REMARK VINA RESULT:      -8.9      1.329      2.521
REMARK  8 active torsions:
REMARK  status: ('A' for Active; 'I' for Inactive)
REMARK    1  A    between atoms: C_2  and  C_3 
REMARK    2  A    between atoms: C_3  and  N_4 
REMARK    3  A    between atoms: C_7  and  C_8 
REMARK       I    between atoms: C_8  and  N_9 
REMARK    4  A    between atoms: N_9  and  N_10 
REMARK       I    between atoms: N_10  and  C_11 
REMARK    5  A    between atoms: C_11  and  C_12 
REMARK    6  A    between atoms: C_12  and  O_13 
REMARK    7  A    between atoms: O_13  and  C_14 
REMARK    8  A    between atoms: C_23  and  C_24 
ROOT
HETATM    1  C   UNL     1       5.734  26.753  56.086  1.00  0.00     0.273 C 
HETATM    2  N   UNL     1       6.685  27.760  56.116  1.00  0.00    -0.263 N 
HETATM    3  O   UNL     1       4.651  26.867  56.655  1.00  0.00    -0.266 OA
HETATM    4  H   UNL     1       7.430  27.786  55.422  1.00  0.00     0.190 HD
ENDROOT
BRANCH   2   5
HETATM    5  N   UNL     1       6.332  29.000  56.674  1.00  0.00    -0.265 N 
HETATM    6  C   UNL     1       7.063  29.442  57.760  1.00  0.00     0.260 C 
HETATM    7  O   UNL     1       7.911  28.740  58.312  1.00  0.00    -0.269 OA
HETATM    8  H   UNL     1       5.819  29.639  56.068  1.00  0.00     0.190 HD
BRANCH   6   9
HETATM    9  C   UNL     1       6.720  30.851  58.219  1.00  0.00     0.280 C 
BRANCH   9  10
HETATM   10  O   UNL     1       7.888  31.410  58.812  1.00  0.00    -0.342 OA
BRANCH  10  11
HETATM   11  C   UNL     1       7.757  31.861  60.097  1.00  0.00     0.069 A 
HETATM   12  C   UNL     1       8.810  31.527  60.950  1.00  0.00     0.037 A 
HETATM   13  C   UNL     1       8.794  31.924  62.289  1.00  0.00     0.009 A 
HETATM   14  C   UNL     1       7.711  32.647  62.798  1.00  0.00    -0.062 A 
HETATM   15  C   UNL     1       7.692  33.101  64.228  1.00  0.00     0.048 C 
HETATM   16  C   UNL     1       6.655  32.977  61.941  1.00  0.00     0.009 A 
HETATM   17  C   UNL     1       6.674  32.581  60.598  1.00  0.00     0.037 A 
ENDBRANCH  10  11
ENDBRANCH   9  10
ENDBRANCH   6   9
ENDBRANCH   2   5
BRANCH   1  18
HETATM   18  C   UNL     1       6.168  25.570  55.362  1.00  0.00     0.077 A 
HETATM   19  C   UNL     1       5.738  25.221  54.058  1.00  0.00     0.158 A 
HETATM   20  N   UNL     1       6.259  24.081  53.617  1.00  0.00    -0.183 NA
HETATM   21  N   UNL     1       7.093  23.709  54.606  1.00  0.00    -0.268 N 
HETATM   22  C   UNL     1       7.025  24.532  55.716  1.00  0.00     0.052 A 
BRANCH  21  23
HETATM   23  C   UNL     1       7.913  22.510  54.427  1.00  0.00     0.106 C 
HETATM   24  C   UNL     1       7.439  21.406  55.375  1.00  0.00     0.034 C 
BRANCH  23  25
HETATM   25  C   UNL     1       7.951  21.992  52.973  1.00  0.00     0.022 C 
HETATM   26  C   UNL     1       8.233  20.497  52.878  1.00  0.00     0.007 C 
ENDBRANCH  23  25
ENDBRANCH  21  23
BRANCH  22  27
HETATM   27  C   UNL     1       7.739  24.229  57.036  1.00  0.00     0.038 A 
HETATM   28  C   UNL     1       9.240  24.305  57.150  1.00  0.00     0.011 A 
HETATM   29  C   UNL     1       8.399  25.344  57.813  1.00  0.00     0.011 A 
ENDBRANCH  22  27
ENDBRANCH   1  18
TORSDOF 8
ENDMDL
MODEL 5
REMARK VINA RESULT:      -8.7      2.396     10.341
REMARK  8 active torsions:
REMARK  status: ('A' for Active; 'I' for Inactive)
REMARK    1  A    between atoms: C_2  and  C_3 
REMARK    2  A    between atoms: C_3  and  N_4 
REMARK    3  A    between atoms: C_7  and  C_8 
REMARK       I    between atoms: C_8  and  N_9 
REMARK    4  A    between atoms: N_9  and  N_10 
REMARK       I    between atoms: N_10  and  C_11 
REMARK    5  A    between atoms: C_11  and  C_12 
REMARK    6  A    between atoms: C_12  and  O_13 
REMARK    7  A    between atoms: O_13  and  C_14 
REMARK    8  A    between atoms: C_23  and  C_24 
ROOT
HETATM    1  C   UNL     1       7.415  31.585  59.187  1.00  0.00     0.273 C 
HETATM    2  N   UNL     1       6.710  30.535  58.621  1.00  0.00    -0.263 N 
HETATM    3  O   UNL     1       8.466  31.995  58.701  1.00  0.00    -0.266 OA
HETATM    4  H   UNL     1       5.724  30.399  58.841  1.00  0.00     0.190 HD
ENDROOT
BRANCH   2   5
HETATM    5  N   UNL     1       7.126  30.042  57.373  1.00  0.00    -0.265 N 
HETATM    6  C   UNL     1       7.676  28.775  57.339  1.00  0.00     0.260 C 
HETATM    7  O   UNL     1       7.917  28.135  58.364  1.00  0.00    -0.269 OA
HETATM    8  H   UNL     1       6.702  30.472  56.552  1.00  0.00     0.190 HD
BRANCH   6   9
HETATM    9  C   UNL     1       7.971  28.253  55.942  1.00  0.00     0.280 C 
BRANCH   9  10
HETATM   10  O   UNL     1       6.830  27.524  55.501  1.00  0.00    -0.342 OA
BRANCH  10  11
HETATM   11  C   UNL     1       7.070  26.283  54.980  1.00  0.00     0.069 A 
HETATM   12  C   UNL     1       7.460  26.270  53.639  1.00  0.00     0.037 A 
HETATM   13  C   UNL     1       7.730  25.064  52.987  1.00  0.00     0.009 A 
HETATM   14  C   UNL     1       7.594  23.850  53.666  1.00  0.00    -0.062 A 
HETATM   15  C   UNL     1       7.903  22.549  52.986  1.00  0.00     0.048 C 
HETATM   16  C   UNL     1       7.198  23.865  55.009  1.00  0.00     0.009 A 
HETATM   17  C   UNL     1       6.932  25.075  55.662  1.00  0.00     0.037 A 
ENDBRANCH  10  11
ENDBRANCH   9  10
ENDBRANCH   6   9
ENDBRANCH   2   5
BRANCH   1  18
HETATM   18  C   UNL     1       6.808  32.099  60.403  1.00  0.00     0.077 A 
HETATM   19  C   UNL     1       5.601  32.840  60.449  1.00  0.00     0.158 A 
HETATM   20  N   UNL     1       5.261  33.219  61.677  1.00  0.00    -0.183 NA
HETATM   21  N   UNL     1       6.211  32.666  62.455  1.00  0.00    -0.268 N 
HETATM   22  C   UNL     1       7.211  32.039  61.734  1.00  0.00     0.052 A 
BRANCH  21  23
HETATM   23  C   UNL     1       6.110  32.814  63.908  1.00  0.00     0.106 C 
HETATM   24  C   UNL     1       7.310  33.602  64.437  1.00  0.00     0.034 C 
BRANCH  23  25
HETATM   25  C   UNL     1       4.790  33.462  64.378  1.00  0.00     0.022 C 
HETATM   26  C   UNL     1       4.786  33.797  65.866  1.00  0.00     0.007 C 
ENDBRANCH  23  25
ENDBRANCH  21  23
BRANCH  22  27
HETATM   27  C   UNL     1       8.490  31.487  62.369  1.00  0.00     0.038 A 
HETATM   28  C   UNL     1       9.294  30.405  61.694  1.00  0.00     0.011 A 
HETATM   29  C   UNL     1       9.835  31.795  61.752  1.00  0.00     0.011 A 
ENDBRANCH  22  27
ENDBRANCH   1  18
TORSDOF 8
ENDMDL
MODEL 6
REMARK VINA RESULT:      -8.6      2.089      9.965
REMARK  8 active torsions:
REMARK  status: ('A' for Active; 'I' for Inactive)
REMARK    1  A    between atoms: C_2  and  C_3 
REMARK    2  A    between atoms: C_3  and  N_4 
REMARK    3  A    between atoms: C_7  and  C_8 
REMARK       I    between atoms: C_8  and  N_9 
REMARK    4  A    between atoms: N_9  and  N_10 
REMARK       I    between atoms: N_10  and  C_11 
REMARK    5  A    between atoms: C_11  and  C_12 
REMARK    6  A    between atoms: C_12  and  O_13 
REMARK    7  A    between atoms: O_13  and  C_14 
REMARK    8  A    between atoms: C_23  and  C_24 
ROOT
HETATM    1  C   UNL     1       5.919  30.373  57.430  1.00  0.00     0.273 C 
HETATM    2  N   UNL     1       5.763  29.060  57.843  1.00  0.00    -0.263 N 
HETATM    3  O   UNL     1       6.023  30.670  56.242  1.00  0.00    -0.266 OA
HETATM    4  H   UNL     1       5.390  28.853  58.769  1.00  0.00     0.190 HD
ENDROOT
BRANCH   2   5
HETATM    5  N   UNL     1       5.555  28.070  56.869  1.00  0.00    -0.265 N 
HETATM    6  C   UNL     1       6.598  27.202  56.609  1.00  0.00     0.260 C 
HETATM    7  O   UNL     1       7.716  27.348  57.107  1.00  0.00    -0.269 OA
HETATM    8  H   UNL     1       4.585  27.828  56.669  1.00  0.00     0.190 HD
BRANCH   6   9
HETATM    9  C   UNL     1       6.255  26.072  55.652  1.00  0.00     0.280 C 
BRANCH   9  10
HETATM   10  O   UNL     1       7.422  25.776  54.892  1.00  0.00    -0.342 OA
BRANCH  10  11
HETATM   11  C   UNL     1       7.588  24.470  54.521  1.00  0.00     0.069 A 
HETATM   12  C   UNL     1       7.834  24.270  53.161  1.00  0.00     0.037 A 
HETATM   13  C   UNL     1       8.017  22.981  52.653  1.00  0.00     0.009 A 
HETATM   14  C   UNL     1       7.935  21.871  53.500  1.00  0.00    -0.062 A 
HETATM   15  C   UNL     1       8.152  20.483  52.973  1.00  0.00     0.048 C 
HETATM   16  C   UNL     1       7.683  22.076  54.862  1.00  0.00     0.009 A 
HETATM   17  C   UNL     1       7.505  23.368  55.370  1.00  0.00     0.037 A 
ENDBRANCH  10  11
ENDBRANCH   9  10
ENDBRANCH   6   9
ENDBRANCH   2   5
BRANCH   1  18
HETATM   18  C   UNL     1       5.986  31.321  58.529  1.00  0.00     0.077 A 
HETATM   19  C   UNL     1       4.966  32.250  58.853  1.00  0.00     0.158 A 
HETATM   20  N   UNL     1       5.269  33.026  59.888  1.00  0.00    -0.183 NA
HETATM   21  N   UNL     1       6.465  32.561  60.296  1.00  0.00    -0.268 N 
HETATM   22  C   UNL     1       6.980  31.579  59.468  1.00  0.00     0.052 A 
BRANCH  21  23
HETATM   23  C   UNL     1       7.080  33.142  61.490  1.00  0.00     0.106 C 
HETATM   24  C   UNL     1       6.201  34.270  62.035  1.00  0.00     0.034 C 
BRANCH  23  25
HETATM   25  C   UNL     1       7.384  32.112  62.600  1.00  0.00     0.022 C 
HETATM   26  C   UNL     1       7.902  32.752  63.883  1.00  0.00     0.007 C 
ENDBRANCH  23  25
ENDBRANCH  21  23
BRANCH  22  27
HETATM   27  C   UNL     1       8.395  31.012  59.610  1.00  0.00     0.038 A 
HETATM   28  C   UNL     1       9.179  30.556  58.406  1.00  0.00     0.011 A 
HETATM   29  C   UNL     1       9.581  31.806  59.114  1.00  0.00     0.011 A 
ENDBRANCH  22  27
ENDBRANCH   1  18
TORSDOF 8
ENDMDL
MODEL 7
REMARK VINA RESULT:      -8.4      5.854     10.056
REMARK  8 active torsions:
REMARK  status: ('A' for Active; 'I' for Inactive)
REMARK    1  A    between atoms: C_2  and  C_3 
REMARK    2  A    between atoms: C_3  and  N_4 
REMARK    3  A    between atoms: C_7  and  C_8 
REMARK       I    between atoms: C_8  and  N_9 
REMARK    4  A    between atoms: N_9  and  N_10 
REMARK       I    between atoms: N_10  and  C_11 
REMARK    5  A    between atoms: C_11  and  C_12 
REMARK    6  A    between atoms: C_12  and  O_13 
REMARK    7  A    between atoms: O_13  and  C_14 
REMARK    8  A    between atoms: C_23  and  C_24 
ROOT
HETATM    1  C   UNL     1       4.705  27.170  50.962  1.00  0.00     0.273 C 
HETATM    2  N   UNL     1       4.136  27.314  52.217  1.00  0.00    -0.263 N 
HETATM    3  O   UNL     1       5.551  26.309  50.729  1.00  0.00    -0.266 OA
HETATM    4  H   UNL     1       3.253  27.809  52.327  1.00  0.00     0.190 HD
ENDROOT
BRANCH   2   5
HETATM    5  N   UNL     1       4.418  26.348  53.196  1.00  0.00    -0.265 N 
HETATM    6  C   UNL     1       5.393  26.649  54.128  1.00  0.00     0.260 C 
HETATM    7  O   UNL     1       6.088  27.663  54.048  1.00  0.00    -0.269 OA
HETATM    8  H   UNL     1       3.687  25.661  53.378  1.00  0.00     0.190 HD
BRANCH   6   9
HETATM    9  C   UNL     1       5.543  25.622  55.239  1.00  0.00     0.280 C 
BRANCH   9  10
HETATM   10  O   UNL     1       6.923  25.285  55.335  1.00  0.00    -0.342 OA
BRANCH  10  11
HETATM   11  C   UNL     1       7.286  24.069  54.824  1.00  0.00     0.069 A 
HETATM   12  C   UNL     1       7.560  24.062  53.455  1.00  0.00     0.037 A 
HETATM   13  C   UNL     1       7.937  22.881  52.811  1.00  0.00     0.009 A 
HETATM   14  C   UNL     1       8.026  21.684  53.528  1.00  0.00    -0.062 A 
HETATM   15  C   UNL     1       8.453  20.414  52.854  1.00  0.00     0.048 C 
HETATM   16  C   UNL     1       7.747  21.694  54.899  1.00  0.00     0.009 A 
HETATM   17  C   UNL     1       7.373  22.879  55.544  1.00  0.00     0.037 A 
ENDBRANCH  10  11
ENDBRANCH   9  10
ENDBRANCH   6   9
ENDBRANCH   2   5
BRANCH   1  18
HETATM   18  C   UNL     1       4.231  28.147  49.997  1.00  0.00     0.077 A 
HETATM   19  C   UNL     1       3.934  29.499  50.300  1.00  0.00     0.158 A 
HETATM   20  N   UNL     1       3.495  30.190  49.253  1.00  0.00    -0.183 NA
HETATM   21  N   UNL     1       3.570  29.311  48.236  1.00  0.00    -0.268 N 
HETATM   22  C   UNL     1       3.938  28.040  48.640  1.00  0.00     0.052 A 
BRANCH  21  23
HETATM   23  C   UNL     1       3.230  29.760  46.886  1.00  0.00     0.106 C 
HETATM   24  C   UNL     1       1.710  29.835  46.727  1.00  0.00     0.034 C 
BRANCH  23  25
HETATM   25  C   UNL     1       3.879  31.105  46.494  1.00  0.00     0.022 C 
HETATM   26  C   UNL     1       3.675  31.463  45.026  1.00  0.00     0.007 C 
ENDBRANCH  23  25
ENDBRANCH  21  23
BRANCH  22  27
HETATM   27  C   UNL     1       3.926  26.823  47.712  1.00  0.00     0.038 A 
HETATM   28  C   UNL     1       3.393  25.491  48.175  1.00  0.00     0.011 A 
HETATM   29  C   UNL     1       2.616  26.289  47.182  1.00  0.00     0.011 A 
ENDBRANCH  22  27
ENDBRANCH   1  18
TORSDOF 8
ENDMDL
MODEL 8
REMARK VINA RESULT:      -7.9      5.648      9.496
REMARK  8 active torsions:
REMARK  status: ('A' for Active; 'I' for Inactive)
REMARK    1  A    between atoms: C_2  and  C_3 
REMARK    2  A    between atoms: C_3  and  N_4 
REMARK    3  A    between atoms: C_7  and  C_8 
REMARK       I    between atoms: C_8  and  N_9 
REMARK    4  A    between atoms: N_9  and  N_10 
REMARK       I    between atoms: N_10  and  C_11 
REMARK    5  A    between atoms: C_11  and  C_12 
REMARK    6  A    between atoms: C_12  and  O_13 
REMARK    7  A    between atoms: O_13  and  C_14 
REMARK    8  A    between atoms: C_23  and  C_24 
ROOT
HETATM    1  C   UNL     1       5.352  26.407  51.615  1.00  0.00     0.273 C 
HETATM    2  N   UNL     1       4.508  26.330  52.711  1.00  0.00    -0.263 N 
HETATM    3  O   UNL     1       6.468  25.893  51.620  1.00  0.00    -0.266 OA
HETATM    4  H   UNL     1       3.508  26.489  52.603  1.00  0.00     0.190 HD
ENDROOT
BRANCH   2   5
HETATM    5  N   UNL     1       4.879  25.506  53.787  1.00  0.00    -0.265 N 
HETATM    6  C   UNL     1       5.602  26.083  54.813  1.00  0.00     0.260 C 
HETATM    7  O   UNL     1       6.025  27.239  54.750  1.00  0.00    -0.269 OA
HETATM    8  H   UNL     1       4.324  24.661  53.922  1.00  0.00     0.190 HD
BRANCH   6   9
HETATM    9  C   UNL     1       5.844  25.171  56.005  1.00  0.00     0.280 C 
BRANCH   9  10
HETATM   10  O   UNL     1       7.218  24.798  55.995  1.00  0.00    -0.342 OA
BRANCH  10  11
HETATM   11  C   UNL     1       7.556  23.762  55.168  1.00  0.00     0.069 A 
HETATM   12  C   UNL     1       7.434  22.491  55.732  1.00  0.00     0.037 A 
HETATM   13  C   UNL     1       7.754  21.350  54.993  1.00  0.00     0.009 A 
HETATM   14  C   UNL     1       8.221  21.468  53.681  1.00  0.00    -0.062 A 
HETATM   15  C   UNL     1       8.545  20.250  52.866  1.00  0.00     0.048 C 
HETATM   16  C   UNL     1       8.347  22.744  53.119  1.00  0.00     0.009 A 
HETATM   17  C   UNL     1       8.021  23.887  53.860  1.00  0.00     0.037 A 
ENDBRANCH  10  11
ENDBRANCH   9  10
ENDBRANCH   6   9
ENDBRANCH   2   5
BRANCH   1  18
HETATM   18  C   UNL     1       4.798  27.174  50.513  1.00  0.00     0.077 A 
HETATM   19  C   UNL     1       4.300  26.612  49.311  1.00  0.00     0.158 A 
HETATM   20  N   UNL     1       3.866  27.520  48.444  1.00  0.00    -0.183 NA
HETATM   21  N   UNL     1       4.012  28.686  49.103  1.00  0.00    -0.268 N 
HETATM   22  C   UNL     1       4.638  28.544  50.328  1.00  0.00     0.052 A 
BRANCH  21  23
HETATM   23  C   UNL     1       3.553  29.921  48.466  1.00  0.00     0.106 C 
HETATM   24  C   UNL     1       4.186  30.061  47.080  1.00  0.00     0.034 C 
BRANCH  23  25
HETATM   25  C   UNL     1       2.017  30.040  48.372  1.00  0.00     0.022 C 
HETATM   26  C   UNL     1       1.307  29.664  49.667  1.00  0.00     0.007 C 
ENDBRANCH  23  25
ENDBRANCH  21  23
BRANCH  22  27
HETATM   27  C   UNL     1       5.080  29.729  51.192  1.00  0.00     0.038 A 
HETATM   28  C   UNL     1       4.119  30.831  51.558  1.00  0.00     0.011 A 
HETATM   29  C   UNL     1       4.565  29.867  52.606  1.00  0.00     0.011 A 
ENDBRANCH  22  27
ENDBRANCH   1  18
TORSDOF 8
ENDMDL
MODEL 9
REMARK VINA RESULT:      -7.7      2.974     10.567
REMARK  8 active torsions:
REMARK  status: ('A' for Active; 'I' for Inactive)
REMARK    1  A    between atoms: C_2  and  C_3 
REMARK    2  A    between atoms: C_3  and  N_4 
REMARK    3  A    between atoms: C_7  and  C_8 
REMARK       I    between atoms: C_8  and  N_9 
REMARK    4  A    between atoms: N_9  and  N_10 
REMARK       I    between atoms: N_10  and  C_11 
REMARK    5  A    between atoms: C_11  and  C_12 
REMARK    6  A    between atoms: C_12  and  O_13 
REMARK    7  A    between atoms: O_13  and  C_14 
REMARK    8  A    between atoms: C_23  and  C_24 
ROOT
HETATM    1  C   UNL     1       8.266  31.926  60.407  1.00  0.00     0.273 C 
HETATM    2  N   UNL     1       8.007  30.584  60.179  1.00  0.00    -0.263 N 
HETATM    3  O   UNL     1       9.004  32.577  59.672  1.00  0.00    -0.266 OA
HETATM    4  H   UNL     1       7.191  30.139  60.596  1.00  0.00     0.190 HD
ENDROOT
BRANCH   2   5
HETATM    5  N   UNL     1       8.472  30.004  58.988  1.00  0.00    -0.265 N 
HETATM    6  C   UNL     1       7.551  29.789  57.980  1.00  0.00     0.260 C 
HETATM    7  O   UNL     1       6.344  29.973  58.143  1.00  0.00    -0.269 OA
HETATM    8  H   UNL     1       9.470  30.093  58.800  1.00  0.00     0.190 HD
BRANCH   6   9
HETATM    9  C   UNL     1       8.149  29.293  56.674  1.00  0.00     0.280 C 
BRANCH   9  10
HETATM   10  O   UNL     1       8.234  27.874  56.746  1.00  0.00    -0.342 OA
BRANCH  10  11
HETATM   11  C   UNL     1       7.648  27.180  55.723  1.00  0.00     0.069 A 
HETATM   12  C   UNL     1       7.210  25.897  56.055  1.00  0.00     0.037 A 
HETATM   13  C   UNL     1       6.598  25.083  55.098  1.00  0.00     0.009 A 
HETATM   14  C   UNL     1       6.435  25.539  53.786  1.00  0.00    -0.062 A 
HETATM   15  C   UNL     1       5.759  24.686  52.753  1.00  0.00     0.048 C 
HETATM   16  C   UNL     1       6.880  26.824  53.455  1.00  0.00     0.009 A 
HETATM   17  C   UNL     1       7.489  27.639  54.417  1.00  0.00     0.037 A 
ENDBRANCH  10  11
ENDBRANCH   9  10
ENDBRANCH   6   9
ENDBRANCH   2   5
BRANCH   1  18
HETATM   18  C   UNL     1       7.617  32.445  61.599  1.00  0.00     0.077 A 
HETATM   19  C   UNL     1       8.120  32.304  62.916  1.00  0.00     0.158 A 
HETATM   20  N   UNL     1       7.336  32.845  63.842  1.00  0.00    -0.183 NA
HETATM   21  N   UNL     1       6.343  33.410  63.128  1.00  0.00    -0.268 N 
HETATM   22  C   UNL     1       6.422  33.137  61.774  1.00  0.00     0.052 A 
BRANCH  21  23
HETATM   23  C   UNL     1       5.315  34.178  63.831  1.00  0.00     0.106 C 
HETATM   24  C   UNL     1       5.090  33.595  65.228  1.00  0.00     0.034 C 
BRANCH  23  25
HETATM   25  C   UNL     1       5.618  35.689  63.921  1.00  0.00     0.022 C 
HETATM   26  C   UNL     1       4.702  36.426  64.892  1.00  0.00     0.007 C 
ENDBRANCH  23  25
ENDBRANCH  21  23
BRANCH  22  27
HETATM   27  C   UNL     1       5.326  33.512  60.773  1.00  0.00     0.038 A 
HETATM   28  C   UNL     1       4.942  32.583  59.650  1.00  0.00     0.011 A 
HETATM   29  C   UNL     1       4.003  32.783  60.792  1.00  0.00     0.011 A 
ENDBRANCH  22  27
ENDBRANCH   1  18
TORSDOF 8
ENDMDL
MODEL 10
REMARK VINA RESULT:      -7.6      3.621     11.149
REMARK  8 active torsions:
REMARK  status: ('A' for Active; 'I' for Inactive)
REMARK    1  A    between atoms: C_2  and  C_3 
REMARK    2  A    between atoms: C_3  and  N_4 
REMARK    3  A    between atoms: C_7  and  C_8 
REMARK       I    between atoms: C_8  and  N_9 
REMARK    4  A    between atoms: N_9  and  N_10 
REMARK       I    between atoms: N_10  and  C_11 
REMARK    5  A    between atoms: C_11  and  C_12 
REMARK    6  A    between atoms: C_12  and  O_13 
REMARK    7  A    between atoms: O_13  and  C_14 
REMARK    8  A    between atoms: C_23  and  C_24 
ROOT
HETATM    1  C   UNL     1       6.000  32.495  60.544  1.00  0.00     0.273 C 
HETATM    2  N   UNL     1       4.977  31.867  59.853  1.00  0.00    -0.263 N 
HETATM    3  O   UNL     1       7.175  32.160  60.407  1.00  0.00    -0.266 OA
HETATM    4  H   UNL     1       4.073  32.325  59.742  1.00  0.00     0.190 HD
ENDROOT
BRANCH   2   5
HETATM    5  N   UNL     1       5.313  30.938  58.854  1.00  0.00    -0.265 N 
HETATM    6  C   UNL     1       4.313  30.547  57.984  1.00  0.00     0.260 C 
HETATM    7  O   UNL     1       3.139  30.889  58.136  1.00  0.00    -0.269 OA
HETATM    8  H   UNL     1       6.300  30.872  58.611  1.00  0.00     0.190 HD
BRANCH   6   9
HETATM    9  C   UNL     1       4.780  29.654  56.846  1.00  0.00     0.280 C 
BRANCH   9  10
HETATM   10  O   UNL     1       6.155  29.355  57.065  1.00  0.00    -0.342 OA
BRANCH  10  11
HETATM   11  C   UNL     1       6.522  28.047  56.910  1.00  0.00     0.069 A 
HETATM   12  C   UNL     1       5.648  27.276  56.141  1.00  0.00     0.037 A 
HETATM   13  C   UNL     1       5.907  25.922  55.911  1.00  0.00     0.009 A 
HETATM   14  C   UNL     1       7.038  25.316  56.467  1.00  0.00    -0.062 A 
HETATM   15  C   UNL     1       7.341  23.870  56.209  1.00  0.00     0.048 C 
HETATM   16  C   UNL     1       7.909  26.091  57.241  1.00  0.00     0.009 A 
HETATM   17  C   UNL     1       7.651  27.449  57.467  1.00  0.00     0.037 A 
ENDBRANCH  10  11
ENDBRANCH   9  10
ENDBRANCH   6   9
ENDBRANCH   2   5
BRANCH   1  18
HETATM   18  C   UNL     1       5.535  33.532  61.448  1.00  0.00     0.077 A 
HETATM   19  C   UNL     1       4.789  34.671  61.052  1.00  0.00     0.158 A 
HETATM   20  N   UNL     1       4.498  35.488  62.059  1.00  0.00    -0.183 NA
HETATM   21  N   UNL     1       4.993  34.852  63.138  1.00  0.00    -0.268 N 
HETATM   22  C   UNL     1       5.694  33.702  62.820  1.00  0.00     0.052 A 
BRANCH  21  23
HETATM   23  C   UNL     1       4.782  35.438  64.463  1.00  0.00     0.106 C 
HETATM   24  C   UNL     1       4.813  36.966  64.369  1.00  0.00     0.034 C 
BRANCH  23  25
HETATM   25  C   UNL     1       3.485  34.967  65.154  1.00  0.00     0.022 C 
HETATM   26  C   UNL     1       3.359  35.463  66.590  1.00  0.00     0.007 C 
ENDBRANCH  23  25
ENDBRANCH  21  23
BRANCH  22  27
HETATM   27  C   UNL     1       6.499  32.896  63.843  1.00  0.00     0.038 A 
HETATM   28  C   UNL     1       7.981  32.676  63.673  1.00  0.00     0.011 A 
HETATM   29  C   UNL     1       7.491  33.593  64.744  1.00  0.00     0.011 A 
ENDBRANCH  22  27
ENDBRANCH   1  18
TORSDOF 8
ENDMDL
