MODEL 1
REMARK VINA RESULT:      -8.6      0.000      0.000
REMARK  6 active torsions:
REMARK  status: ('A' for Active; 'I' for Inactive)
REMARK    1  A    between atoms: C_4  and  C_5 
REMARK    2  A    between atoms: C_10  and  C_11 
REMARK    3  A    between atoms: C_11  and  N_12 
REMARK    4  A    between atoms: N_12  and  C_14 
REMARK    5  A    between atoms: C_14  and  C_15 
REMARK       I    between atoms: C_15  and  N_16 
REMARK    6  A    between atoms: N_16  and  C_17 
ROOT
HETATM    1  N   UNL     1       6.315  26.051  55.920  1.00  0.00    -0.063 N 
HETATM    2  H   UNL     1       7.077  26.562  55.449  1.00  0.00     0.280 HD
HETATM    3  C   UNL     1       6.929  25.386  57.120  1.00  0.00     0.270 C 
ENDROOT
BRANCH   1   4
HETATM    4  C   UNL     1       5.770  25.035  54.953  1.00  0.00     0.277 C 
BRANCH   4   5
HETATM    5  C   UNL     1       6.441  25.036  53.632  1.00  0.00     0.018 A 
HETATM    6  C   UNL     1       7.257  24.020  53.061  1.00  0.00     0.120 A 
HETATM    7  N   UNL     1       7.702  24.367  51.849  1.00  0.00    -0.172 NA
HETATM    8  N   UNL     1       7.213  25.596  51.646  1.00  0.00    -0.288 N 
HETATM    9  H   UNL     1       7.452  26.075  50.781  1.00  0.00     0.188 HD
HETATM   10  C   UNL     1       6.426  26.034  52.674  1.00  0.00     0.120 A 
BRANCH   6  11
HETATM   11  C   UNL     1       7.584  22.695  53.672  1.00  0.00     0.106 A 
HETATM   12  O   UNL     1       7.617  22.445  55.019  1.00  0.00    -0.313 OA
HETATM   13  C   UNL     1       7.973  21.138  55.182  1.00  0.00     0.050 A 
HETATM   14  C   UNL     1       8.116  20.650  56.569  1.00  0.00     0.076 C 
HETATM   15  C   UNL     1       8.144  20.538  53.956  1.00  0.00     0.035 A 
HETATM   16  C   UNL     1       7.887  21.536  52.985  1.00  0.00     0.042 A 
ENDBRANCH   6  11
ENDBRANCH   4   5
ENDBRANCH   1   4
BRANCH   1  17
HETATM   17  C   UNL     1       5.307  27.145  56.314  1.00  0.00     0.337 C 
BRANCH  17  18
HETATM   18  C   UNL     1       5.405  28.341  55.367  1.00  0.00     0.248 C 
HETATM   19  N   UNL     1       6.436  29.228  55.431  1.00  0.00    -0.326 N 
HETATM   20  H   UNL     1       6.460  29.842  54.618  1.00  0.00     0.169 HD
HETATM   21  O   UNL     1       4.562  28.456  54.469  1.00  0.00    -0.271 OA
BRANCH  19  22
HETATM   22  C   UNL     1       7.425  29.462  56.403  1.00  0.00     0.040 A 
HETATM   23  C   UNL     1       8.754  29.262  56.008  1.00  0.00     0.072 A 
HETATM   24  C   UNL     1       9.799  29.488  56.903  1.00  0.00     0.121 A 
HETATM   25  F   UNL     1      11.059  29.266  56.507  1.00  0.00    -0.206 F 
HETATM   26  C   UNL     1       9.557  29.937  58.189  1.00  0.00     0.084 A 
HETATM   27  C   UNL     1       8.244  30.159  58.569  1.00  0.00     0.121 A 
HETATM   28  F   UNL     1       7.982  30.621  59.798  1.00  0.00    -0.206 F 
HETATM   29  C   UNL     1       7.179  29.929  57.694  1.00  0.00     0.072 A 
ENDBRANCH  19  22
ENDBRANCH  17  18
ENDBRANCH   1  17
TORSDOF 6
ENDMDL
MODEL 2
REMARK VINA RESULT:      -8.6      0.127      1.610
REMARK  6 active torsions:
REMARK  status: ('A' for Active; 'I' for Inactive)
REMARK    1  A    between atoms: C_4  and  C_5 
REMARK    2  A    between atoms: C_10  and  C_11 
REMARK    3  A    between atoms: C_11  and  N_12 
REMARK    4  A    between atoms: N_12  and  C_14 
REMARK    5  A    between atoms: C_14  and  C_15 
REMARK       I    between atoms: C_15  and  N_16 
REMARK    6  A    between atoms: N_16  and  C_17 
ROOT
HETATM    1  N   UNL     1       6.418  26.093  55.993  1.00  0.00    -0.063 N 
HETATM    2  H   UNL     1       7.146  26.619  55.484  1.00  0.00     0.280 HD
HETATM    3  C   UNL     1       7.113  25.403  57.133  1.00  0.00     0.270 C 
ENDROOT
BRANCH   1   4
HETATM    4  C   UNL     1       5.813  25.098  55.039  1.00  0.00     0.277 C 
BRANCH   4   5
HETATM    5  C   UNL     1       6.436  25.092  53.695  1.00  0.00     0.018 A 
HETATM    6  C   UNL     1       7.233  24.072  53.102  1.00  0.00     0.120 A 
HETATM    7  N   UNL     1       7.633  24.412  51.873  1.00  0.00    -0.172 NA
HETATM    8  N   UNL     1       7.136  25.639  51.680  1.00  0.00    -0.288 N 
HETATM    9  H   UNL     1       7.343  26.113  50.803  1.00  0.00     0.188 HD
HETATM   10  C   UNL     1       6.386  26.083  52.733  1.00  0.00     0.120 A 
BRANCH   6  11
HETATM   11  C   UNL     1       7.583  22.752  53.709  1.00  0.00     0.106 A 
HETATM   12  O   UNL     1       7.646  22.506  55.056  1.00  0.00    -0.313 OA
HETATM   13  C   UNL     1       8.016  21.202  55.215  1.00  0.00     0.050 A 
HETATM   14  C   UNL     1       8.191  20.718  56.600  1.00  0.00     0.076 C 
HETATM   15  C   UNL     1       8.166  20.600  53.987  1.00  0.00     0.035 A 
HETATM   16  C   UNL     1       7.881  21.593  53.020  1.00  0.00     0.042 A 
ENDBRANCH   6  11
ENDBRANCH   4   5
ENDBRANCH   1   4
BRANCH   1  17
HETATM   17  C   UNL     1       5.435  27.173  56.479  1.00  0.00     0.337 C 
BRANCH  17  18
HETATM   18  C   UNL     1       5.416  28.362  55.518  1.00  0.00     0.248 C 
HETATM   19  N   UNL     1       6.446  29.250  55.451  1.00  0.00    -0.326 N 
HETATM   20  H   UNL     1       6.371  29.858  54.636  1.00  0.00     0.169 HD
HETATM   21  O   UNL     1       4.470  28.471  54.729  1.00  0.00    -0.271 OA
BRANCH  19  22
HETATM   22  C   UNL     1       7.546  29.492  56.294  1.00  0.00     0.040 A 
HETATM   23  C   UNL     1       7.260  29.978  57.576  1.00  0.00     0.072 A 
HETATM   24  C   UNL     1       8.291  30.228  58.482  1.00  0.00     0.121 A 
HETATM   25  F   UNL     1       7.992  30.715  59.693  1.00  0.00    -0.206 F 
HETATM   26  C   UNL     1       9.612  29.983  58.152  1.00  0.00     0.084 A 
HETATM   27  C   UNL     1       9.889  29.477  56.893  1.00  0.00     0.121 A 
HETATM   28  F   UNL     1      11.155  29.203  56.556  1.00  0.00    -0.206 F 
HETATM   29  C   UNL     1       8.875  29.229  55.963  1.00  0.00     0.072 A 
ENDBRANCH  19  22
ENDBRANCH  17  18
ENDBRANCH   1  17
TORSDOF 6
ENDMDL
MODEL 3
REMARK VINA RESULT:      -8.6      3.414      7.447
REMARK  6 active torsions:
REMARK  status: ('A' for Active; 'I' for Inactive)
REMARK    1  A    between atoms: C_4  and  C_5 
REMARK    2  A    between atoms: C_10  and  C_11 
REMARK    3  A    between atoms: C_11  and  N_12 
REMARK    4  A    between atoms: N_12  and  C_14 
REMARK    5  A    between atoms: C_14  and  C_15 
REMARK       I    between atoms: C_15  and  N_16 
REMARK    6  A    between atoms: N_16  and  C_17 
ROOT
HETATM    1  N   UNL     1       6.519  26.108  55.022  1.00  0.00    -0.063 N 
HETATM    2  H   UNL     1       7.409  25.726  54.667  1.00  0.00     0.280 HD
HETATM    3  C   UNL     1       5.436  25.539  54.148  1.00  0.00     0.270 C 
ENDROOT
BRANCH   1   4
HETATM    4  C   UNL     1       6.579  27.608  54.909  1.00  0.00     0.277 C 
BRANCH   4   5
HETATM    5  C   UNL     1       5.667  28.321  55.834  1.00  0.00     0.018 A 
HETATM    6  C   UNL     1       6.010  29.139  56.947  1.00  0.00     0.120 A 
HETATM    7  N   UNL     1       4.923  29.618  57.561  1.00  0.00    -0.172 NA
HETATM    8  N   UNL     1       3.893  29.098  56.882  1.00  0.00    -0.288 N 
HETATM    9  H   UNL     1       2.949  29.312  57.197  1.00  0.00     0.188 HD
HETATM   10  C   UNL     1       4.285  28.334  55.819  1.00  0.00     0.120 A 
BRANCH   6  11
HETATM   11  C   UNL     1       7.391  29.487  57.403  1.00  0.00     0.106 A 
HETATM   12  O   UNL     1       8.525  29.312  56.654  1.00  0.00    -0.313 OA
HETATM   13  C   UNL     1       9.581  29.723  57.414  1.00  0.00     0.050 A 
HETATM   14  C   UNL     1      10.928  29.585  56.821  1.00  0.00     0.076 C 
HETATM   15  C   UNL     1       9.138  30.184  58.632  1.00  0.00     0.035 A 
HETATM   16  C   UNL     1       7.730  30.040  58.622  1.00  0.00     0.042 A 
ENDBRANCH   6  11
ENDBRANCH   4   5
ENDBRANCH   1   4
BRANCH   1  17
HETATM   17  C   UNL     1       6.429  25.592  56.469  1.00  0.00     0.337 C 
BRANCH  17  18
HETATM   18  C   UNL     1       7.825  25.383  57.058  1.00  0.00     0.248 C 
HETATM   19  N   UNL     1       8.654  24.398  56.615  1.00  0.00    -0.326 N 
HETATM   20  H   UNL     1       9.604  24.516  56.964  1.00  0.00     0.169 HD
HETATM   21  O   UNL     1       8.235  26.183  57.908  1.00  0.00    -0.271 OA
BRANCH  19  22
HETATM   22  C   UNL     1       8.435  23.265  55.811  1.00  0.00     0.040 A 
HETATM   23  C   UNL     1       8.187  22.058  56.479  1.00  0.00     0.072 A 
HETATM   24  C   UNL     1       7.942  20.890  55.759  1.00  0.00     0.121 A 
HETATM   25  F   UNL     1       7.733  19.745  56.423  1.00  0.00    -0.206 F 
HETATM   26  C   UNL     1       7.913  20.892  54.376  1.00  0.00     0.084 A 
HETATM   27  C   UNL     1       8.132  22.091  53.719  1.00  0.00     0.121 A 
HETATM   28  F   UNL     1       8.081  22.129  52.381  1.00  0.00    -0.206 F 
HETATM   29  C   UNL     1       8.391  23.274  54.417  1.00  0.00     0.072 A 
ENDBRANCH  19  22
ENDBRANCH  17  18
ENDBRANCH   1  17
TORSDOF 6
ENDMDL
MODEL 4
REMARK VINA RESULT:      -8.5      1.442      2.783
REMARK  6 active torsions:
REMARK  status: ('A' for Active; 'I' for Inactive)
REMARK    1  A    between atoms: C_4  and  C_5 
REMARK    2  A    between atoms: C_10  and  C_11 
REMARK    3  A    between atoms: C_11  and  N_12 
REMARK    4  A    between atoms: N_12  and  C_14 
REMARK    5  A    between atoms: C_14  and  C_15 
REMARK       I    between atoms: C_15  and  N_16 
REMARK    6  A    between atoms: N_16  and  C_17 
ROOT
HETATM    1  N   UNL     1       6.118  25.407  54.226  1.00  0.00    -0.063 N 
HETATM    2  H   UNL     1       5.270  25.952  54.008  1.00  0.00     0.280 HD
HETATM    3  C   UNL     1       6.346  24.492  53.056  1.00  0.00     0.270 C 
ENDROOT
BRANCH   1   4
HETATM    4  C   UNL     1       5.856  24.626  55.486  1.00  0.00     0.277 C 
BRANCH   4   5
HETATM    5  C   UNL     1       6.972  24.657  56.460  1.00  0.00     0.018 A 
HETATM    6  C   UNL     1       7.960  23.659  56.693  1.00  0.00     0.120 A 
HETATM    7  N   UNL     1       8.812  24.024  57.656  1.00  0.00    -0.172 NA
HETATM    8  N   UNL     1       8.371  25.220  58.065  1.00  0.00    -0.288 N 
HETATM    9  H   UNL     1       8.864  25.683  58.825  1.00  0.00     0.188 HD
HETATM   10  C   UNL     1       7.285  25.658  57.360  1.00  0.00     0.120 A 
BRANCH   6  11
HETATM   11  C   UNL     1       8.103  22.362  55.964  1.00  0.00     0.106 A 
HETATM   12  O   UNL     1       8.121  22.234  54.599  1.00  0.00    -0.313 OA
HETATM   13  C   UNL     1       8.245  20.905  54.317  1.00  0.00     0.050 A 
HETATM   14  C   UNL     1       8.243  20.519  52.890  1.00  0.00     0.076 C 
HETATM   15  C   UNL     1       8.332  20.179  55.483  1.00  0.00     0.035 A 
HETATM   16  C   UNL     1       8.250  21.116  56.541  1.00  0.00     0.042 A 
ENDBRANCH   6  11
ENDBRANCH   4   5
ENDBRANCH   1   4
BRANCH   1  17
HETATM   17  C   UNL     1       7.228  26.464  54.363  1.00  0.00     0.337 C 
BRANCH  17  18
HETATM   18  C   UNL     1       6.714  27.847  53.964  1.00  0.00     0.248 C 
HETATM   19  N   UNL     1       7.159  28.983  54.567  1.00  0.00    -0.326 N 
HETATM   20  H   UNL     1       6.873  29.820  54.060  1.00  0.00     0.169 HD
HETATM   21  O   UNL     1       5.928  27.935  53.012  1.00  0.00    -0.271 OA
BRANCH  19  22
HETATM   22  C   UNL     1       7.896  29.205  55.745  1.00  0.00     0.040 A 
HETATM   23  C   UNL     1       9.291  29.228  55.619  1.00  0.00     0.072 A 
HETATM   24  C   UNL     1      10.097  29.459  56.733  1.00  0.00     0.121 A 
HETATM   25  F   UNL     1      11.429  29.451  56.589  1.00  0.00    -0.206 F 
HETATM   26  C   UNL     1       9.546  29.695  57.980  1.00  0.00     0.084 A 
HETATM   27  C   UNL     1       8.167  29.698  58.097  1.00  0.00     0.121 A 
HETATM   28  F   UNL     1       7.606  29.952  59.286  1.00  0.00    -0.206 F 
HETATM   29  C   UNL     1       7.338  29.457  56.998  1.00  0.00     0.072 A 
ENDBRANCH  19  22
ENDBRANCH  17  18
ENDBRANCH   1  17
TORSDOF 6
ENDMDL
MODEL 5
REMARK VINA RESULT:      -8.5      3.674      6.618
REMARK  6 active torsions:
REMARK  status: ('A' for Active; 'I' for Inactive)
REMARK    1  A    between atoms: C_4  and  C_5 
REMARK    2  A    between atoms: C_10  and  C_11 
REMARK    3  A    between atoms: C_11  and  N_12 
REMARK    4  A    between atoms: N_12  and  C_14 
REMARK    5  A    between atoms: C_14  and  C_15 
REMARK       I    between atoms: C_15  and  N_16 
REMARK    6  A    between atoms: N_16  and  C_17 
ROOT
HETATM    1  N   UNL     1       5.391  26.487  52.364  1.00  0.00    -0.063 N 
HETATM    2  H   UNL     1       6.154  27.181  52.328  1.00  0.00     0.280 HD
HETATM    3  C   UNL     1       4.985  26.231  50.940  1.00  0.00     0.270 C 
ENDROOT
BRANCH   1   4
HETATM    4  C   UNL     1       4.258  27.084  53.155  1.00  0.00     0.277 C 
BRANCH   4   5
HETATM    5  C   UNL     1       4.627  28.299  53.918  1.00  0.00     0.018 A 
HETATM    6  C   UNL     1       5.249  28.378  55.195  1.00  0.00     0.120 A 
HETATM    7  N   UNL     1       5.426  29.647  55.580  1.00  0.00    -0.172 NA
HETATM    8  N   UNL     1       4.901  30.379  54.590  1.00  0.00    -0.288 N 
HETATM    9  H   UNL     1       4.902  31.392  54.684  1.00  0.00     0.188 HD
HETATM   10  C   UNL     1       4.432  29.619  53.555  1.00  0.00     0.120 A 
BRANCH   6  11
HETATM   11  C   UNL     1       5.705  27.229  56.035  1.00  0.00     0.106 A 
HETATM   12  O   UNL     1       7.003  27.011  56.417  1.00  0.00    -0.313 OA
HETATM   13  C   UNL     1       7.024  25.861  57.151  1.00  0.00     0.050 A 
HETATM   14  C   UNL     1       8.340  25.399  57.639  1.00  0.00     0.076 C 
HETATM   15  C   UNL     1       5.751  25.350  57.266  1.00  0.00     0.035 A 
HETATM   16  C   UNL     1       4.903  26.233  56.556  1.00  0.00     0.042 A 
ENDBRANCH   6  11
ENDBRANCH   4   5
ENDBRANCH   1   4
BRANCH   1  17
HETATM   17  C   UNL     1       6.029  25.249  53.019  1.00  0.00     0.337 C 
BRANCH  17  18
HETATM   18  C   UNL     1       7.482  25.528  53.406  1.00  0.00     0.248 C 
HETATM   19  N   UNL     1       8.347  24.526  53.726  1.00  0.00    -0.326 N 
HETATM   20  H   UNL     1       9.311  24.855  53.765  1.00  0.00     0.169 HD
HETATM   21  O   UNL     1       7.896  26.692  53.352  1.00  0.00    -0.271 OA
BRANCH  19  22
HETATM   22  C   UNL     1       8.153  23.167  54.030  1.00  0.00     0.040 A 
HETATM   23  C   UNL     1       8.297  22.259  52.973  1.00  0.00     0.072 A 
HETATM   24  C   UNL     1       8.139  20.891  53.190  1.00  0.00     0.121 A 
HETATM   25  F   UNL     1       8.258  20.047  52.157  1.00  0.00    -0.206 F 
HETATM   26  C   UNL     1       7.861  20.392  54.451  1.00  0.00     0.084 A 
HETATM   27  C   UNL     1       7.746  21.289  55.499  1.00  0.00     0.121 A 
HETATM   28  F   UNL     1       7.507  20.833  56.734  1.00  0.00    -0.206 F 
HETATM   29  C   UNL     1       7.889  22.666  55.305  1.00  0.00     0.072 A 
ENDBRANCH  19  22
ENDBRANCH  17  18
ENDBRANCH   1  17
TORSDOF 6
ENDMDL
MODEL 6
REMARK VINA RESULT:      -8.5      3.551      8.217
REMARK  6 active torsions:
REMARK  status: ('A' for Active; 'I' for Inactive)
REMARK    1  A    between atoms: C_4  and  C_5 
REMARK    2  A    between atoms: C_10  and  C_11 
REMARK    3  A    between atoms: C_11  and  N_12 
REMARK    4  A    between atoms: N_12  and  C_14 
REMARK    5  A    between atoms: C_14  and  C_15 
REMARK       I    between atoms: C_15  and  N_16 
REMARK    6  A    between atoms: N_16  and  C_17 
ROOT
HETATM    1  N   UNL     1       6.985  27.809  56.281  1.00  0.00    -0.063 N 
HETATM    2  H   UNL     1       7.871  27.618  55.788  1.00  0.00     0.280 HD
HETATM    3  C   UNL     1       6.062  28.427  55.269  1.00  0.00     0.270 C 
ENDROOT
BRANCH   1   4
HETATM    4  C   UNL     1       7.277  28.763  57.408  1.00  0.00     0.277 C 
BRANCH   4   5
HETATM    5  C   UNL     1       8.600  29.423  57.315  1.00  0.00     0.018 A 
HETATM    6  C   UNL     1       9.192  30.336  58.233  1.00  0.00     0.120 A 
HETATM    7  N   UNL     1      10.399  30.736  57.820  1.00  0.00    -0.172 NA
HETATM    8  N   UNL     1      10.577  30.124  56.644  1.00  0.00    -0.288 N 
HETATM    9  H   UNL     1      11.435  30.308  56.128  1.00  0.00     0.188 HD
HETATM   10  C   UNL     1       9.539  29.302  56.307  1.00  0.00     0.120 A 
BRANCH   6  11
HETATM   11  C   UNL     1       8.606  30.799  59.528  1.00  0.00     0.106 A 
HETATM   12  O   UNL     1       7.441  31.511  59.645  1.00  0.00    -0.313 OA
HETATM   13  C   UNL     1       7.251  31.765  60.972  1.00  0.00     0.050 A 
HETATM   14  C   UNL     1       6.065  32.566  61.339  1.00  0.00     0.076 C 
HETATM   15  C   UNL     1       8.267  31.204  61.711  1.00  0.00     0.035 A 
HETATM   16  C   UNL     1       9.134  30.577  60.784  1.00  0.00     0.042 A 
ENDBRANCH   6  11
ENDBRANCH   4   5
ENDBRANCH   1   4
BRANCH   1  17
HETATM   17  C   UNL     1       6.498  26.423  56.743  1.00  0.00     0.337 C 
BRANCH  17  18
HETATM   18  C   UNL     1       7.649  25.616  57.345  1.00  0.00     0.248 C 
HETATM   19  N   UNL     1       8.366  24.724  56.608  1.00  0.00    -0.326 N 
HETATM   20  H   UNL     1       9.210  24.422  57.093  1.00  0.00     0.169 HD
HETATM   21  O   UNL     1       7.982  25.841  58.515  1.00  0.00    -0.271 OA
BRANCH  19  22
HETATM   22  C   UNL     1       8.143  24.140  55.348  1.00  0.00     0.040 A 
HETATM   23  C   UNL     1       7.934  22.755  55.326  1.00  0.00     0.072 A 
HETATM   24  C   UNL     1       7.688  22.097  54.121  1.00  0.00     0.121 A 
HETATM   25  F   UNL     1       7.517  20.769  54.125  1.00  0.00    -0.206 F 
HETATM   26  C   UNL     1       7.621  22.791  52.925  1.00  0.00     0.084 A 
HETATM   27  C   UNL     1       7.802  24.163  52.954  1.00  0.00     0.121 A 
HETATM   28  F   UNL     1       7.713  24.864  51.817  1.00  0.00    -0.206 F 
HETATM   29  C   UNL     1       8.060  24.844  54.147  1.00  0.00     0.072 A 
ENDBRANCH  19  22
ENDBRANCH  17  18
ENDBRANCH   1  17
TORSDOF 6
ENDMDL
MODEL 7
REMARK VINA RESULT:      -8.4      3.609      8.319
REMARK  6 active torsions:
REMARK  status: ('A' for Active; 'I' for Inactive)
REMARK    1  A    between atoms: C_4  and  C_5 
REMARK    2  A    between atoms: C_10  and  C_11 
REMARK    3  A    between atoms: C_11  and  N_12 
REMARK    4  A    between atoms: N_12  and  C_14 
REMARK    5  A    between atoms: C_14  and  C_15 
REMARK       I    between atoms: C_15  and  N_16 
REMARK    6  A    between atoms: N_16  and  C_17 
ROOT
HETATM    1  N   UNL     1       7.959  27.701  56.775  1.00  0.00    -0.063 N 
HETATM    2  H   UNL     1       8.937  27.472  56.540  1.00  0.00     0.280 HD
HETATM    3  C   UNL     1       7.326  28.206  55.509  1.00  0.00     0.270 C 
ENDROOT
BRANCH   1   4
HETATM    4  C   UNL     1       7.973  28.765  57.840  1.00  0.00     0.277 C 
BRANCH   4   5
HETATM    5  C   UNL     1       9.131  29.685  57.759  1.00  0.00     0.018 A 
HETATM    6  C   UNL     1       9.363  30.871  58.512  1.00  0.00     0.120 A 
HETATM    7  N   UNL     1      10.515  31.456  58.168  1.00  0.00    -0.172 NA
HETATM    8  N   UNL     1      11.008  30.687  57.190  1.00  0.00    -0.288 N 
HETATM    9  H   UNL     1      11.884  30.964  56.752  1.00  0.00     0.188 HD
HETATM   10  C   UNL     1      10.230  29.596  56.924  1.00  0.00     0.120 A 
BRANCH   6  11
HETATM   11  C   UNL     1       8.488  31.425  59.590  1.00  0.00     0.106 A 
HETATM   12  O   UNL     1       8.868  31.581  60.898  1.00  0.00    -0.313 OA
HETATM   13  C   UNL     1       7.799  32.092  61.574  1.00  0.00     0.050 A 
HETATM   14  C   UNL     1       7.964  32.306  63.027  1.00  0.00     0.076 C 
HETATM   15  C   UNL     1       6.744  32.290  60.712  1.00  0.00     0.035 A 
HETATM   16  C   UNL     1       7.190  31.869  59.436  1.00  0.00     0.042 A 
ENDBRANCH   6  11
ENDBRANCH   4   5
ENDBRANCH   1   4
BRANCH   1  17
HETATM   17  C   UNL     1       7.352  26.363  57.235  1.00  0.00     0.337 C 
BRANCH  17  18
HETATM   18  C   UNL     1       5.952  26.172  56.651  1.00  0.00     0.248 C 
HETATM   19  N   UNL     1       5.690  25.235  55.699  1.00  0.00    -0.326 N 
HETATM   20  H   UNL     1       4.689  25.101  55.563  1.00  0.00     0.169 HD
HETATM   21  O   UNL     1       5.020  26.839  57.117  1.00  0.00    -0.271 OA
BRANCH  19  22
HETATM   22  C   UNL     1       6.527  24.462  54.874  1.00  0.00     0.040 A 
HETATM   23  C   UNL     1       6.778  24.961  53.590  1.00  0.00     0.072 A 
HETATM   24  C   UNL     1       7.611  24.268  52.712  1.00  0.00     0.121 A 
HETATM   25  F   UNL     1       7.815  24.755  51.482  1.00  0.00    -0.206 F 
HETATM   26  C   UNL     1       8.228  23.088  53.091  1.00  0.00     0.084 A 
HETATM   27  C   UNL     1       7.999  22.610  54.370  1.00  0.00     0.121 A 
HETATM   28  F   UNL     1       8.605  21.487  54.773  1.00  0.00    -0.206 F 
HETATM   29  C   UNL     1       7.159  23.281  55.264  1.00  0.00     0.072 A 
ENDBRANCH  19  22
ENDBRANCH  17  18
ENDBRANCH   1  17
TORSDOF 6
ENDMDL
MODEL 8
REMARK VINA RESULT:      -8.4      3.613      8.201
REMARK  6 active torsions:
REMARK  status: ('A' for Active; 'I' for Inactive)
REMARK    1  A    between atoms: C_4  and  C_5 
REMARK    2  A    between atoms: C_10  and  C_11 
REMARK    3  A    between atoms: C_11  and  N_12 
REMARK    4  A    between atoms: N_12  and  C_14 
REMARK    5  A    between atoms: C_14  and  C_15 
REMARK       I    between atoms: C_15  and  N_16 
REMARK    6  A    between atoms: N_16  and  C_17 
ROOT
HETATM    1  N   UNL     1       6.830  27.960  56.644  1.00  0.00    -0.063 N 
HETATM    2  H   UNL     1       7.164  28.550  55.866  1.00  0.00     0.280 HD
HETATM    3  C   UNL     1       5.383  28.310  56.851  1.00  0.00     0.270 C 
ENDROOT
BRANCH   1   4
HETATM    4  C   UNL     1       7.651  28.292  57.861  1.00  0.00     0.277 C 
BRANCH   4   5
HETATM    5  C   UNL     1       8.788  29.204  57.595  1.00  0.00     0.018 A 
HETATM    6  C   UNL     1       9.229  30.308  58.377  1.00  0.00     0.120 A 
HETATM    7  N   UNL     1      10.287  30.911  57.825  1.00  0.00    -0.172 NA
HETATM    8  N   UNL     1      10.513  30.235  56.693  1.00  0.00    -0.288 N 
HETATM    9  H   UNL     1      11.271  30.543  56.088  1.00  0.00     0.188 HD
HETATM   10  C   UNL     1       9.658  29.183  56.520  1.00  0.00     0.120 A 
BRANCH   6  11
HETATM   11  C   UNL     1       8.649  30.766  59.676  1.00  0.00     0.106 A 
HETATM   12  O   UNL     1       7.472  31.457  59.803  1.00  0.00    -0.313 OA
HETATM   13  C   UNL     1       7.291  31.712  61.131  1.00  0.00     0.050 A 
HETATM   14  C   UNL     1       6.095  32.493  61.508  1.00  0.00     0.076 C 
HETATM   15  C   UNL     1       8.324  31.172  61.862  1.00  0.00     0.035 A 
HETATM   16  C   UNL     1       9.192  30.557  60.928  1.00  0.00     0.042 A 
ENDBRANCH   6  11
ENDBRANCH   4   5
ENDBRANCH   1   4
BRANCH   1  17
HETATM   17  C   UNL     1       7.014  26.518  56.139  1.00  0.00     0.337 C 
BRANCH  17  18
HETATM   18  C   UNL     1       7.468  26.508  54.679  1.00  0.00     0.248 C 
HETATM   19  N   UNL     1       7.663  25.348  53.993  1.00  0.00    -0.326 N 
HETATM   20  H   UNL     1       7.769  25.512  52.993  1.00  0.00     0.169 HD
HETATM   21  O   UNL     1       7.585  27.588  54.088  1.00  0.00    -0.271 OA
BRANCH  19  22
HETATM   22  C   UNL     1       7.772  24.008  54.408  1.00  0.00     0.040 A 
HETATM   23  C   UNL     1       7.711  23.033  53.404  1.00  0.00     0.072 A 
HETATM   24  C   UNL     1       7.828  21.681  53.725  1.00  0.00     0.121 A 
HETATM   25  F   UNL     1       7.742  20.768  52.749  1.00  0.00    -0.206 F 
HETATM   26  C   UNL     1       8.029  21.269  55.031  1.00  0.00     0.084 A 
HETATM   27  C   UNL     1       8.115  22.236  56.017  1.00  0.00     0.121 A 
HETATM   28  F   UNL     1       8.339  21.868  57.285  1.00  0.00    -0.206 F 
HETATM   29  C   UNL     1       7.990  23.597  55.722  1.00  0.00     0.072 A 
ENDBRANCH  19  22
ENDBRANCH  17  18
ENDBRANCH   1  17
TORSDOF 6
ENDMDL
MODEL 9
REMARK VINA RESULT:      -8.4      3.451      7.304
REMARK  6 active torsions:
REMARK  status: ('A' for Active; 'I' for Inactive)
REMARK    1  A    between atoms: C_4  and  C_5 
REMARK    2  A    between atoms: C_10  and  C_11 
REMARK    3  A    between atoms: C_11  and  N_12 
REMARK    4  A    between atoms: N_12  and  C_14 
REMARK    5  A    between atoms: C_14  and  C_15 
REMARK       I    between atoms: C_15  and  N_16 
REMARK    6  A    between atoms: N_16  and  C_17 
ROOT
HETATM    1  N   UNL     1       5.993  26.377  56.085  1.00  0.00    -0.063 N 
HETATM    2  H   UNL     1       6.857  26.928  55.962  1.00  0.00     0.280 HD
HETATM    3  C   UNL     1       5.597  25.899  54.717  1.00  0.00     0.270 C 
ENDROOT
BRANCH   1   4
HETATM    4  C   UNL     1       4.945  27.284  56.672  1.00  0.00     0.277 C 
BRANCH   4   5
HETATM    5  C   UNL     1       4.856  28.610  56.016  1.00  0.00     0.018 A 
HETATM    6  C   UNL     1       5.786  29.685  56.083  1.00  0.00     0.120 A 
HETATM    7  N   UNL     1       5.375  30.738  55.368  1.00  0.00    -0.172 NA
HETATM    8  N   UNL     1       4.188  30.369  54.872  1.00  0.00    -0.288 N 
HETATM    9  H   UNL     1       3.670  31.039  54.307  1.00  0.00     0.188 HD
HETATM   10  C   UNL     1       3.842  29.091  55.209  1.00  0.00     0.120 A 
BRANCH   6  11
HETATM   11  C   UNL     1       7.092  29.689  56.811  1.00  0.00     0.106 A 
HETATM   12  O   UNL     1       8.316  29.532  56.215  1.00  0.00    -0.313 OA
HETATM   13  C   UNL     1       9.257  29.569  57.203  1.00  0.00     0.050 A 
HETATM   14  C   UNL     1      10.664  29.376  56.796  1.00  0.00     0.076 C 
HETATM   15  C   UNL     1       8.655  29.774  58.423  1.00  0.00     0.035 A 
HETATM   16  C   UNL     1       7.264  29.859  58.171  1.00  0.00     0.042 A 
ENDBRANCH   6  11
ENDBRANCH   4   5
ENDBRANCH   1   4
BRANCH   1  17
HETATM   17  C   UNL     1       6.406  25.218  57.010  1.00  0.00     0.337 C 
BRANCH  17  18
HETATM   18  C   UNL     1       7.918  25.217  57.238  1.00  0.00     0.248 C 
HETATM   19  N   UNL     1       8.741  24.333  56.610  1.00  0.00    -0.326 N 
HETATM   20  H   UNL     1       9.723  24.589  56.713  1.00  0.00     0.169 HD
HETATM   21  O   UNL     1       8.409  26.097  57.956  1.00  0.00    -0.271 OA
BRANCH  19  22
HETATM   22  C   UNL     1       8.491  23.151  55.891  1.00  0.00     0.040 A 
HETATM   23  C   UNL     1       8.316  23.282  54.507  1.00  0.00     0.072 A 
HETATM   24  C   UNL     1       8.081  22.158  53.715  1.00  0.00     0.121 A 
HETATM   25  F   UNL     1       7.894  22.314  52.398  1.00  0.00    -0.206 F 
HETATM   26  C   UNL     1       8.038  20.889  54.266  1.00  0.00     0.084 A 
HETATM   27  C   UNL     1       8.237  20.760  55.630  1.00  0.00     0.121 A 
HETATM   28  F   UNL     1       8.229  19.542  56.185  1.00  0.00    -0.206 F 
HETATM   29  C   UNL     1       8.463  21.872  56.446  1.00  0.00     0.072 A 
ENDBRANCH  19  22
ENDBRANCH  17  18
ENDBRANCH   1  17
TORSDOF 6
ENDMDL
MODEL 10
REMARK VINA RESULT:      -8.4      3.157      7.465
REMARK  6 active torsions:
REMARK  status: ('A' for Active; 'I' for Inactive)
REMARK    1  A    between atoms: C_4  and  C_5 
REMARK    2  A    between atoms: C_10  and  C_11 
REMARK    3  A    between atoms: C_11  and  N_12 
REMARK    4  A    between atoms: N_12  and  C_14 
REMARK    5  A    between atoms: C_14  and  C_15 
REMARK       I    between atoms: C_15  and  N_16 
REMARK    6  A    between atoms: N_16  and  C_17 
ROOT
HETATM    1  N   UNL     1       5.348  26.104  55.499  1.00  0.00    -0.063 N 
HETATM    2  H   UNL     1       4.353  26.370  55.432  1.00  0.00     0.280 HD
HETATM    3  C   UNL     1       5.456  25.159  56.663  1.00  0.00     0.270 C 
ENDROOT
BRANCH   1   4
HETATM    4  C   UNL     1       6.148  27.357  55.737  1.00  0.00     0.277 C 
BRANCH   4   5
HETATM    5  C   UNL     1       5.382  28.452  56.377  1.00  0.00     0.018 A 
HETATM    6  C   UNL     1       5.874  29.500  57.203  1.00  0.00     0.120 A 
HETATM    7  N   UNL     1       4.891  30.310  57.611  1.00  0.00    -0.172 NA
HETATM    8  N   UNL     1       3.777  29.782  57.089  1.00  0.00    -0.288 N 
HETATM    9  H   UNL     1       2.887  30.229  57.296  1.00  0.00     0.188 HD
HETATM   10  C   UNL     1       4.019  28.681  56.317  1.00  0.00     0.120 A 
BRANCH   6  11
HETATM   11  C   UNL     1       7.301  29.744  57.576  1.00  0.00     0.106 A 
HETATM   12  O   UNL     1       8.368  29.557  56.735  1.00  0.00    -0.313 OA
HETATM   13  C   UNL     1       9.497  29.861  57.438  1.00  0.00     0.050 A 
HETATM   14  C   UNL     1      10.788  29.689  56.739  1.00  0.00     0.076 C 
HETATM   15  C   UNL     1       9.169  30.265  58.711  1.00  0.00     0.035 A 
HETATM   16  C   UNL     1       7.757  30.198  58.797  1.00  0.00     0.042 A 
ENDBRANCH   6  11
ENDBRANCH   4   5
ENDBRANCH   1   4
BRANCH   1  17
HETATM   17  C   UNL     1       5.652  25.412  54.158  1.00  0.00     0.337 C 
BRANCH  17  18
HETATM   18  C   UNL     1       7.099  25.664  53.733  1.00  0.00     0.248 C 
HETATM   19  N   UNL     1       8.009  24.655  53.643  1.00  0.00    -0.326 N 
HETATM   20  H   UNL     1       8.858  24.951  53.164  1.00  0.00     0.169 HD
HETATM   21  O   UNL     1       7.425  26.806  53.390  1.00  0.00    -0.271 OA
BRANCH  19  22
HETATM   22  C   UNL     1       8.000  23.326  54.105  1.00  0.00     0.040 A 
HETATM   23  C   UNL     1       7.946  22.322  53.129  1.00  0.00     0.072 A 
HETATM   24  C   UNL     1       7.952  20.978  53.498  1.00  0.00     0.121 A 
HETATM   25  F   UNL     1       7.875  20.038  52.547  1.00  0.00    -0.206 F 
HETATM   26  C   UNL     1       8.033  20.599  54.827  1.00  0.00     0.084 A 
HETATM   27  C   UNL     1       8.113  21.593  55.788  1.00  0.00     0.121 A 
HETATM   28  F   UNL     1       8.222  21.256  57.079  1.00  0.00    -0.206 F 
HETATM   29  C   UNL     1       8.098  22.948  55.444  1.00  0.00     0.072 A 
ENDBRANCH  19  22
ENDBRANCH  17  18
ENDBRANCH   1  17
TORSDOF 6
ENDMDL
