MODEL 1
REMARK VINA RESULT:     -11.0      0.000      0.000
REMARK  6 active torsions:
REMARK  status: ('A' for Active; 'I' for Inactive)
REMARK    1  A    between atoms: O_2  and  C_3 
REMARK    2  A    between atoms: C_5  and  N_6 
REMARK    3  A    between atoms: C_8  and  C_9 
REMARK    4  A    between atoms: C_9  and  N_10 
REMARK       I    between atoms: N_10  and  C_11 
REMARK       I    between atoms: C_11  and  N_12 
REMARK    5  A    between atoms: N_12  and  C_13 
REMARK    6  A    between atoms: C_13  and  C_14 
ROOT
HETATM    1  N   UNL     1       8.303  28.902  57.362  1.00  0.00    -0.343 N 
HETATM    2  C   UNL     1       8.426  28.775  56.004  1.00  0.00     0.316 C 
HETATM    3  N   UNL     1       7.544  27.858  55.503  1.00  0.00    -0.339 N 
HETATM    4  O   UNL     1       9.238  29.393  55.329  1.00  0.00    -0.248 OA
HETATM    5  H   UNL     1       7.808  28.167  57.843  1.00  0.00     0.164 HD
HETATM    6  H   UNL     1       6.721  27.660  56.050  1.00  0.00     0.164 HD
ENDROOT
BRANCH   1   7
HETATM    7  C   UNL     1       9.204  29.732  58.141  1.00  0.00     0.130 C 
BRANCH   7   8
HETATM    8  C   UNL     1       8.477  30.895  58.806  1.00  0.00     0.023 C 
HETATM    9  C   UNL     1       8.388  30.741  60.328  1.00  0.00     0.129 C 
HETATM   10  N   UNL     1       7.238  31.567  60.697  1.00  0.00    -0.380 N 
HETATM   11  C   UNL     1       6.460  31.945  59.517  1.00  0.00     0.123 C 
HETATM   12  C   UNL     1       7.010  31.047  58.412  1.00  0.00     0.028 C 
BRANCH  10  13
HETATM   13  C   UNL     1       7.037  32.097  61.952  1.00  0.00     0.032 A 
HETATM   14  C   UNL     1       5.746  32.269  62.487  1.00  0.00     0.066 A 
HETATM   15  C   UNL     1       5.534  32.796  63.768  1.00  0.00     0.070 A 
HETATM   16  C   UNL     1       6.628  33.162  64.546  1.00  0.00     0.037 A 
HETATM   17  C   UNL     1       7.917  33.022  64.045  1.00  0.00     0.005 A 
HETATM   18  C   UNL     1       8.111  32.503  62.762  1.00  0.00     0.029 A 
BRANCH  15  19
HETATM   19  O   UNL     1       4.319  32.996  64.367  1.00  0.00    -0.356 OA
HETATM   20  C   UNL     1       4.086  34.275  64.939  1.00  0.00     0.210 C 
ENDBRANCH  15  19
ENDBRANCH  10  13
ENDBRANCH   7   8
ENDBRANCH   1   7
BRANCH   3  21
HETATM   21  C   UNL     1       7.469  27.572  54.087  1.00  0.00     0.162 C 
BRANCH  21  22
HETATM   22  C   UNL     1       7.567  26.092  53.817  1.00  0.00    -0.040 A 
HETATM   23  C   UNL     1       7.548  25.169  54.873  1.00  0.00     0.021 A 
HETATM   24  C   UNL     1       7.661  23.787  54.639  1.00  0.00    -0.025 A 
HETATM   25  C   UNL     1       7.792  23.319  53.312  1.00  0.00    -0.026 A 
HETATM   26  C   UNL     1       7.652  22.861  55.694  1.00  0.00     0.012 A 
HETATM   27  C   UNL     1       7.812  24.246  52.257  1.00  0.00     0.013 A 
HETATM   28  C   UNL     1       7.907  21.940  53.077  1.00  0.00     0.012 A 
HETATM   29  C   UNL     1       7.707  25.615  52.507  1.00  0.00     0.010 A 
HETATM   30  C   UNL     1       7.896  21.033  54.138  1.00  0.00     0.001 A 
HETATM   31  C   UNL     1       7.770  21.492  55.445  1.00  0.00     0.001 A 
ENDBRANCH  21  22
ENDBRANCH   3  21
TORSDOF 6
ENDMDL
MODEL 2
REMARK VINA RESULT:     -10.9      1.145      2.020
REMARK  6 active torsions:
REMARK  status: ('A' for Active; 'I' for Inactive)
REMARK    1  A    between atoms: O_2  and  C_3 
REMARK    2  A    between atoms: C_5  and  N_6 
REMARK    3  A    between atoms: C_8  and  C_9 
REMARK    4  A    between atoms: C_9  and  N_10 
REMARK       I    between atoms: N_10  and  C_11 
REMARK       I    between atoms: C_11  and  N_12 
REMARK    5  A    between atoms: N_12  and  C_13 
REMARK    6  A    between atoms: C_13  and  C_14 
ROOT
HETATM    1  N   UNL     1       7.888  28.883  57.940  1.00  0.00    -0.343 N 
HETATM    2  C   UNL     1       7.533  28.473  56.683  1.00  0.00     0.316 C 
HETATM    3  N   UNL     1       7.540  27.109  56.580  1.00  0.00    -0.339 N 
HETATM    4  O   UNL     1       7.262  29.234  55.765  1.00  0.00    -0.248 OA
HETATM    5  H   UNL     1       8.348  28.203  58.527  1.00  0.00     0.164 HD
HETATM    6  H   UNL     1       7.444  26.579  57.432  1.00  0.00     0.164 HD
ENDROOT
BRANCH   1   7
HETATM    7  C   UNL     1       8.063  30.286  58.270  1.00  0.00     0.130 C 
BRANCH   7   8
HETATM    8  C   UNL     1       8.274  30.499  59.764  1.00  0.00     0.023 C 
HETATM    9  C   UNL     1       7.243  31.457  60.374  1.00  0.00     0.129 C 
HETATM   10  N   UNL     1       7.907  31.967  61.573  1.00  0.00    -0.380 N 
HETATM   11  C   UNL     1       9.333  31.641  61.567  1.00  0.00     0.123 C 
HETATM   12  C   UNL     1       9.594  31.167  60.139  1.00  0.00     0.028 C 
BRANCH  10  13
HETATM   13  C   UNL     1       7.243  32.490  62.661  1.00  0.00     0.032 A 
HETATM   14  C   UNL     1       5.845  32.659  62.665  1.00  0.00     0.066 A 
HETATM   15  C   UNL     1       5.160  33.179  63.773  1.00  0.00     0.070 A 
HETATM   16  C   UNL     1       5.876  33.540  64.910  1.00  0.00     0.037 A 
HETATM   17  C   UNL     1       7.258  33.403  64.936  1.00  0.00     0.005 A 
HETATM   18  C   UNL     1       7.927  32.891  63.820  1.00  0.00     0.029 A 
BRANCH  15  19
HETATM   19  O   UNL     1       3.809  33.375  63.865  1.00  0.00    -0.356 OA
HETATM   20  C   UNL     1       3.367  34.417  64.725  1.00  0.00     0.210 C 
ENDBRANCH  15  19
ENDBRANCH  10  13
ENDBRANCH   7   8
ENDBRANCH   1   7
BRANCH   3  21
HETATM   21  C   UNL     1       7.171  26.440  55.351  1.00  0.00     0.162 C 
BRANCH  21  22
HETATM   22  C   UNL     1       7.558  24.982  55.379  1.00  0.00    -0.040 A 
HETATM   23  C   UNL     1       7.543  24.216  54.204  1.00  0.00     0.021 A 
HETATM   24  C   UNL     1       7.880  22.851  54.218  1.00  0.00    -0.025 A 
HETATM   25  C   UNL     1       8.246  22.241  55.439  1.00  0.00    -0.026 A 
HETATM   26  C   UNL     1       7.857  22.078  53.045  1.00  0.00     0.012 A 
HETATM   27  C   UNL     1       8.258  23.011  56.613  1.00  0.00     0.013 A 
HETATM   28  C   UNL     1       8.580  20.878  55.453  1.00  0.00     0.012 A 
HETATM   29  C   UNL     1       7.912  24.363  56.584  1.00  0.00     0.010 A 
HETATM   30  C   UNL     1       8.552  20.124  54.279  1.00  0.00     0.001 A 
HETATM   31  C   UNL     1       8.190  20.723  53.076  1.00  0.00     0.001 A 
ENDBRANCH  21  22
ENDBRANCH   3  21
TORSDOF 6
ENDMDL
MODEL 3
REMARK VINA RESULT:     -10.6      1.477      2.047
REMARK  6 active torsions:
REMARK  status: ('A' for Active; 'I' for Inactive)
REMARK    1  A    between atoms: O_2  and  C_3 
REMARK    2  A    between atoms: C_5  and  N_6 
REMARK    3  A    between atoms: C_8  and  C_9 
REMARK    4  A    between atoms: C_9  and  N_10 
REMARK       I    between atoms: N_10  and  C_11 
REMARK       I    between atoms: C_11  and  N_12 
REMARK    5  A    between atoms: N_12  and  C_13 
REMARK    6  A    between atoms: C_13  and  C_14 
ROOT
HETATM    1  N   UNL     1       8.090  28.233  56.426  1.00  0.00    -0.343 N 
HETATM    2  C   UNL     1       7.511  27.671  55.319  1.00  0.00     0.316 C 
HETATM    3  N   UNL     1       6.696  26.625  55.656  1.00  0.00    -0.339 N 
HETATM    4  O   UNL     1       7.716  28.048  54.174  1.00  0.00    -0.248 OA
HETATM    5  H   UNL     1       8.072  27.687  57.274  1.00  0.00     0.164 HD
HETATM    6  H   UNL     1       6.335  26.603  56.596  1.00  0.00     0.164 HD
ENDROOT
BRANCH   1   7
HETATM    7  C   UNL     1       9.083  29.288  56.323  1.00  0.00     0.130 C 
BRANCH   7   8
HETATM    8  C   UNL     1       9.446  29.865  57.685  1.00  0.00     0.023 C 
HETATM    9  C   UNL     1       8.235  30.454  58.418  1.00  0.00     0.129 C 
HETATM   10  N   UNL     1       8.824  31.413  59.352  1.00  0.00    -0.380 N 
HETATM   11  C   UNL     1      10.229  31.667  59.032  1.00  0.00     0.123 C 
HETATM   12  C   UNL     1      10.407  31.050  57.647  1.00  0.00     0.028 C 
BRANCH  10  13
HETATM   13  C   UNL     1       8.207  31.850  60.503  1.00  0.00     0.032 A 
HETATM   14  C   UNL     1       6.868  32.286  60.507  1.00  0.00     0.066 A 
HETATM   15  C   UNL     1       6.229  32.720  61.678  1.00  0.00     0.070 A 
HETATM   16  C   UNL     1       6.932  32.721  62.879  1.00  0.00     0.037 A 
HETATM   17  C   UNL     1       8.259  32.313  62.910  1.00  0.00     0.005 A 
HETATM   18  C   UNL     1       8.885  31.891  61.733  1.00  0.00     0.029 A 
BRANCH  15  19
HETATM   19  O   UNL     1       4.936  33.157  61.775  1.00  0.00    -0.356 OA
HETATM   20  C   UNL     1       3.928  32.163  61.899  1.00  0.00     0.210 C 
ENDBRANCH  15  19
ENDBRANCH  10  13
ENDBRANCH   7   8
ENDBRANCH   1   7
BRANCH   3  21
HETATM   21  C   UNL     1       5.954  25.891  54.655  1.00  0.00     0.162 C 
BRANCH  21  22
HETATM   22  C   UNL     1       6.626  24.584  54.318  1.00  0.00    -0.040 A 
HETATM   23  C   UNL     1       6.915  23.648  55.322  1.00  0.00     0.021 A 
HETATM   24  C   UNL     1       7.561  22.435  55.026  1.00  0.00    -0.025 A 
HETATM   25  C   UNL     1       7.922  22.151  53.690  1.00  0.00    -0.026 A 
HETATM   26  C   UNL     1       7.861  21.499  56.030  1.00  0.00     0.012 A 
HETATM   27  C   UNL     1       7.633  23.091  52.687  1.00  0.00     0.013 A 
HETATM   28  C   UNL     1       8.569  20.941  53.394  1.00  0.00     0.012 A 
HETATM   29  C   UNL     1       6.998  24.294  52.999  1.00  0.00     0.010 A 
HETATM   30  C   UNL     1       8.860  20.023  54.404  1.00  0.00     0.001 A 
HETATM   31  C   UNL     1       8.507  20.301  55.721  1.00  0.00     0.001 A 
ENDBRANCH  21  22
ENDBRANCH   3  21
TORSDOF 6
ENDMDL
MODEL 4
REMARK VINA RESULT:     -10.5      1.547      2.265
REMARK  6 active torsions:
REMARK  status: ('A' for Active; 'I' for Inactive)
REMARK    1  A    between atoms: O_2  and  C_3 
REMARK    2  A    between atoms: C_5  and  N_6 
REMARK    3  A    between atoms: C_8  and  C_9 
REMARK    4  A    between atoms: C_9  and  N_10 
REMARK       I    between atoms: N_10  and  C_11 
REMARK       I    between atoms: C_11  and  N_12 
REMARK    5  A    between atoms: N_12  and  C_13 
REMARK    6  A    between atoms: C_13  and  C_14 
ROOT
HETATM    1  N   UNL     1       7.025  29.257  55.507  1.00  0.00    -0.343 N 
HETATM    2  C   UNL     1       6.358  28.280  54.816  1.00  0.00     0.316 C 
HETATM    3  N   UNL     1       7.197  27.591  53.985  1.00  0.00    -0.339 N 
HETATM    4  O   UNL     1       5.158  28.066  54.920  1.00  0.00    -0.248 OA
HETATM    5  H   UNL     1       7.931  29.524  55.153  1.00  0.00     0.164 HD
HETATM    6  H   UNL     1       8.180  27.602  54.205  1.00  0.00     0.164 HD
ENDROOT
BRANCH   1   7
HETATM    7  C   UNL     1       6.333  30.197  56.370  1.00  0.00     0.130 C 
BRANCH   7   8
HETATM    8  C   UNL     1       6.780  30.074  57.822  1.00  0.00     0.023 C 
HETATM    9  C   UNL     1       6.578  31.371  58.613  1.00  0.00     0.129 C 
HETATM   10  N   UNL     1       7.533  31.262  59.715  1.00  0.00    -0.380 N 
HETATM   11  C   UNL     1       8.486  30.177  59.482  1.00  0.00     0.123 C 
HETATM   12  C   UNL     1       8.271  29.809  58.016  1.00  0.00     0.028 C 
BRANCH  10  13
HETATM   13  C   UNL     1       7.418  31.940  60.908  1.00  0.00     0.032 A 
HETATM   14  C   UNL     1       6.409  32.900  61.121  1.00  0.00     0.066 A 
HETATM   15  C   UNL     1       6.278  33.586  62.336  1.00  0.00     0.070 A 
HETATM   16  C   UNL     1       7.166  33.316  63.373  1.00  0.00     0.037 A 
HETATM   17  C   UNL     1       8.184  32.387  63.193  1.00  0.00     0.005 A 
HETATM   18  C   UNL     1       8.307  31.718  61.972  1.00  0.00     0.029 A 
BRANCH  15  19
HETATM   19  O   UNL     1       5.331  34.529  62.631  1.00  0.00    -0.356 OA
HETATM   20  C   UNL     1       5.720  35.583  63.502  1.00  0.00     0.210 C 
ENDBRANCH  15  19
ENDBRANCH  10  13
ENDBRANCH   7   8
ENDBRANCH   1   7
BRANCH   3  21
HETATM   21  C   UNL     1       6.725  26.491  53.172  1.00  0.00     0.162 C 
BRANCH  21  22
HETATM   22  C   UNL     1       7.029  25.160  53.813  1.00  0.00    -0.040 A 
HETATM   23  C   UNL     1       7.434  24.068  53.032  1.00  0.00     0.021 A 
HETATM   24  C   UNL     1       7.699  22.814  53.613  1.00  0.00    -0.025 A 
HETATM   25  C   UNL     1       7.560  22.656  55.010  1.00  0.00    -0.026 A 
HETATM   26  C   UNL     1       8.096  21.715  52.834  1.00  0.00     0.012 A 
HETATM   27  C   UNL     1       7.153  23.751  55.787  1.00  0.00     0.013 A 
HETATM   28  C   UNL     1       7.823  21.404  55.589  1.00  0.00     0.012 A 
HETATM   29  C   UNL     1       6.885  24.987  55.195  1.00  0.00     0.010 A 
HETATM   30  C   UNL     1       8.216  20.321  54.801  1.00  0.00     0.001 A 
HETATM   31  C   UNL     1       8.352  20.476  53.424  1.00  0.00     0.001 A 
ENDBRANCH  21  22
ENDBRANCH   3  21
TORSDOF 6
ENDMDL
MODEL 5
REMARK VINA RESULT:     -10.1      2.293     11.000
REMARK  6 active torsions:
REMARK  status: ('A' for Active; 'I' for Inactive)
REMARK    1  A    between atoms: O_2  and  C_3 
REMARK    2  A    between atoms: C_5  and  N_6 
REMARK    3  A    between atoms: C_8  and  C_9 
REMARK    4  A    between atoms: C_9  and  N_10 
REMARK       I    between atoms: N_10  and  C_11 
REMARK       I    between atoms: C_11  and  N_12 
REMARK    5  A    between atoms: N_12  and  C_13 
REMARK    6  A    between atoms: C_13  and  C_14 
ROOT
HETATM    1  N   UNL     1       5.905  29.288  56.597  1.00  0.00    -0.343 N 
HETATM    2  C   UNL     1       7.188  29.563  56.991  1.00  0.00     0.316 C 
HETATM    3  N   UNL     1       7.253  29.842  58.328  1.00  0.00    -0.339 N 
HETATM    4  O   UNL     1       8.149  29.574  56.234  1.00  0.00    -0.248 OA
HETATM    5  H   UNL     1       5.168  29.569  57.226  1.00  0.00     0.164 HD
HETATM    6  H   UNL     1       6.510  29.491  58.912  1.00  0.00     0.164 HD
ENDROOT
BRANCH   1   7
HETATM    7  C   UNL     1       5.559  29.070  55.204  1.00  0.00     0.130 C 
BRANCH   7   8
HETATM    8  C   UNL     1       5.283  27.601  54.908  1.00  0.00     0.023 C 
HETATM    9  C   UNL     1       6.564  26.760  54.851  1.00  0.00     0.129 C 
HETATM   10  N   UNL     1       6.189  25.606  54.035  1.00  0.00    -0.380 N 
HETATM   11  C   UNL     1       4.913  25.832  53.355  1.00  0.00     0.123 C 
HETATM   12  C   UNL     1       4.657  27.326  53.544  1.00  0.00     0.028 C 
BRANCH  10  13
HETATM   13  C   UNL     1       6.836  24.391  54.071  1.00  0.00     0.032 A 
HETATM   14  C   UNL     1       7.113  23.734  55.286  1.00  0.00     0.066 A 
HETATM   15  C   UNL     1       7.760  22.491  55.330  1.00  0.00     0.070 A 
HETATM   16  C   UNL     1       8.142  21.877  54.141  1.00  0.00     0.037 A 
HETATM   17  C   UNL     1       7.900  22.503  52.925  1.00  0.00     0.005 A 
HETATM   18  C   UNL     1       7.261  23.746  52.897  1.00  0.00     0.029 A 
BRANCH  15  19
HETATM   19  O   UNL     1       8.067  21.783  56.460  1.00  0.00    -0.356 OA
HETATM   20  C   UNL     1       8.446  20.424  56.285  1.00  0.00     0.210 C 
ENDBRANCH  15  19
ENDBRANCH  10  13
ENDBRANCH   7   8
ENDBRANCH   1   7
BRANCH   3  21
HETATM   21  C   UNL     1       8.510  30.137  58.981  1.00  0.00     0.162 C 
BRANCH  21  22
HETATM   22  C   UNL     1       8.297  30.850  60.293  1.00  0.00    -0.040 A 
HETATM   23  C   UNL     1       7.374  31.901  60.393  1.00  0.00     0.021 A 
HETATM   24  C   UNL     1       7.180  32.590  61.604  1.00  0.00    -0.025 A 
HETATM   25  C   UNL     1       7.928  32.212  62.742  1.00  0.00    -0.026 A 
HETATM   26  C   UNL     1       6.264  33.649  61.707  1.00  0.00     0.012 A 
HETATM   27  C   UNL     1       8.853  31.161  62.637  1.00  0.00     0.013 A 
HETATM   28  C   UNL     1       7.737  32.901  63.950  1.00  0.00     0.012 A 
HETATM   29  C   UNL     1       9.039  30.492  61.425  1.00  0.00     0.010 A 
HETATM   30  C   UNL     1       6.822  33.951  64.035  1.00  0.00     0.001 A 
HETATM   31  C   UNL     1       6.087  34.326  62.915  1.00  0.00     0.001 A 
ENDBRANCH  21  22
ENDBRANCH   3  21
TORSDOF 6
ENDMDL
MODEL 6
REMARK VINA RESULT:      -9.9      2.326     11.586
REMARK  6 active torsions:
REMARK  status: ('A' for Active; 'I' for Inactive)
REMARK    1  A    between atoms: O_2  and  C_3 
REMARK    2  A    between atoms: C_5  and  N_6 
REMARK    3  A    between atoms: C_8  and  C_9 
REMARK    4  A    between atoms: C_9  and  N_10 
REMARK       I    between atoms: N_10  and  C_11 
REMARK       I    between atoms: C_11  and  N_12 
REMARK    5  A    between atoms: N_12  and  C_13 
REMARK    6  A    between atoms: C_13  and  C_14 
ROOT
HETATM    1  N   UNL     1       7.313  28.819  58.201  1.00  0.00    -0.343 N 
HETATM    2  C   UNL     1       7.560  30.157  58.359  1.00  0.00     0.316 C 
HETATM    3  N   UNL     1       6.499  30.798  58.935  1.00  0.00    -0.339 N 
HETATM    4  O   UNL     1       8.595  30.707  58.011  1.00  0.00    -0.248 OA
HETATM    5  H   UNL     1       6.350  28.525  58.265  1.00  0.00     0.164 HD
HETATM    6  H   UNL     1       5.858  30.240  59.476  1.00  0.00     0.164 HD
ENDROOT
BRANCH   1   7
HETATM    7  C   UNL     1       8.242  27.942  57.511  1.00  0.00     0.130 C 
BRANCH   7   8
HETATM    8  C   UNL     1       7.578  26.645  57.065  1.00  0.00     0.023 C 
HETATM    9  C   UNL     1       8.558  25.467  57.016  1.00  0.00     0.129 C 
HETATM   10  N   UNL     1       7.939  24.535  56.075  1.00  0.00    -0.380 N 
HETATM   11  C   UNL     1       6.850  25.175  55.337  1.00  0.00     0.123 C 
HETATM   12  C   UNL     1       7.024  26.661  55.643  1.00  0.00     0.028 C 
BRANCH  10  13
HETATM   13  C   UNL     1       8.198  23.183  56.043  1.00  0.00     0.032 A 
HETATM   14  C   UNL     1       8.479  22.510  54.838  1.00  0.00     0.066 A 
HETATM   15  C   UNL     1       8.756  21.136  54.799  1.00  0.00     0.070 A 
HETATM   16  C   UNL     1       8.757  20.405  55.983  1.00  0.00     0.037 A 
HETATM   17  C   UNL     1       8.467  21.032  57.188  1.00  0.00     0.005 A 
HETATM   18  C   UNL     1       8.185  22.401  57.210  1.00  0.00     0.029 A 
BRANCH  15  19
HETATM   19  O   UNL     1       9.042  20.403  53.679  1.00  0.00    -0.356 OA
HETATM   20  C   UNL     1       8.096  20.452  52.619  1.00  0.00     0.210 C 
ENDBRANCH  15  19
ENDBRANCH  10  13
ENDBRANCH   7   8
ENDBRANCH   1   7
BRANCH   3  21
HETATM   21  C   UNL     1       6.537  32.215  59.228  1.00  0.00     0.162 C 
BRANCH  21  22
HETATM   22  C   UNL     1       6.791  32.469  60.693  1.00  0.00    -0.040 A 
HETATM   23  C   UNL     1       5.777  32.979  61.516  1.00  0.00     0.021 A 
HETATM   24  C   UNL     1       6.006  33.242  62.879  1.00  0.00    -0.025 A 
HETATM   25  C   UNL     1       7.281  32.982  63.429  1.00  0.00    -0.026 A 
HETATM   26  C   UNL     1       4.996  33.763  63.705  1.00  0.00     0.012 A 
HETATM   27  C   UNL     1       8.294  32.472  62.601  1.00  0.00     0.013 A 
HETATM   28  C   UNL     1       7.510  33.246  64.789  1.00  0.00     0.012 A 
HETATM   29  C   UNL     1       8.053  32.225  61.249  1.00  0.00     0.010 A 
HETATM   30  C   UNL     1       6.495  33.764  65.595  1.00  0.00     0.001 A 
HETATM   31  C   UNL     1       5.240  34.023  65.054  1.00  0.00     0.001 A 
ENDBRANCH  21  22
ENDBRANCH   3  21
TORSDOF 6
ENDMDL
MODEL 7
REMARK VINA RESULT:      -9.8      7.103     11.925
REMARK  6 active torsions:
REMARK  status: ('A' for Active; 'I' for Inactive)
REMARK    1  A    between atoms: O_2  and  C_3 
REMARK    2  A    between atoms: C_5  and  N_6 
REMARK    3  A    between atoms: C_8  and  C_9 
REMARK    4  A    between atoms: C_9  and  N_10 
REMARK       I    between atoms: N_10  and  C_11 
REMARK       I    between atoms: C_11  and  N_12 
REMARK    5  A    between atoms: N_12  and  C_13 
REMARK    6  A    between atoms: C_13  and  C_14 
ROOT
HETATM    1  N   UNL     1       5.310  27.030  51.295  1.00  0.00    -0.343 N 
HETATM    2  C   UNL     1       5.851  27.206  52.541  1.00  0.00     0.316 C 
HETATM    3  N   UNL     1       5.674  26.099  53.325  1.00  0.00    -0.339 N 
HETATM    4  O   UNL     1       6.405  28.232  52.909  1.00  0.00    -0.248 OA
HETATM    5  H   UNL     1       4.652  26.274  51.188  1.00  0.00     0.164 HD
HETATM    6  H   UNL     1       5.521  25.219  52.858  1.00  0.00     0.164 HD
ENDROOT
BRANCH   1   7
HETATM    7  C   UNL     1       5.271  28.102  50.316  1.00  0.00     0.130 C 
BRANCH   7   8
HETATM    8  C   UNL     1       4.517  27.697  49.056  1.00  0.00     0.023 C 
HETATM    9  C   UNL     1       3.188  28.445  48.898  1.00  0.00     0.129 C 
HETATM   10  N   UNL     1       2.394  27.570  48.036  1.00  0.00    -0.380 N 
HETATM   11  C   UNL     1       3.006  26.247  47.920  1.00  0.00     0.123 C 
HETATM   12  C   UNL     1       4.070  26.238  49.015  1.00  0.00     0.028 C 
BRANCH  10  13
HETATM   13  C   UNL     1       1.336  27.998  47.265  1.00  0.00     0.032 A 
HETATM   14  C   UNL     1       0.753  27.174  46.283  1.00  0.00     0.066 A 
HETATM   15  C   UNL     1      -0.332  27.598  45.503  1.00  0.00     0.070 A 
HETATM   16  C   UNL     1      -0.858  28.871  45.699  1.00  0.00     0.037 A 
HETATM   17  C   UNL     1      -0.298  29.717  46.648  1.00  0.00     0.005 A 
HETATM   18  C   UNL     1       0.789  29.283  47.412  1.00  0.00     0.029 A 
BRANCH  15  19
HETATM   19  O   UNL     1      -0.960  26.866  44.531  1.00  0.00    -0.356 OA
HETATM   20  C   UNL     1      -1.026  27.442  43.233  1.00  0.00     0.210 C 
ENDBRANCH  15  19
ENDBRANCH  10  13
ENDBRANCH   7   8
ENDBRANCH   1   7
BRANCH   3  21
HETATM   21  C   UNL     1       6.185  26.038  54.677  1.00  0.00     0.162 C 
BRANCH  21  22
HETATM   22  C   UNL     1       6.862  24.719  54.952  1.00  0.00    -0.040 A 
HETATM   23  C   UNL     1       7.050  23.784  53.924  1.00  0.00     0.021 A 
HETATM   24  C   UNL     1       7.660  22.541  54.170  1.00  0.00    -0.025 A 
HETATM   25  C   UNL     1       8.096  22.230  55.478  1.00  0.00    -0.026 A 
HETATM   26  C   UNL     1       7.842  21.597  53.145  1.00  0.00     0.012 A 
HETATM   27  C   UNL     1       7.904  23.168  56.505  1.00  0.00     0.013 A 
HETATM   28  C   UNL     1       8.703  20.989  55.724  1.00  0.00     0.012 A 
HETATM   29  C   UNL     1       7.289  24.395  56.246  1.00  0.00     0.010 A 
HETATM   30  C   UNL     1       8.875  20.062  54.694  1.00  0.00     0.001 A 
HETATM   31  C   UNL     1       8.445  20.366  53.406  1.00  0.00     0.001 A 
ENDBRANCH  21  22
ENDBRANCH   3  21
TORSDOF 6
ENDMDL
MODEL 8
REMARK VINA RESULT:      -9.8      3.194      4.734
REMARK  6 active torsions:
REMARK  status: ('A' for Active; 'I' for Inactive)
REMARK    1  A    between atoms: O_2  and  C_3 
REMARK    2  A    between atoms: C_5  and  N_6 
REMARK    3  A    between atoms: C_8  and  C_9 
REMARK    4  A    between atoms: C_9  and  N_10 
REMARK       I    between atoms: N_10  and  C_11 
REMARK       I    between atoms: C_11  and  N_12 
REMARK    5  A    between atoms: N_12  and  C_13 
REMARK    6  A    between atoms: C_13  and  C_14 
ROOT
HETATM    1  N   UNL     1       3.985  28.700  54.951  1.00  0.00    -0.343 N 
HETATM    2  C   UNL     1       4.520  28.047  53.872  1.00  0.00     0.316 C 
HETATM    3  N   UNL     1       4.918  26.780  54.199  1.00  0.00    -0.339 N 
HETATM    4  O   UNL     1       4.641  28.545  52.761  1.00  0.00    -0.248 OA
HETATM    5  H   UNL     1       4.180  28.308  55.860  1.00  0.00     0.164 HD
HETATM    6  H   UNL     1       4.489  26.352  55.004  1.00  0.00     0.164 HD
ENDROOT
BRANCH   1   7
HETATM    7  C   UNL     1       3.592  30.096  54.886  1.00  0.00     0.130 C 
BRANCH   7   8
HETATM    8  C   UNL     1       4.193  30.910  56.026  1.00  0.00     0.023 C 
HETATM    9  C   UNL     1       5.618  30.469  56.377  1.00  0.00     0.129 C 
HETATM   10  N   UNL     1       5.790  30.913  57.760  1.00  0.00    -0.380 N 
HETATM   11  C   UNL     1       4.510  31.298  58.354  1.00  0.00     0.123 C 
HETATM   12  C   UNL     1       3.474  30.772  57.365  1.00  0.00     0.028 C 
BRANCH  10  13
HETATM   13  C   UNL     1       7.013  31.145  58.351  1.00  0.00     0.032 A 
HETATM   14  C   UNL     1       8.190  30.530  57.885  1.00  0.00     0.066 A 
HETATM   15  C   UNL     1       9.440  30.771  58.473  1.00  0.00     0.070 A 
HETATM   16  C   UNL     1       9.530  31.646  59.551  1.00  0.00     0.037 A 
HETATM   17  C   UNL     1       8.387  32.258  60.049  1.00  0.00     0.005 A 
HETATM   18  C   UNL     1       7.147  32.002  59.457  1.00  0.00     0.029 A 
BRANCH  15  19
HETATM   19  O   UNL     1      10.632  30.220  58.086  1.00  0.00    -0.356 OA
HETATM   20  C   UNL     1      10.705  29.705  56.764  1.00  0.00     0.210 C 
ENDBRANCH  15  19
ENDBRANCH  10  13
ENDBRANCH   7   8
ENDBRANCH   1   7
BRANCH   3  21
HETATM   21  C   UNL     1       5.489  25.887  53.214  1.00  0.00     0.162 C 
BRANCH  21  22
HETATM   22  C   UNL     1       6.246  24.757  53.867  1.00  0.00    -0.040 A 
HETATM   23  C   UNL     1       6.767  23.707  53.097  1.00  0.00     0.021 A 
HETATM   24  C   UNL     1       7.456  22.636  53.693  1.00  0.00    -0.025 A 
HETATM   25  C   UNL     1       7.629  22.620  55.095  1.00  0.00    -0.026 A 
HETATM   26  C   UNL     1       7.971  21.577  52.927  1.00  0.00     0.012 A 
HETATM   27  C   UNL     1       7.104  23.671  55.863  1.00  0.00     0.013 A 
HETATM   28  C   UNL     1       8.314  21.549  55.692  1.00  0.00     0.012 A 
HETATM   29  C   UNL     1       6.416  24.724  55.256  1.00  0.00     0.010 A 
HETATM   30  C   UNL     1       8.820  20.505  54.915  1.00  0.00     0.001 A 
HETATM   31  C   UNL     1       8.648  20.519  53.534  1.00  0.00     0.001 A 
ENDBRANCH  21  22
ENDBRANCH   3  21
TORSDOF 6
ENDMDL
MODEL 9
REMARK VINA RESULT:      -9.7      2.330     11.341
REMARK  6 active torsions:
REMARK  status: ('A' for Active; 'I' for Inactive)
REMARK    1  A    between atoms: O_2  and  C_3 
REMARK    2  A    between atoms: C_5  and  N_6 
REMARK    3  A    between atoms: C_8  and  C_9 
REMARK    4  A    between atoms: C_9  and  N_10 
REMARK       I    between atoms: N_10  and  C_11 
REMARK       I    between atoms: C_11  and  N_12 
REMARK    5  A    between atoms: N_12  and  C_13 
REMARK    6  A    between atoms: C_13  and  C_14 
ROOT
HETATM    1  N   UNL     1       5.872  29.702  57.328  1.00  0.00    -0.343 N 
HETATM    2  C   UNL     1       5.571  30.985  57.702  1.00  0.00     0.316 C 
HETATM    3  N   UNL     1       5.018  31.026  58.953  1.00  0.00    -0.339 N 
HETATM    4  O   UNL     1       5.757  31.966  56.996  1.00  0.00    -0.248 OA
HETATM    5  H   UNL     1       5.436  28.962  57.856  1.00  0.00     0.164 HD
HETATM    6  H   UNL     1       5.208  30.252  59.569  1.00  0.00     0.164 HD
ENDROOT
BRANCH   1   7
HETATM    7  C   UNL     1       6.366  29.385  56.000  1.00  0.00     0.130 C 
BRANCH   7   8
HETATM    8  C   UNL     1       7.258  28.150  56.003  1.00  0.00     0.023 C 
HETATM    9  C   UNL     1       6.755  27.058  55.053  1.00  0.00     0.129 C 
HETATM   10  N   UNL     1       7.341  25.830  55.590  1.00  0.00    -0.380 N 
HETATM   11  C   UNL     1       7.885  26.048  56.930  1.00  0.00     0.123 C 
HETATM   12  C   UNL     1       7.328  27.410  57.336  1.00  0.00     0.028 C 
BRANCH  10  13
HETATM   13  C   UNL     1       7.547  24.685  54.854  1.00  0.00     0.032 A 
HETATM   14  C   UNL     1       7.575  23.411  55.454  1.00  0.00     0.066 A 
HETATM   15  C   UNL     1       7.772  22.240  54.710  1.00  0.00     0.070 A 
HETATM   16  C   UNL     1       7.945  22.328  53.332  1.00  0.00     0.037 A 
HETATM   17  C   UNL     1       7.941  23.569  52.707  1.00  0.00     0.005 A 
HETATM   18  C   UNL     1       7.751  24.728  53.464  1.00  0.00     0.029 A 
BRANCH  15  19
HETATM   19  O   UNL     1       7.812  20.966  55.207  1.00  0.00    -0.356 OA
HETATM   20  C   UNL     1       8.138  20.821  56.583  1.00  0.00     0.210 C 
ENDBRANCH  15  19
ENDBRANCH  10  13
ENDBRANCH   7   8
ENDBRANCH   1   7
BRANCH   3  21
HETATM   21  C   UNL     1       4.642  32.277  59.575  1.00  0.00     0.162 C 
BRANCH  21  22
HETATM   22  C   UNL     1       5.443  32.534  60.826  1.00  0.00    -0.040 A 
HETATM   23  C   UNL     1       4.805  32.889  62.023  1.00  0.00     0.021 A 
HETATM   24  C   UNL     1       5.541  33.154  63.192  1.00  0.00    -0.025 A 
HETATM   25  C   UNL     1       6.950  33.056  63.160  1.00  0.00    -0.026 A 
HETATM   26  C   UNL     1       4.907  33.519  64.391  1.00  0.00     0.012 A 
HETATM   27  C   UNL     1       7.585  32.702  61.959  1.00  0.00     0.013 A 
HETATM   28  C   UNL     1       7.685  33.323  64.326  1.00  0.00     0.012 A 
HETATM   29  C   UNL     1       6.841  32.450  60.805  1.00  0.00     0.010 A 
HETATM   30  C   UNL     1       7.039  33.685  65.509  1.00  0.00     0.001 A 
HETATM   31  C   UNL     1       5.652  33.784  65.542  1.00  0.00     0.001 A 
ENDBRANCH  21  22
ENDBRANCH   3  21
TORSDOF 6
ENDMDL
MODEL 10
REMARK VINA RESULT:      -9.7      1.662      2.585
REMARK  6 active torsions:
REMARK  status: ('A' for Active; 'I' for Inactive)
REMARK    1  A    between atoms: O_2  and  C_3 
REMARK    2  A    between atoms: C_5  and  N_6 
REMARK    3  A    between atoms: C_8  and  C_9 
REMARK    4  A    between atoms: C_9  and  N_10 
REMARK       I    between atoms: N_10  and  C_11 
REMARK       I    between atoms: C_11  and  N_12 
REMARK    5  A    between atoms: N_12  and  C_13 
REMARK    6  A    between atoms: C_13  and  C_14 
ROOT
HETATM    1  N   UNL     1       5.372  30.726  57.676  1.00  0.00    -0.343 N 
HETATM    2  C   UNL     1       6.549  30.025  57.677  1.00  0.00     0.316 C 
HETATM    3  N   UNL     1       6.328  28.675  57.690  1.00  0.00    -0.339 N 
HETATM    4  O   UNL     1       7.656  30.545  57.683  1.00  0.00    -0.248 OA
HETATM    5  H   UNL     1       4.542  30.220  57.944  1.00  0.00     0.164 HD
HETATM    6  H   UNL     1       5.437  28.347  57.354  1.00  0.00     0.164 HD
ENDROOT
BRANCH   1   7
HETATM    7  C   UNL     1       5.341  32.174  57.774  1.00  0.00     0.130 C 
BRANCH   7   8
HETATM    8  C   UNL     1       4.880  32.643  59.149  1.00  0.00     0.023 C 
HETATM    9  C   UNL     1       5.982  32.534  60.209  1.00  0.00     0.129 C 
HETATM   10  N   UNL     1       5.248  32.461  61.472  1.00  0.00    -0.380 N 
HETATM   11  C   UNL     1       3.825  32.209  61.241  1.00  0.00     0.123 C 
HETATM   12  C   UNL     1       3.757  31.814  59.768  1.00  0.00     0.028 C 
BRANCH  10  13
HETATM   13  C   UNL     1       5.780  32.799  62.696  1.00  0.00     0.032 A 
HETATM   14  C   UNL     1       4.964  33.146  63.790  1.00  0.00     0.066 A 
HETATM   15  C   UNL     1       5.497  33.479  65.043  1.00  0.00     0.070 A 
HETATM   16  C   UNL     1       6.877  33.467  65.222  1.00  0.00     0.037 A 
HETATM   17  C   UNL     1       7.715  33.146  64.161  1.00  0.00     0.005 A 
HETATM   18  C   UNL     1       7.168  32.824  62.916  1.00  0.00     0.029 A 
BRANCH  15  19
HETATM   19  O   UNL     1       4.782  33.825  66.157  1.00  0.00    -0.356 OA
HETATM   20  C   UNL     1       3.745  34.781  65.985  1.00  0.00     0.210 C 
ENDBRANCH  15  19
ENDBRANCH  10  13
ENDBRANCH   7   8
ENDBRANCH   1   7
BRANCH   3  21
HETATM   21  C   UNL     1       7.421  27.728  57.666  1.00  0.00     0.162 C 
BRANCH  21  22
HETATM   22  C   UNL     1       7.433  26.931  56.386  1.00  0.00    -0.040 A 
HETATM   23  C   UNL     1       7.467  25.529  56.417  1.00  0.00     0.021 A 
HETATM   24  C   UNL     1       7.501  24.773  55.232  1.00  0.00    -0.025 A 
HETATM   25  C   UNL     1       7.495  25.439  53.986  1.00  0.00    -0.026 A 
HETATM   26  C   UNL     1       7.545  23.369  55.258  1.00  0.00     0.012 A 
HETATM   27  C   UNL     1       7.463  26.842  53.959  1.00  0.00     0.013 A 
HETATM   28  C   UNL     1       7.531  24.685  52.802  1.00  0.00     0.012 A 
HETATM   29  C   UNL     1       7.438  27.579  55.145  1.00  0.00     0.010 A 
HETATM   30  C   UNL     1       7.575  23.290  52.847  1.00  0.00     0.001 A 
HETATM   31  C   UNL     1       7.583  22.633  54.073  1.00  0.00     0.001 A 
ENDBRANCH  21  22
ENDBRANCH   3  21
TORSDOF 6
ENDMDL
