MODEL 1
REMARK VINA RESULT:      -9.8      0.000      0.000
REMARK  7 active torsions:
REMARK  status: ('A' for Active; 'I' for Inactive)
REMARK    1  A    between atoms: C_3  and  C_4 
REMARK       I    between atoms: C_4  and  N_5 
REMARK    2  A    between atoms: N_5  and  C_6 
REMARK    3  A    between atoms: C_17  and  S_18 
REMARK    4  A    between atoms: S_18  and  C_19 
REMARK    5  A    between atoms: C_19  and  C_20 
REMARK       I    between atoms: C_20  and  N_21 
REMARK    6  A    between atoms: N_21  and  C_22 
REMARK    7  A    between atoms: C_22  and  C_23 
ROOT
HETATM    1  C   UNL     1      11.173  30.486  57.407  1.00  0.00     0.001 A 
HETATM    2  C   UNL     1      10.313  31.198  58.239  1.00  0.00     0.018 A 
HETATM    3  C   UNL     1       8.966  30.812  58.358  1.00  0.00     0.049 A 
HETATM    4  C   UNL     1       8.473  29.707  57.637  1.00  0.00     0.016 A 
HETATM    5  C   UNL     1       9.354  29.014  56.794  1.00  0.00     0.019 A 
HETATM    6  C   UNL     1      10.695  29.395  56.685  1.00  0.00     0.001 A 
ENDROOT
BRANCH   3   7
HETATM    7  C   UNL     1       8.089  31.616  59.246  1.00  0.00     0.257 C 
HETATM    8  N   UNL     1       8.357  31.461  60.595  1.00  0.00    -0.323 N 
HETATM    9  H   UNL     1       9.104  30.825  60.847  1.00  0.00     0.169 HD
HETATM   10  O   UNL     1       7.198  32.288  58.745  1.00  0.00    -0.267 OA
BRANCH   8  11
HETATM   11  C   UNL     1       7.632  32.018  61.671  1.00  0.00     0.037 A 
HETATM   12  C   UNL     1       6.253  32.257  61.629  1.00  0.00     0.061 A 
HETATM   13  C   UNL     1       5.670  32.772  62.763  1.00  0.00     0.065 A 
HETATM   14  C   UNL     1       6.396  33.063  63.914  1.00  0.00     0.063 A 
HETATM   15  N   UNL     1       4.338  33.088  63.006  1.00  0.00    -0.306 N 
HETATM   16  N   UNL     1       5.512  33.557  64.866  1.00  0.00    -0.307 N 
HETATM   17  C   UNL     1       7.750  32.855  63.988  1.00  0.00     0.034 A 
HETATM   18  C   UNL     1       4.221  33.576  64.314  1.00  0.00     0.325 A 
HETATM   19  H   UNL     1       5.723  33.854  65.804  1.00  0.00     0.170 HD
HETATM   20  O   UNL     1       3.201  33.942  64.869  1.00  0.00    -0.247 OA
HETATM   21  C   UNL     1       8.368  32.326  62.847  1.00  0.00     0.032 A 
HETATM   22  H   UNL     1       3.568  32.985  62.364  1.00  0.00     0.170 HD
ENDBRANCH   8  11
ENDBRANCH   3   7
BRANCH   4  23
HETATM   23  S   UNL     1       6.783  29.113  57.687  1.00  0.00    -0.120 SA
BRANCH  23  24
HETATM   24  C   UNL     1       7.058  27.316  57.552  1.00  0.00     0.182 C 
BRANCH  24  25
HETATM   25  C   UNL     1       6.297  26.716  56.383  1.00  0.00     0.227 C 
HETATM   26  N   UNL     1       7.062  26.127  55.405  1.00  0.00    -0.354 N 
HETATM   27  H   UNL     1       8.052  25.945  55.577  1.00  0.00     0.162 HD
HETATM   28  O   UNL     1       5.076  26.841  56.281  1.00  0.00    -0.273 OA
BRANCH  26  29
HETATM   29  C   UNL     1       6.441  25.498  54.265  1.00  0.00     0.187 C 
BRANCH  29  30
HETATM   30  C   UNL     1       7.069  24.184  53.974  1.00  0.00     0.070 A 
HETATM   31  O   UNL     1       7.102  23.264  54.983  1.00  0.00    -0.325 OA
HETATM   32  C   UNL     1       7.689  22.145  54.487  1.00  0.00     0.142 A 
HETATM   33  C   UNL     1       8.027  22.325  53.166  1.00  0.00     0.027 A 
HETATM   34  C   UNL     1       7.627  23.642  52.832  1.00  0.00     0.036 A 
ENDBRANCH  29  30
ENDBRANCH  26  29
ENDBRANCH  24  25
ENDBRANCH  23  24
ENDBRANCH   4  23
TORSDOF 7
ENDMDL
MODEL 2
REMARK VINA RESULT:      -9.8      4.087      7.284
REMARK  7 active torsions:
REMARK  status: ('A' for Active; 'I' for Inactive)
REMARK    1  A    between atoms: C_3  and  C_4 
REMARK       I    between atoms: C_4  and  N_5 
REMARK    2  A    between atoms: N_5  and  C_6 
REMARK    3  A    between atoms: C_17  and  S_18 
REMARK    4  A    between atoms: S_18  and  C_19 
REMARK    5  A    between atoms: C_19  and  C_20 
REMARK       I    between atoms: C_20  and  N_21 
REMARK    6  A    between atoms: N_21  and  C_22 
REMARK    7  A    between atoms: C_22  and  C_23 
ROOT
HETATM    1  C   UNL     1       9.124  22.354  54.783  1.00  0.00     0.001 A 
HETATM    2  C   UNL     1       8.761  23.384  55.648  1.00  0.00     0.018 A 
HETATM    3  C   UNL     1       7.700  24.244  55.316  1.00  0.00     0.049 A 
HETATM    4  C   UNL     1       6.997  24.078  54.107  1.00  0.00     0.016 A 
HETATM    5  C   UNL     1       7.389  23.044  53.243  1.00  0.00     0.019 A 
HETATM    6  C   UNL     1       8.439  22.185  53.582  1.00  0.00     0.001 A 
ENDROOT
BRANCH   3   7
HETATM    7  C   UNL     1       7.365  25.334  56.266  1.00  0.00     0.257 C 
HETATM    8  N   UNL     1       7.811  26.584  55.872  1.00  0.00    -0.323 N 
HETATM    9  H   UNL     1       8.317  26.638  54.996  1.00  0.00     0.169 HD
HETATM   10  O   UNL     1       6.789  25.053  57.309  1.00  0.00    -0.267 OA
BRANCH   8  11
HETATM   11  C   UNL     1       7.725  27.785  56.610  1.00  0.00     0.037 A 
HETATM   12  C   UNL     1       8.840  28.442  57.145  1.00  0.00     0.061 A 
HETATM   13  C   UNL     1       8.612  29.622  57.813  1.00  0.00     0.065 A 
HETATM   14  C   UNL     1       7.338  30.159  57.974  1.00  0.00     0.063 A 
HETATM   15  N   UNL     1       9.520  30.482  58.422  1.00  0.00    -0.306 N 
HETATM   16  N   UNL     1       7.461  31.350  58.682  1.00  0.00    -0.307 N 
HETATM   17  C   UNL     1       6.221  29.538  57.476  1.00  0.00     0.034 A 
HETATM   18  C   UNL     1       8.818  31.566  58.966  1.00  0.00     0.325 A 
HETATM   19  H   UNL     1       6.725  31.979  58.956  1.00  0.00     0.170 HD
HETATM   20  O   UNL     1       9.291  32.514  59.566  1.00  0.00    -0.247 OA
HETATM   21  C   UNL     1       6.427  28.335  56.786  1.00  0.00     0.032 A 
HETATM   22  H   UNL     1      10.520  30.366  58.470  1.00  0.00     0.170 HD
ENDBRANCH   8  11
ENDBRANCH   3   7
BRANCH   4  23
HETATM   23  S   UNL     1       5.635  25.105  53.555  1.00  0.00    -0.120 SA
BRANCH  23  24
HETATM   24  C   UNL     1       6.048  25.284  51.788  1.00  0.00     0.182 C 
BRANCH  24  25
HETATM   25  C   UNL     1       5.336  26.470  51.161  1.00  0.00     0.227 C 
HETATM   26  N   UNL     1       5.511  26.629  49.807  1.00  0.00    -0.354 N 
HETATM   27  H   UNL     1       5.930  25.877  49.258  1.00  0.00     0.162 HD
HETATM   28  O   UNL     1       4.722  27.285  51.849  1.00  0.00    -0.273 OA
BRANCH  26  29
HETATM   29  C   UNL     1       4.855  27.704  49.103  1.00  0.00     0.187 C 
BRANCH  29  30
HETATM   30  C   UNL     1       3.670  27.208  48.359  1.00  0.00     0.070 A 
HETATM   31  O   UNL     1       3.870  26.211  47.447  1.00  0.00    -0.325 OA
HETATM   32  C   UNL     1       2.659  25.903  46.917  1.00  0.00     0.142 A 
HETATM   33  C   UNL     1       1.676  26.680  47.482  1.00  0.00     0.027 A 
HETATM   34  C   UNL     1       2.326  27.524  48.415  1.00  0.00     0.036 A 
ENDBRANCH  29  30
ENDBRANCH  26  29
ENDBRANCH  24  25
ENDBRANCH  23  24
ENDBRANCH   4  23
TORSDOF 7
ENDMDL
MODEL 3
REMARK VINA RESULT:      -9.8      5.276     10.138
REMARK  7 active torsions:
REMARK  status: ('A' for Active; 'I' for Inactive)
REMARK    1  A    between atoms: C_3  and  C_4 
REMARK       I    between atoms: C_4  and  N_5 
REMARK    2  A    between atoms: N_5  and  C_6 
REMARK    3  A    between atoms: C_17  and  S_18 
REMARK    4  A    between atoms: S_18  and  C_19 
REMARK    5  A    between atoms: C_19  and  C_20 
REMARK       I    between atoms: C_20  and  N_21 
REMARK    6  A    between atoms: N_21  and  C_22 
REMARK    7  A    between atoms: C_22  and  C_23 
ROOT
HETATM    1  C   UNL     1       7.877  20.601  53.381  1.00  0.00     0.001 A 
HETATM    2  C   UNL     1       7.600  21.890  52.933  1.00  0.00     0.018 A 
HETATM    3  C   UNL     1       7.733  22.984  53.806  1.00  0.00     0.049 A 
HETATM    4  C   UNL     1       8.142  22.789  55.139  1.00  0.00     0.016 A 
HETATM    5  C   UNL     1       8.401  21.480  55.573  1.00  0.00     0.019 A 
HETATM    6  C   UNL     1       8.276  20.396  54.699  1.00  0.00     0.001 A 
ENDROOT
BRANCH   3   7
HETATM    7  C   UNL     1       7.409  24.335  53.282  1.00  0.00     0.257 C 
HETATM    8  N   UNL     1       6.065  24.529  53.012  1.00  0.00    -0.323 N 
HETATM    9  H   UNL     1       5.443  23.750  53.186  1.00  0.00     0.169 HD
HETATM   10  O   UNL     1       8.322  25.127  53.087  1.00  0.00    -0.267 OA
BRANCH   8  11
HETATM   11  C   UNL     1       5.478  25.670  52.420  1.00  0.00     0.037 A 
HETATM   12  C   UNL     1       5.500  25.921  51.043  1.00  0.00     0.061 A 
HETATM   13  C   UNL     1       4.857  27.053  50.601  1.00  0.00     0.065 A 
HETATM   14  C   UNL     1       4.213  27.934  51.464  1.00  0.00     0.063 A 
HETATM   15  N   UNL     1       4.708  27.535  49.305  1.00  0.00    -0.306 N 
HETATM   16  N   UNL     1       3.666  28.959  50.700  1.00  0.00    -0.307 N 
HETATM   17  C   UNL     1       4.181  27.729  52.819  1.00  0.00     0.034 A 
HETATM   18  C   UNL     1       3.964  28.722  49.349  1.00  0.00     0.325 A 
HETATM   19  H   UNL     1       3.134  29.750  51.024  1.00  0.00     0.170 HD
HETATM   20  O   UNL     1       3.636  29.413  48.401  1.00  0.00    -0.247 OA
HETATM   21  C   UNL     1       4.825  26.578  53.295  1.00  0.00     0.032 A 
HETATM   22  H   UNL     1       5.063  27.113  48.461  1.00  0.00     0.170 HD
ENDBRANCH   8  11
ENDBRANCH   3   7
BRANCH   4  23
HETATM   23  S   UNL     1       8.343  24.088  56.359  1.00  0.00    -0.120 SA
BRANCH  23  24
HETATM   24  C   UNL     1       6.610  24.611  56.576  1.00  0.00     0.182 C 
BRANCH  24  25
HETATM   25  C   UNL     1       6.455  26.116  56.439  1.00  0.00     0.227 C 
HETATM   26  N   UNL     1       7.461  26.766  55.766  1.00  0.00    -0.354 N 
HETATM   27  H   UNL     1       8.147  26.226  55.234  1.00  0.00     0.162 HD
HETATM   28  O   UNL     1       5.530  26.716  56.986  1.00  0.00    -0.273 OA
BRANCH  26  29
HETATM   29  C   UNL     1       7.399  28.191  55.550  1.00  0.00     0.187 C 
BRANCH  29  30
HETATM   30  C   UNL     1       8.515  28.883  56.243  1.00  0.00     0.070 A 
HETATM   31  O   UNL     1       9.539  29.356  55.473  1.00  0.00    -0.325 OA
HETATM   32  C   UNL     1      10.419  29.967  56.306  1.00  0.00     0.142 A 
HETATM   33  C   UNL     1       9.973  29.905  57.605  1.00  0.00     0.027 A 
HETATM   34  C   UNL     1       8.743  29.206  57.567  1.00  0.00     0.036 A 
ENDBRANCH  29  30
ENDBRANCH  26  29
ENDBRANCH  24  25
ENDBRANCH  23  24
ENDBRANCH   4  23
TORSDOF 7
ENDMDL
MODEL 4
REMARK VINA RESULT:      -9.5      2.459     10.505
REMARK  7 active torsions:
REMARK  status: ('A' for Active; 'I' for Inactive)
REMARK    1  A    between atoms: C_3  and  C_4 
REMARK       I    between atoms: C_4  and  N_5 
REMARK    2  A    between atoms: N_5  and  C_6 
REMARK    3  A    between atoms: C_17  and  S_18 
REMARK    4  A    between atoms: S_18  and  C_19 
REMARK    5  A    between atoms: C_19  and  C_20 
REMARK       I    between atoms: C_20  and  N_21 
REMARK    6  A    between atoms: N_21  and  C_22 
REMARK    7  A    between atoms: C_22  and  C_23 
ROOT
HETATM    1  C   UNL     1       3.993  29.920  55.755  1.00  0.00     0.001 A 
HETATM    2  C   UNL     1       4.348  28.575  55.836  1.00  0.00     0.018 A 
HETATM    3  C   UNL     1       5.520  28.195  56.513  1.00  0.00     0.049 A 
HETATM    4  C   UNL     1       6.346  29.165  57.112  1.00  0.00     0.016 A 
HETATM    5  C   UNL     1       5.977  30.514  57.005  1.00  0.00     0.019 A 
HETATM    6  C   UNL     1       4.806  30.888  56.338  1.00  0.00     0.001 A 
ENDROOT
BRANCH   3   7
HETATM    7  C   UNL     1       5.860  26.750  56.555  1.00  0.00     0.257 C 
HETATM    8  N   UNL     1       6.883  26.385  55.697  1.00  0.00    -0.323 N 
HETATM    9  H   UNL     1       7.291  27.117  55.128  1.00  0.00     0.169 HD
HETATM   10  O   UNL     1       5.205  26.010  57.277  1.00  0.00    -0.267 OA
BRANCH   8  11
HETATM   11  C   UNL     1       7.355  25.077  55.451  1.00  0.00     0.037 A 
HETATM   12  C   UNL     1       7.084  24.368  54.274  1.00  0.00     0.061 A 
HETATM   13  C   UNL     1       7.637  23.115  54.155  1.00  0.00     0.065 A 
HETATM   14  C   UNL     1       8.429  22.547  55.148  1.00  0.00     0.063 A 
HETATM   15  N   UNL     1       7.550  22.208  53.104  1.00  0.00    -0.306 N 
HETATM   16  N   UNL     1       8.829  21.290  54.711  1.00  0.00    -0.307 N 
HETATM   17  C   UNL     1       8.705  23.204  56.320  1.00  0.00     0.034 A 
HETATM   18  C   UNL     1       8.291  21.065  53.434  1.00  0.00     0.325 A 
HETATM   19  H   UNL     1       9.412  20.628  55.195  1.00  0.00     0.170 HD
HETATM   20  O   UNL     1       8.443  20.071  52.747  1.00  0.00    -0.247 OA
HETATM   21  C   UNL     1       8.156  24.486  56.464  1.00  0.00     0.032 A 
HETATM   22  H   UNL     1       7.048  22.334  52.240  1.00  0.00     0.170 HD
ENDBRANCH   8  11
ENDBRANCH   3   7
BRANCH   4  23
HETATM   23  S   UNL     1       7.868  28.822  57.995  1.00  0.00    -0.120 SA
BRANCH  23  24
HETATM   24  C   UNL     1       8.876  30.255  57.490  1.00  0.00     0.182 C 
BRANCH  24  25
HETATM   25  C   UNL     1       9.356  31.056  58.688  1.00  0.00     0.227 C 
HETATM   26  N   UNL     1       8.991  30.572  59.921  1.00  0.00    -0.354 N 
HETATM   27  H   UNL     1       8.598  29.632  60.002  1.00  0.00     0.162 HD
HETATM   28  O   UNL     1       9.950  32.125  58.547  1.00  0.00    -0.273 OA
BRANCH  26  29
HETATM   29  C   UNL     1       9.419  31.237  61.127  1.00  0.00     0.187 C 
BRANCH  29  30
HETATM   30  C   UNL     1       8.258  31.780  61.877  1.00  0.00     0.070 A 
HETATM   31  O   UNL     1       7.044  31.769  61.252  1.00  0.00    -0.325 OA
HETATM   32  C   UNL     1       6.139  32.281  62.125  1.00  0.00     0.142 A 
HETATM   33  C   UNL     1       6.750  32.613  63.311  1.00  0.00     0.027 A 
HETATM   34  C   UNL     1       8.120  32.290  63.154  1.00  0.00     0.036 A 
ENDBRANCH  29  30
ENDBRANCH  26  29
ENDBRANCH  24  25
ENDBRANCH  23  24
ENDBRANCH   4  23
TORSDOF 7
ENDMDL
MODEL 5
REMARK VINA RESULT:      -9.5      5.694     10.198
REMARK  7 active torsions:
REMARK  status: ('A' for Active; 'I' for Inactive)
REMARK    1  A    between atoms: C_3  and  C_4 
REMARK       I    between atoms: C_4  and  N_5 
REMARK    2  A    between atoms: N_5  and  C_6 
REMARK    3  A    between atoms: C_17  and  S_18 
REMARK    4  A    between atoms: S_18  and  C_19 
REMARK    5  A    between atoms: C_19  and  C_20 
REMARK       I    between atoms: C_20  and  N_21 
REMARK    6  A    between atoms: N_21  and  C_22 
REMARK    7  A    between atoms: C_22  and  C_23 
ROOT
HETATM    1  C   UNL     1       8.275  21.295  53.503  1.00  0.00     0.001 A 
HETATM    2  C   UNL     1       7.954  22.558  53.013  1.00  0.00     0.018 A 
HETATM    3  C   UNL     1       7.475  23.552  53.885  1.00  0.00     0.049 A 
HETATM    4  C   UNL     1       7.312  23.281  55.257  1.00  0.00     0.016 A 
HETATM    5  C   UNL     1       7.628  21.997  55.726  1.00  0.00     0.019 A 
HETATM    6  C   UNL     1       8.112  21.014  54.858  1.00  0.00     0.001 A 
ENDROOT
BRANCH   3   7
HETATM    7  C   UNL     1       7.132  24.876  53.307  1.00  0.00     0.257 C 
HETATM    8  N   UNL     1       5.848  24.954  52.796  1.00  0.00    -0.323 N 
HETATM    9  H   UNL     1       5.277  24.120  52.855  1.00  0.00     0.169 HD
HETATM   10  O   UNL     1       7.989  25.749  53.281  1.00  0.00    -0.267 OA
BRANCH   8  11
HETATM   11  C   UNL     1       5.277  26.046  52.105  1.00  0.00     0.037 A 
HETATM   12  C   UNL     1       5.250  26.144  50.708  1.00  0.00     0.061 A 
HETATM   13  C   UNL     1       4.631  27.247  50.169  1.00  0.00     0.065 A 
HETATM   14  C   UNL     1       4.056  28.242  50.952  1.00  0.00     0.063 A 
HETATM   15  N   UNL     1       4.444  27.590  48.834  1.00  0.00    -0.306 N 
HETATM   16  N   UNL     1       3.515  29.199  50.101  1.00  0.00    -0.307 N 
HETATM   17  C   UNL     1       4.074  28.188  52.322  1.00  0.00     0.034 A 
HETATM   18  C   UNL     1       3.747  28.804  48.774  1.00  0.00     0.325 A 
HETATM   19  H   UNL     1       3.026  30.041  50.355  1.00  0.00     0.170 HD
HETATM   20  O   UNL     1       3.404  29.400  47.769  1.00  0.00    -0.247 OA
HETATM   21  C   UNL     1       4.696  27.071  52.898  1.00  0.00     0.032 A 
HETATM   22  H   UNL     1       4.747  27.064  48.029  1.00  0.00     0.170 HD
ENDBRANCH   8  11
ENDBRANCH   3   7
BRANCH   4  23
HETATM   23  S   UNL     1       6.704  24.448  56.475  1.00  0.00    -0.120 SA
BRANCH  23  24
HETATM   24  C   UNL     1       8.232  25.371  56.844  1.00  0.00     0.182 C 
BRANCH  24  25
HETATM   25  C   UNL     1       7.963  26.854  57.032  1.00  0.00     0.227 C 
HETATM   26  N   UNL     1       7.720  27.571  55.885  1.00  0.00    -0.354 N 
HETATM   27  H   UNL     1       7.540  27.079  55.008  1.00  0.00     0.162 HD
HETATM   28  O   UNL     1       8.058  27.387  58.137  1.00  0.00    -0.273 OA
BRANCH  26  29
HETATM   29  C   UNL     1       7.421  28.981  55.950  1.00  0.00     0.187 C 
BRANCH  29  30
HETATM   30  C   UNL     1       5.955  29.216  55.939  1.00  0.00     0.070 A 
HETATM   31  O   UNL     1       5.490  30.263  55.196  1.00  0.00    -0.325 OA
HETATM   32  C   UNL     1       4.138  30.269  55.312  1.00  0.00     0.142 A 
HETATM   33  C   UNL     1       3.720  29.232  56.112  1.00  0.00     0.027 A 
HETATM   34  C   UNL     1       4.893  28.550  56.519  1.00  0.00     0.036 A 
ENDBRANCH  29  30
ENDBRANCH  26  29
ENDBRANCH  24  25
ENDBRANCH  23  24
ENDBRANCH   4  23
TORSDOF 7
ENDMDL
MODEL 6
REMARK VINA RESULT:      -9.3      1.968      2.223
REMARK  7 active torsions:
REMARK  status: ('A' for Active; 'I' for Inactive)
REMARK    1  A    between atoms: C_3  and  C_4 
REMARK       I    between atoms: C_4  and  N_5 
REMARK    2  A    between atoms: N_5  and  C_6 
REMARK    3  A    between atoms: C_17  and  S_18 
REMARK    4  A    between atoms: S_18  and  C_19 
REMARK    5  A    between atoms: C_19  and  C_20 
REMARK       I    between atoms: C_20  and  N_21 
REMARK    6  A    between atoms: N_21  and  C_22 
REMARK    7  A    between atoms: C_22  and  C_23 
ROOT
HETATM    1  C   UNL     1      10.876  29.580  56.993  1.00  0.00     0.001 A 
HETATM    2  C   UNL     1      10.517  30.429  58.038  1.00  0.00     0.018 A 
HETATM    3  C   UNL     1       9.161  30.677  58.312  1.00  0.00     0.049 A 
HETATM    4  C   UNL     1       8.153  30.076  57.533  1.00  0.00     0.016 A 
HETATM    5  C   UNL     1       8.538  29.237  56.476  1.00  0.00     0.019 A 
HETATM    6  C   UNL     1       9.888  28.986  56.213  1.00  0.00     0.001 A 
ENDROOT
BRANCH   3   7
HETATM    7  C   UNL     1       8.835  31.601  59.427  1.00  0.00     0.257 C 
HETATM    8  N   UNL     1       8.091  31.022  60.441  1.00  0.00    -0.323 N 
HETATM    9  H   UNL     1       7.839  30.048  60.329  1.00  0.00     0.169 HD
HETATM   10  O   UNL     1       9.188  32.770  59.348  1.00  0.00    -0.267 OA
BRANCH   8  11
HETATM   11  C   UNL     1       7.556  31.673  61.575  1.00  0.00     0.037 A 
HETATM   12  C   UNL     1       6.185  31.876  61.770  1.00  0.00     0.061 A 
HETATM   13  C   UNL     1       5.802  32.494  62.937  1.00  0.00     0.065 A 
HETATM   14  C   UNL     1       6.716  32.917  63.897  1.00  0.00     0.063 A 
HETATM   15  N   UNL     1       4.526  32.804  63.395  1.00  0.00    -0.306 N 
HETATM   16  N   UNL     1       6.005  33.489  64.945  1.00  0.00    -0.307 N 
HETATM   17  C   UNL     1       8.068  32.748  63.735  1.00  0.00     0.034 A 
HETATM   18  C   UNL     1       4.634  33.423  64.648  1.00  0.00     0.325 A 
HETATM   19  H   UNL     1       6.373  33.886  65.793  1.00  0.00     0.170 HD
HETATM   20  O   UNL     1       3.720  33.823  65.346  1.00  0.00    -0.247 OA
HETATM   21  C   UNL     1       8.484  32.116  62.554  1.00  0.00     0.032 A 
HETATM   22  H   UNL     1       3.655  32.619  62.922  1.00  0.00     0.170 HD
ENDBRANCH   8  11
ENDBRANCH   3   7
BRANCH   4  23
HETATM   23  S   UNL     1       6.391  30.312  57.764  1.00  0.00    -0.120 SA
BRANCH  23  24
HETATM   24  C   UNL     1       5.777  28.643  57.361  1.00  0.00     0.182 C 
BRANCH  24  25
HETATM   25  C   UNL     1       4.839  28.661  56.167  1.00  0.00     0.227 C 
HETATM   26  N   UNL     1       5.380  28.252  54.971  1.00  0.00    -0.354 N 
HETATM   27  H   UNL     1       6.289  27.786  54.959  1.00  0.00     0.162 HD
HETATM   28  O   UNL     1       3.696  29.109  56.256  1.00  0.00    -0.273 OA
BRANCH  26  29
HETATM   29  C   UNL     1       4.570  28.199  53.779  1.00  0.00     0.187 C 
BRANCH  29  30
HETATM   30  C   UNL     1       4.783  26.925  53.046  1.00  0.00     0.070 A 
HETATM   31  O   UNL     1       4.920  26.993  51.689  1.00  0.00    -0.325 OA
HETATM   32  C   UNL     1       5.129  25.729  51.243  1.00  0.00     0.142 A 
HETATM   33  C   UNL     1       5.139  24.843  52.294  1.00  0.00     0.027 A 
HETATM   34  C   UNL     1       4.916  25.614  53.461  1.00  0.00     0.036 A 
ENDBRANCH  29  30
ENDBRANCH  26  29
ENDBRANCH  24  25
ENDBRANCH  23  24
ENDBRANCH   4  23
TORSDOF 7
ENDMDL
MODEL 7
REMARK VINA RESULT:      -9.3      3.945      9.866
REMARK  7 active torsions:
REMARK  status: ('A' for Active; 'I' for Inactive)
REMARK    1  A    between atoms: C_3  and  C_4 
REMARK       I    between atoms: C_4  and  N_5 
REMARK    2  A    between atoms: N_5  and  C_6 
REMARK    3  A    between atoms: C_17  and  S_18 
REMARK    4  A    between atoms: S_18  and  C_19 
REMARK    5  A    between atoms: C_19  and  C_20 
REMARK       I    between atoms: C_20  and  N_21 
REMARK    6  A    between atoms: N_21  and  C_22 
REMARK    7  A    between atoms: C_22  and  C_23 
ROOT
HETATM    1  C   UNL     1       8.381  22.155  53.444  1.00  0.00     0.001 A 
HETATM    2  C   UNL     1       7.966  23.402  52.983  1.00  0.00     0.018 A 
HETATM    3  C   UNL     1       7.389  24.327  53.871  1.00  0.00     0.049 A 
HETATM    4  C   UNL     1       7.221  24.002  55.231  1.00  0.00     0.016 A 
HETATM    5  C   UNL     1       7.631  22.734  55.670  1.00  0.00     0.019 A 
HETATM    6  C   UNL     1       8.213  21.821  54.786  1.00  0.00     0.001 A 
ENDROOT
BRANCH   3   7
HETATM    7  C   UNL     1       6.950  25.635  53.324  1.00  0.00     0.257 C 
HETATM    8  N   UNL     1       5.671  25.625  52.794  1.00  0.00    -0.323 N 
HETATM    9  H   UNL     1       5.168  24.747  52.821  1.00  0.00     0.169 HD
HETATM   10  O   UNL     1       7.736  26.574  53.335  1.00  0.00    -0.267 OA
BRANCH   8  11
HETATM   11  C   UNL     1       5.026  26.688  52.123  1.00  0.00     0.037 A 
HETATM   12  C   UNL     1       4.302  27.689  52.783  1.00  0.00     0.061 A 
HETATM   13  C   UNL     1       3.754  28.682  52.006  1.00  0.00     0.065 A 
HETATM   14  C   UNL     1       3.889  28.712  50.622  1.00  0.00     0.063 A 
HETATM   15  N   UNL     1       3.012  29.794  52.389  1.00  0.00    -0.306 N 
HETATM   16  N   UNL     1       3.230  29.842  50.151  1.00  0.00    -0.307 N 
HETATM   17  C   UNL     1       4.579  27.743  49.939  1.00  0.00     0.034 A 
HETATM   18  C   UNL     1       2.679  30.530  51.244  1.00  0.00     0.325 A 
HETATM   19  H   UNL     1       3.146  30.151  49.197  1.00  0.00     0.170 HD
HETATM   20  O   UNL     1       2.040  31.565  51.201  1.00  0.00    -0.247 OA
HETATM   21  C   UNL     1       5.152  26.721  50.709  1.00  0.00     0.032 A 
HETATM   22  H   UNL     1       2.750  30.049  53.328  1.00  0.00     0.170 HD
ENDBRANCH   8  11
ENDBRANCH   3   7
BRANCH   4  23
HETATM   23  S   UNL     1       6.493  25.077  56.467  1.00  0.00    -0.120 SA
BRANCH  23  24
HETATM   24  C   UNL     1       7.975  25.963  57.051  1.00  0.00     0.182 C 
BRANCH  24  25
HETATM   25  C   UNL     1       7.893  27.451  56.759  1.00  0.00     0.227 C 
HETATM   26  N   UNL     1       8.824  28.241  57.390  1.00  0.00    -0.354 N 
HETATM   27  H   UNL     1       9.623  27.808  57.857  1.00  0.00     0.162 HD
HETATM   28  O   UNL     1       6.984  27.920  56.075  1.00  0.00    -0.273 OA
BRANCH  26  29
HETATM   29  C   UNL     1       8.858  29.664  57.160  1.00  0.00     0.187 C 
BRANCH  29  30
HETATM   30  C   UNL     1       9.023  30.407  58.436  1.00  0.00     0.070 A 
HETATM   31  O   UNL     1       8.576  29.805  59.577  1.00  0.00    -0.325 OA
HETATM   32  C   UNL     1       8.853  30.643  60.608  1.00  0.00     0.142 A 
HETATM   33  C   UNL     1       9.482  31.777  60.150  1.00  0.00     0.027 A 
HETATM   34  C   UNL     1       9.593  31.626  58.746  1.00  0.00     0.036 A 
ENDBRANCH  29  30
ENDBRANCH  26  29
ENDBRANCH  24  25
ENDBRANCH  23  24
ENDBRANCH   4  23
TORSDOF 7
ENDMDL
MODEL 8
REMARK VINA RESULT:      -9.3      4.245     10.910
REMARK  7 active torsions:
REMARK  status: ('A' for Active; 'I' for Inactive)
REMARK    1  A    between atoms: C_3  and  C_4 
REMARK       I    between atoms: C_4  and  N_5 
REMARK    2  A    between atoms: N_5  and  C_6 
REMARK    3  A    between atoms: C_17  and  S_18 
REMARK    4  A    between atoms: S_18  and  C_19 
REMARK    5  A    between atoms: C_19  and  C_20 
REMARK       I    between atoms: C_20  and  N_21 
REMARK    6  A    between atoms: N_21  and  C_22 
REMARK    7  A    between atoms: C_22  and  C_23 
ROOT
HETATM    1  C   UNL     1       8.577  22.537  53.582  1.00  0.00     0.001 A 
HETATM    2  C   UNL     1       7.593  23.262  52.913  1.00  0.00     0.018 A 
HETATM    3  C   UNL     1       6.783  24.169  53.619  1.00  0.00     0.049 A 
HETATM    4  C   UNL     1       6.954  24.351  55.005  1.00  0.00     0.016 A 
HETATM    5  C   UNL     1       7.941  23.599  55.660  1.00  0.00     0.019 A 
HETATM    6  C   UNL     1       8.750  22.705  54.953  1.00  0.00     0.001 A 
ENDROOT
BRANCH   3   7
HETATM    7  C   UNL     1       5.740  24.904  52.861  1.00  0.00     0.257 C 
HETATM    8  N   UNL     1       6.239  25.733  51.870  1.00  0.00    -0.323 N 
HETATM    9  H   UNL     1       7.245  25.766  51.761  1.00  0.00     0.169 HD
HETATM   10  O   UNL     1       4.568  24.769  53.186  1.00  0.00    -0.267 OA
BRANCH   8  11
HETATM   11  C   UNL     1       5.500  26.620  51.058  1.00  0.00     0.037 A 
HETATM   12  C   UNL     1       4.814  26.219  49.905  1.00  0.00     0.061 A 
HETATM   13  C   UNL     1       4.106  27.184  49.228  1.00  0.00     0.065 A 
HETATM   14  C   UNL     1       4.062  28.512  49.643  1.00  0.00     0.063 A 
HETATM   15  N   UNL     1       3.331  27.068  48.080  1.00  0.00    -0.306 N 
HETATM   16  N   UNL     1       3.260  29.214  48.750  1.00  0.00    -0.307 N 
HETATM   17  C   UNL     1       4.732  28.945  50.759  1.00  0.00     0.034 A 
HETATM   18  C   UNL     1       2.793  28.325  47.769  1.00  0.00     0.325 A 
HETATM   19  H   UNL     1       3.026  30.192  48.774  1.00  0.00     0.170 HD
HETATM   20  O   UNL     1       2.061  28.595  46.835  1.00  0.00    -0.247 OA
HETATM   21  C   UNL     1       5.458  27.979  51.470  1.00  0.00     0.032 A 
HETATM   22  H   UNL     1       3.165  26.228  47.547  1.00  0.00     0.170 HD
ENDBRANCH   8  11
ENDBRANCH   3   7
BRANCH   4  23
HETATM   23  S   UNL     1       5.989  25.464  56.027  1.00  0.00    -0.120 SA
BRANCH  23  24
HETATM   24  C   UNL     1       7.289  26.120  57.124  1.00  0.00     0.182 C 
BRANCH  24  25
HETATM   25  C   UNL     1       7.751  27.499  56.686  1.00  0.00     0.227 C 
HETATM   26  N   UNL     1       7.956  28.413  57.691  1.00  0.00    -0.354 N 
HETATM   27  H   UNL     1       7.980  28.100  58.664  1.00  0.00     0.162 HD
HETATM   28  O   UNL     1       7.840  27.797  55.495  1.00  0.00    -0.273 OA
BRANCH  26  29
HETATM   29  C   UNL     1       8.426  29.743  57.391  1.00  0.00     0.187 C 
BRANCH  29  30
HETATM   30  C   UNL     1       8.819  30.461  58.630  1.00  0.00     0.070 A 
HETATM   31  O   UNL     1       8.463  29.901  59.824  1.00  0.00    -0.325 OA
HETATM   32  C   UNL     1       8.945  30.705  60.804  1.00  0.00     0.142 A 
HETATM   33  C   UNL     1       9.617  31.775  60.262  1.00  0.00     0.027 A 
HETATM   34  C   UNL     1       9.538  31.619  58.856  1.00  0.00     0.036 A 
ENDBRANCH  29  30
ENDBRANCH  26  29
ENDBRANCH  24  25
ENDBRANCH  23  24
ENDBRANCH   4  23
TORSDOF 7
ENDMDL
MODEL 9
REMARK VINA RESULT:      -9.3      4.979      8.798
REMARK  7 active torsions:
REMARK  status: ('A' for Active; 'I' for Inactive)
REMARK    1  A    between atoms: C_3  and  C_4 
REMARK       I    between atoms: C_4  and  N_5 
REMARK    2  A    between atoms: N_5  and  C_6 
REMARK    3  A    between atoms: C_17  and  S_18 
REMARK    4  A    between atoms: S_18  and  C_19 
REMARK    5  A    between atoms: C_19  and  C_20 
REMARK       I    between atoms: C_20  and  N_21 
REMARK    6  A    between atoms: N_21  and  C_22 
REMARK    7  A    between atoms: C_22  and  C_23 
ROOT
HETATM    1  C   UNL     1       9.133  29.903  58.104  1.00  0.00     0.001 A 
HETATM    2  C   UNL     1       9.048  28.754  57.320  1.00  0.00     0.018 A 
HETATM    3  C   UNL     1       7.800  28.314  56.846  1.00  0.00     0.049 A 
HETATM    4  C   UNL     1       6.625  29.024  57.160  1.00  0.00     0.016 A 
HETATM    5  C   UNL     1       6.732  30.170  57.964  1.00  0.00     0.019 A 
HETATM    6  C   UNL     1       7.976  30.609  58.426  1.00  0.00     0.001 A 
ENDROOT
BRANCH   3   7
HETATM    7  C   UNL     1       7.764  27.075  56.029  1.00  0.00     0.257 C 
HETATM    8  N   UNL     1       7.874  25.909  56.766  1.00  0.00    -0.323 N 
HETATM    9  H   UNL     1       7.973  26.005  57.769  1.00  0.00     0.169 HD
HETATM   10  O   UNL     1       7.695  27.173  54.811  1.00  0.00    -0.267 OA
BRANCH   8  11
HETATM   11  C   UNL     1       7.967  24.593  56.259  1.00  0.00     0.037 A 
HETATM   12  C   UNL     1       7.800  24.276  54.906  1.00  0.00     0.061 A 
HETATM   13  C   UNL     1       7.952  22.957  54.547  1.00  0.00     0.065 A 
HETATM   14  C   UNL     1       8.249  21.959  55.469  1.00  0.00     0.063 A 
HETATM   15  N   UNL     1       7.860  22.368  53.291  1.00  0.00    -0.306 N 
HETATM   16  N   UNL     1       8.341  20.754  54.782  1.00  0.00    -0.307 N 
HETATM   17  C   UNL     1       8.406  22.229  56.805  1.00  0.00     0.034 A 
HETATM   18  C   UNL     1       8.103  20.994  53.419  1.00  0.00     0.325 A 
HETATM   19  H   UNL     1       8.547  19.845  55.161  1.00  0.00     0.170 HD
HETATM   20  O   UNL     1       8.111  20.167  52.525  1.00  0.00    -0.247 OA
HETATM   21  C   UNL     1       8.261  23.567  57.196  1.00  0.00     0.032 A 
HETATM   22  H   UNL     1       7.659  22.834  52.420  1.00  0.00     0.170 HD
ENDBRANCH   8  11
ENDBRANCH   3   7
BRANCH   4  23
HETATM   23  S   UNL     1       4.972  28.572  56.633  1.00  0.00    -0.120 SA
BRANCH  23  24
HETATM   24  C   UNL     1       4.571  29.982  55.549  1.00  0.00     0.182 C 
BRANCH  24  25
HETATM   25  C   UNL     1       4.496  29.568  54.090  1.00  0.00     0.227 C 
HETATM   26  N   UNL     1       5.553  28.825  53.620  1.00  0.00    -0.354 N 
HETATM   27  H   UNL     1       6.225  28.427  54.278  1.00  0.00     0.162 HD
HETATM   28  O   UNL     1       3.588  29.961  53.358  1.00  0.00    -0.273 OA
BRANCH  26  29
HETATM   29  C   UNL     1       5.570  28.352  52.258  1.00  0.00     0.187 C 
BRANCH  29  30
HETATM   30  C   UNL     1       5.301  26.892  52.198  1.00  0.00     0.070 A 
HETATM   31  O   UNL     1       4.959  26.266  53.362  1.00  0.00    -0.325 OA
HETATM   32  C   UNL     1       4.736  24.961  53.065  1.00  0.00     0.142 A 
HETATM   33  C   UNL     1       4.920  24.735  51.722  1.00  0.00     0.027 A 
HETATM   34  C   UNL     1       5.285  25.982  51.158  1.00  0.00     0.036 A 
ENDBRANCH  29  30
ENDBRANCH  26  29
ENDBRANCH  24  25
ENDBRANCH  23  24
ENDBRANCH   4  23
TORSDOF 7
ENDMDL
MODEL 10
REMARK VINA RESULT:      -9.2      5.696     10.275
REMARK  7 active torsions:
REMARK  status: ('A' for Active; 'I' for Inactive)
REMARK    1  A    between atoms: C_3  and  C_4 
REMARK       I    between atoms: C_4  and  N_5 
REMARK    2  A    between atoms: N_5  and  C_6 
REMARK    3  A    between atoms: C_17  and  S_18 
REMARK    4  A    between atoms: S_18  and  C_19 
REMARK    5  A    between atoms: C_19  and  C_20 
REMARK       I    between atoms: C_20  and  N_21 
REMARK    6  A    between atoms: N_21  and  C_22 
REMARK    7  A    between atoms: C_22  and  C_23 
ROOT
HETATM    1  C   UNL     1       4.348  26.478  48.166  1.00  0.00     0.001 A 
HETATM    2  C   UNL     1       4.631  25.868  49.386  1.00  0.00     0.018 A 
HETATM    3  C   UNL     1       4.950  26.650  50.510  1.00  0.00     0.049 A 
HETATM    4  C   UNL     1       4.990  28.055  50.414  1.00  0.00     0.016 A 
HETATM    5  C   UNL     1       4.715  28.647  49.172  1.00  0.00     0.019 A 
HETATM    6  C   UNL     1       4.390  27.866  48.059  1.00  0.00     0.001 A 
ENDROOT
BRANCH   3   7
HETATM    7  C   UNL     1       5.259  25.948  51.781  1.00  0.00     0.257 C 
HETATM    8  N   UNL     1       6.582  25.556  51.902  1.00  0.00    -0.323 N 
HETATM    9  H   UNL     1       7.199  25.773  51.129  1.00  0.00     0.169 HD
HETATM   10  O   UNL     1       4.352  25.731  52.572  1.00  0.00    -0.267 OA
BRANCH   8  11
HETATM   11  C   UNL     1       7.145  24.792  52.948  1.00  0.00     0.037 A 
HETATM   12  C   UNL     1       7.554  23.462  52.797  1.00  0.00     0.061 A 
HETATM   13  C   UNL     1       8.118  22.850  53.891  1.00  0.00     0.065 A 
HETATM   14  C   UNL     1       8.279  23.497  55.112  1.00  0.00     0.063 A 
HETATM   15  N   UNL     1       8.622  21.560  54.020  1.00  0.00    -0.306 N 
HETATM   16  N   UNL     1       8.882  22.607  55.993  1.00  0.00    -0.307 N 
HETATM   17  C   UNL     1       7.879  24.795  55.303  1.00  0.00     0.034 A 
HETATM   18  C   UNL     1       9.105  21.393  55.325  1.00  0.00     0.325 A 
HETATM   19  H   UNL     1       9.137  22.771  56.953  1.00  0.00     0.170 HD
HETATM   20  O   UNL     1       9.621  20.393  55.790  1.00  0.00    -0.247 OA
HETATM   21  C   UNL     1       7.304  25.443  54.200  1.00  0.00     0.032 A 
HETATM   22  H   UNL     1       8.649  20.850  53.305  1.00  0.00     0.170 HD
ENDBRANCH   8  11
ENDBRANCH   3   7
BRANCH   4  23
HETATM   23  S   UNL     1       5.389  29.170  51.759  1.00  0.00    -0.120 SA
BRANCH  23  24
HETATM   24  C   UNL     1       3.801  29.196  52.653  1.00  0.00     0.182 C 
BRANCH  24  25
HETATM   25  C   UNL     1       4.001  29.159  54.159  1.00  0.00     0.227 C 
HETATM   26  N   UNL     1       4.515  27.991  54.669  1.00  0.00    -0.354 N 
HETATM   27  H   UNL     1       4.910  27.292  54.037  1.00  0.00     0.162 HD
HETATM   28  O   UNL     1       3.631  30.087  54.877  1.00  0.00    -0.273 OA
BRANCH  26  29
HETATM   29  C   UNL     1       4.775  27.857  56.081  1.00  0.00     0.187 C 
BRANCH  29  30
HETATM   30  C   UNL     1       6.215  28.060  56.379  1.00  0.00     0.070 A 
HETATM   31  O   UNL     1       6.973  28.687  55.431  1.00  0.00    -0.325 OA
HETATM   32  C   UNL     1       8.233  28.785  55.925  1.00  0.00     0.142 A 
HETATM   33  C   UNL     1       8.299  28.240  57.186  1.00  0.00     0.027 A 
HETATM   34  C   UNL     1       6.996  27.771  57.482  1.00  0.00     0.036 A 
ENDBRANCH  29  30
ENDBRANCH  26  29
ENDBRANCH  24  25
ENDBRANCH  23  24
ENDBRANCH   4  23
TORSDOF 7
ENDMDL
