MODEL 1
REMARK VINA RESULT:     -10.1      0.000      0.000
REMARK  3 active torsions:
REMARK  status: ('A' for Active; 'I' for Inactive)
REMARK    1  A    between atoms: C_6  and  N_7 
REMARK    2  A    between atoms: N_7  and  N_8 
REMARK    3  A    between atoms: C_9  and  C_10 
ROOT
HETATM    1  C   UNL     1       7.088  27.092  55.129  1.00  0.00     0.024 A 
HETATM    2  C   UNL     1       6.745  26.764  53.828  1.00  0.00     0.138 A 
HETATM    3 CL   UNL     1       6.168  27.905  52.678  1.00  0.00    -0.061 Cl
HETATM    4  N   UNL     1       6.826  25.512  53.316  1.00  0.00    -0.235 NA
HETATM    5  C   UNL     1       7.266  24.525  54.115  1.00  0.00     0.071 A 
HETATM    6  C   UNL     1       7.639  24.758  55.457  1.00  0.00    -0.004 A 
HETATM    7  C   UNL     1       7.542  26.062  55.954  1.00  0.00     0.030 A 
HETATM    8  C   UNL     1       7.368  23.231  53.621  1.00  0.00     0.072 A 
HETATM    9  C   UNL     1       7.828  22.183  54.420  1.00  0.00     0.104 A 
HETATM   10  C   UNL     1       8.168  22.415  55.751  1.00  0.00     0.103 A 
HETATM   11  O   UNL     1       8.596  21.434  56.606  1.00  0.00    -0.346 OA
HETATM   12  C   UNL     1       8.318  20.129  56.083  1.00  0.00     0.202 C 
HETATM   13  C   UNL     1       8.705  20.046  54.615  1.00  0.00     0.202 C 
HETATM   14  O   UNL     1       7.913  20.947  53.831  1.00  0.00    -0.346 OA
HETATM   15  C   UNL     1       8.089  23.704  56.268  1.00  0.00     0.053 A 
ENDROOT
BRANCH   1  16
HETATM   16  C   UNL     1       6.992  28.465  55.661  1.00  0.00     0.154 C 
HETATM   17  N   UNL     1       7.361  28.721  56.877  1.00  0.00    -0.172 NA
BRANCH  17  18
HETATM   18  N   UNL     1       7.234  30.017  57.271  1.00  0.00    -0.108 N 
HETATM   19  H   UNL     1       6.926  30.743  56.625  1.00  0.00     0.208 HD
BRANCH  18  20
HETATM   20  C   UNL     1       7.516  30.427  58.525  1.00  0.00     0.721 A 
HETATM   21  N   UNL     1       8.474  30.032  59.328  1.00  0.00    -0.061 NA
HETATM   22  C   UNL     1       8.302  30.769  60.480  1.00  0.00     0.103 A 
HETATM   23  C   UNL     1       7.214  31.629  60.368  1.00  0.00     0.078 A 
HETATM   24  C   UNL     1       9.040  30.758  61.673  1.00  0.00     0.034 A 
HETATM   25  C   UNL     1       6.805  32.495  61.383  1.00  0.00     0.032 A 
HETATM   26  N   UNL     1       6.736  31.386  59.112  1.00  0.00    -0.186 N 
HETATM   27  C   UNL     1       7.554  32.469  62.565  1.00  0.00     0.002 A 
HETATM   28  C   UNL     1       8.653  31.617  62.710  1.00  0.00     0.002 A 
HETATM   29  H   UNL     1       5.949  31.813  58.650  1.00  0.00     0.184 HD
ENDBRANCH  18  20
ENDBRANCH  17  18
ENDBRANCH   1  16
TORSDOF 3
ENDMDL
MODEL 2
REMARK VINA RESULT:      -9.9      3.435      9.272
REMARK  3 active torsions:
REMARK  status: ('A' for Active; 'I' for Inactive)
REMARK    1  A    between atoms: C_6  and  N_7 
REMARK    2  A    between atoms: N_7  and  N_8 
REMARK    3  A    between atoms: C_9  and  C_10 
ROOT
HETATM    1  C   UNL     1       6.514  28.845  55.663  1.00  0.00     0.024 A 
HETATM    2  C   UNL     1       5.565  29.851  55.723  1.00  0.00     0.138 A 
HETATM    3 CL   UNL     1       4.329  30.068  54.546  1.00  0.00    -0.061 Cl
HETATM    4  N   UNL     1       5.503  30.777  56.711  1.00  0.00    -0.235 NA
HETATM    5  C   UNL     1       6.415  30.718  57.697  1.00  0.00     0.071 A 
HETATM    6  C   UNL     1       7.423  29.729  57.726  1.00  0.00    -0.004 A 
HETATM    7  C   UNL     1       7.458  28.790  56.689  1.00  0.00     0.030 A 
HETATM    8  C   UNL     1       6.376  31.646  58.729  1.00  0.00     0.072 A 
HETATM    9  C   UNL     1       7.302  31.609  59.773  1.00  0.00     0.104 A 
HETATM   10  C   UNL     1       8.311  30.647  59.780  1.00  0.00     0.103 A 
HETATM   11  O   UNL     1       9.274  30.567  60.751  1.00  0.00    -0.346 OA
HETATM   12  C   UNL     1       9.328  31.767  61.532  1.00  0.00     0.202 C 
HETATM   13  C   UNL     1       7.929  32.217  61.920  1.00  0.00     0.202 C 
HETATM   14  O   UNL     1       7.165  32.556  60.755  1.00  0.00    -0.346 OA
HETATM   15  C   UNL     1       8.364  29.697  58.767  1.00  0.00     0.053 A 
ENDROOT
BRANCH   1  16
HETATM   16  C   UNL     1       6.557  27.849  54.576  1.00  0.00     0.154 C 
HETATM   17  N   UNL     1       7.616  27.122  54.398  1.00  0.00    -0.172 NA
BRANCH  17  18
HETATM   18  N   UNL     1       7.555  26.233  53.371  1.00  0.00    -0.108 N 
HETATM   19  H   UNL     1       7.423  26.540  52.408  1.00  0.00     0.208 HD
BRANCH  18  20
HETATM   20  C   UNL     1       7.655  24.900  53.555  1.00  0.00     0.721 A 
HETATM   21  N   UNL     1       7.803  23.950  52.663  1.00  0.00    -0.061 NA
HETATM   22  C   UNL     1       7.845  22.780  53.389  1.00  0.00     0.103 A 
HETATM   23  C   UNL     1       7.721  23.030  54.752  1.00  0.00     0.078 A 
HETATM   24  C   UNL     1       7.988  21.455  52.951  1.00  0.00     0.034 A 
HETATM   25  C   UNL     1       7.730  22.030  55.726  1.00  0.00     0.032 A 
HETATM   26  N   UNL     1       7.601  24.389  54.824  1.00  0.00    -0.186 N 
HETATM   27  C   UNL     1       7.873  20.715  55.269  1.00  0.00     0.002 A 
HETATM   28  C   UNL     1       8.001  20.430  53.906  1.00  0.00     0.002 A 
HETATM   29  H   UNL     1       7.491  24.964  55.644  1.00  0.00     0.184 HD
ENDBRANCH  18  20
ENDBRANCH  17  18
ENDBRANCH   1  16
TORSDOF 3
ENDMDL
MODEL 3
REMARK VINA RESULT:      -9.6      1.629      2.330
REMARK  3 active torsions:
REMARK  status: ('A' for Active; 'I' for Inactive)
REMARK    1  A    between atoms: C_6  and  N_7 
REMARK    2  A    between atoms: N_7  and  N_8 
REMARK    3  A    between atoms: C_9  and  C_10 
ROOT
HETATM    1  C   UNL     1       7.523  26.748  56.829  1.00  0.00     0.024 A 
HETATM    2  C   UNL     1       6.891  26.948  55.613  1.00  0.00     0.138 A 
HETATM    3 CL   UNL     1       6.118  28.419  55.170  1.00  0.00    -0.061 Cl
HETATM    4  N   UNL     1       6.811  26.010  54.638  1.00  0.00    -0.235 NA
HETATM    5  C   UNL     1       7.379  24.811  54.858  1.00  0.00     0.071 A 
HETATM    6  C   UNL     1       8.045  24.510  56.067  1.00  0.00    -0.004 A 
HETATM    7  C   UNL     1       8.109  25.501  57.052  1.00  0.00     0.030 A 
HETATM    8  C   UNL     1       7.321  23.830  53.878  1.00  0.00     0.072 A 
HETATM    9  C   UNL     1       7.906  22.577  54.071  1.00  0.00     0.104 A 
HETATM   10  C   UNL     1       8.538  22.278  55.276  1.00  0.00     0.103 A 
HETATM   11  O   UNL     1       9.107  21.062  55.552  1.00  0.00    -0.346 OA
HETATM   12  C   UNL     1       8.672  20.060  54.623  1.00  0.00     0.202 C 
HETATM   13  C   UNL     1       8.725  20.591  53.200  1.00  0.00     0.202 C 
HETATM   14  O   UNL     1       7.813  21.685  53.033  1.00  0.00    -0.346 OA
HETATM   15  C   UNL     1       8.623  23.247  56.269  1.00  0.00     0.053 A 
ENDROOT
BRANCH   1  16
HETATM   16  C   UNL     1       7.598  27.787  57.873  1.00  0.00     0.154 C 
HETATM   17  N   UNL     1       8.464  28.746  57.778  1.00  0.00    -0.172 NA
BRANCH  17  18
HETATM   18  N   UNL     1       8.452  29.655  58.791  1.00  0.00    -0.108 N 
HETATM   19  H   UNL     1       9.149  29.634  59.534  1.00  0.00     0.208 HD
BRANCH  18  20
HETATM   20  C   UNL     1       7.521  30.626  58.885  1.00  0.00     0.721 A 
HETATM   21  N   UNL     1       6.778  31.155  57.942  1.00  0.00    -0.061 NA
HETATM   22  C   UNL     1       6.006  32.100  58.582  1.00  0.00     0.103 A 
HETATM   23  C   UNL     1       6.289  32.142  59.943  1.00  0.00     0.078 A 
HETATM   24  C   UNL     1       5.034  32.968  58.062  1.00  0.00     0.034 A 
HETATM   25  C   UNL     1       5.657  33.006  60.838  1.00  0.00     0.032 A 
HETATM   26  N   UNL     1       7.258  31.192  60.103  1.00  0.00    -0.186 N 
HETATM   27  C   UNL     1       4.691  33.865  60.301  1.00  0.00     0.002 A 
HETATM   28  C   UNL     1       4.382  33.847  58.937  1.00  0.00     0.002 A 
HETATM   29  H   UNL     1       7.728  30.917  60.951  1.00  0.00     0.184 HD
ENDBRANCH  18  20
ENDBRANCH  17  18
ENDBRANCH   1  16
TORSDOF 3
ENDMDL
MODEL 4
REMARK VINA RESULT:      -9.3      6.026     11.401
REMARK  3 active torsions:
REMARK  status: ('A' for Active; 'I' for Inactive)
REMARK    1  A    between atoms: C_6  and  N_7 
REMARK    2  A    between atoms: N_7  and  N_8 
REMARK    3  A    between atoms: C_9  and  C_10 
ROOT
HETATM    1  C   UNL     1       6.897  32.419  61.539  1.00  0.00     0.024 A 
HETATM    2  C   UNL     1       5.522  32.555  61.459  1.00  0.00     0.138 A 
HETATM    3 CL   UNL     1       4.613  32.234  60.034  1.00  0.00    -0.061 Cl
HETATM    4  N   UNL     1       4.738  32.956  62.490  1.00  0.00    -0.235 NA
HETATM    5  C   UNL     1       5.327  33.238  63.664  1.00  0.00     0.071 A 
HETATM    6  C   UNL     1       6.724  33.130  63.847  1.00  0.00    -0.004 A 
HETATM    7  C   UNL     1       7.502  32.714  62.761  1.00  0.00     0.030 A 
HETATM    8  C   UNL     1       4.554  33.644  64.744  1.00  0.00     0.072 A 
HETATM    9  C   UNL     1       5.132  33.937  65.980  1.00  0.00     0.104 A 
HETATM   10  C   UNL     1       6.513  33.855  66.145  1.00  0.00     0.103 A 
HETATM   11  O   UNL     1       7.156  34.158  67.316  1.00  0.00    -0.346 OA
HETATM   12  C   UNL     1       6.301  34.886  68.207  1.00  0.00     0.202 C 
HETATM   13  C   UNL     1       4.923  34.247  68.268  1.00  0.00     0.202 C 
HETATM   14  O   UNL     1       4.279  34.309  66.989  1.00  0.00    -0.346 OA
HETATM   15  C   UNL     1       7.309  33.437  65.085  1.00  0.00     0.053 A 
ENDROOT
BRANCH   1  16
HETATM   16  C   UNL     1       7.726  31.978  60.401  1.00  0.00     0.154 C 
HETATM   17  N   UNL     1       8.278  30.806  60.410  1.00  0.00    -0.172 NA
BRANCH  17  18
HETATM   18  N   UNL     1       9.021  30.494  59.314  1.00  0.00    -0.108 N 
HETATM   19  H   UNL     1       9.986  30.806  59.219  1.00  0.00     0.208 HD
BRANCH  18  20
HETATM   20  C   UNL     1       8.533  29.770  58.287  1.00  0.00     0.721 A 
HETATM   21  N   UNL     1       8.900  29.769  57.027  1.00  0.00    -0.061 NA
HETATM   22  C   UNL     1       8.076  28.850  56.414  1.00  0.00     0.103 A 
HETATM   23  C   UNL     1       7.192  28.281  57.326  1.00  0.00     0.078 A 
HETATM   24  C   UNL     1       8.023  28.444  55.073  1.00  0.00     0.034 A 
HETATM   25  C   UNL     1       6.242  27.318  56.985  1.00  0.00     0.032 A 
HETATM   26  N   UNL     1       7.509  28.889  58.509  1.00  0.00    -0.186 N 
HETATM   27  C   UNL     1       6.204  26.927  55.642  1.00  0.00     0.002 A 
HETATM   28  C   UNL     1       7.078  27.478  54.700  1.00  0.00     0.002 A 
HETATM   29  H   UNL     1       7.092  28.747  59.415  1.00  0.00     0.184 HD
ENDBRANCH  18  20
ENDBRANCH  17  18
ENDBRANCH   1  16
TORSDOF 3
ENDMDL
MODEL 5
REMARK VINA RESULT:      -9.2      4.822      8.838
REMARK  3 active torsions:
REMARK  status: ('A' for Active; 'I' for Inactive)
REMARK    1  A    between atoms: C_6  and  N_7 
REMARK    2  A    between atoms: N_7  and  N_8 
REMARK    3  A    between atoms: C_9  and  C_10 
ROOT
HETATM    1  C   UNL     1       6.540  26.509  53.048  1.00  0.00     0.024 A 
HETATM    2  C   UNL     1       6.718  26.807  54.389  1.00  0.00     0.138 A 
HETATM    3 CL   UNL     1       6.452  28.367  55.062  1.00  0.00    -0.061 Cl
HETATM    4  N   UNL     1       7.122  25.907  55.318  1.00  0.00    -0.235 NA
HETATM    5  C   UNL     1       7.363  24.646  54.920  1.00  0.00     0.071 A 
HETATM    6  C   UNL     1       7.211  24.243  53.575  1.00  0.00    -0.004 A 
HETATM    7  C   UNL     1       6.794  25.198  52.642  1.00  0.00     0.030 A 
HETATM    8  C   UNL     1       7.771  23.696  55.847  1.00  0.00     0.072 A 
HETATM    9  C   UNL     1       8.023  22.376  55.470  1.00  0.00     0.104 A 
HETATM   10  C   UNL     1       7.897  21.992  54.136  1.00  0.00     0.103 A 
HETATM   11  O   UNL     1       8.158  20.726  53.685  1.00  0.00    -0.346 OA
HETATM   12  C   UNL     1       8.893  19.967  54.653  1.00  0.00     0.202 C 
HETATM   13  C   UNL     1       8.294  20.144  56.039  1.00  0.00     0.202 C 
HETATM   14  O   UNL     1       8.400  21.509  56.465  1.00  0.00    -0.346 OA
HETATM   15  C   UNL     1       7.477  22.919  53.190  1.00  0.00     0.053 A 
ENDROOT
BRANCH   1  16
HETATM   16  C   UNL     1       6.098  27.508  52.058  1.00  0.00     0.154 C 
HETATM   17  N   UNL     1       5.692  27.131  50.886  1.00  0.00    -0.172 NA
BRANCH  17  18
HETATM   18  N   UNL     1       5.305  28.129  50.046  1.00  0.00    -0.108 N 
HETATM   19  H   UNL     1       5.826  29.002  49.980  1.00  0.00     0.208 HD
BRANCH  18  20
HETATM   20  C   UNL     1       4.211  28.035  49.262  1.00  0.00     0.721 A 
HETATM   21  N   UNL     1       3.469  26.987  48.998  1.00  0.00    -0.061 NA
HETATM   22  C   UNL     1       2.489  27.446  48.145  1.00  0.00     0.103 A 
HETATM   23  C   UNL     1       2.643  28.805  47.889  1.00  0.00     0.078 A 
HETATM   24  C   UNL     1       1.426  26.757  47.543  1.00  0.00     0.034 A 
HETATM   25  C   UNL     1       1.794  29.537  47.058  1.00  0.00     0.032 A 
HETATM   26  N   UNL     1       3.749  29.149  48.615  1.00  0.00    -0.186 N 
HETATM   27  C   UNL     1       0.739  28.831  46.466  1.00  0.00     0.002 A 
HETATM   28  C   UNL     1       0.556  27.466  46.703  1.00  0.00     0.002 A 
HETATM   29  H   UNL     1       4.187  30.053  48.694  1.00  0.00     0.184 HD
ENDBRANCH  18  20
ENDBRANCH  17  18
ENDBRANCH   1  16
TORSDOF 3
ENDMDL
MODEL 6
REMARK VINA RESULT:      -9.1      1.697      2.520
REMARK  3 active torsions:
REMARK  status: ('A' for Active; 'I' for Inactive)
REMARK    1  A    between atoms: C_6  and  N_7 
REMARK    2  A    between atoms: N_7  and  N_8 
REMARK    3  A    between atoms: C_9  and  C_10 
ROOT
HETATM    1  C   UNL     1       6.396  28.920  56.377  1.00  0.00     0.024 A 
HETATM    2  C   UNL     1       5.660  28.557  55.262  1.00  0.00     0.138 A 
HETATM    3 CL   UNL     1       4.650  29.643  54.390  1.00  0.00    -0.061 Cl
HETATM    4  N   UNL     1       5.651  27.309  54.733  1.00  0.00    -0.235 NA
HETATM    5  C   UNL     1       6.402  26.363  55.322  1.00  0.00     0.071 A 
HETATM    6  C   UNL     1       7.188  26.634  56.464  1.00  0.00    -0.004 A 
HETATM    7  C   UNL     1       7.173  27.932  56.984  1.00  0.00     0.030 A 
HETATM    8  C   UNL     1       6.422  25.075  54.803  1.00  0.00     0.072 A 
HETATM    9  C   UNL     1       7.197  24.070  55.384  1.00  0.00     0.104 A 
HETATM   10  C   UNL     1       7.948  24.338  56.527  1.00  0.00     0.103 A 
HETATM   11  O   UNL     1       8.707  23.398  57.172  1.00  0.00    -0.346 OA
HETATM   12  C   UNL     1       8.361  22.072  56.754  1.00  0.00     0.202 C 
HETATM   13  C   UNL     1       8.237  22.003  55.240  1.00  0.00     0.202 C 
HETATM   14  O   UNL     1       7.165  22.838  54.782  1.00  0.00    -0.346 OA
HETATM   15  C   UNL     1       7.958  25.622  57.059  1.00  0.00     0.053 A 
ENDROOT
BRANCH   1  16
HETATM   16  C   UNL     1       6.389  30.287  56.930  1.00  0.00     0.154 C 
HETATM   17  N   UNL     1       5.685  30.562  57.983  1.00  0.00    -0.172 NA
BRANCH  17  18
HETATM   18  N   UNL     1       5.747  31.850  58.415  1.00  0.00    -0.108 N 
HETATM   19  H   UNL     1       5.579  32.632  57.784  1.00  0.00     0.208 HD
BRANCH  18  20
HETATM   20  C   UNL     1       6.041  32.176  59.690  1.00  0.00     0.721 A 
HETATM   21  N   UNL     1       5.333  32.866  60.552  1.00  0.00    -0.061 NA
HETATM   22  C   UNL     1       6.098  32.903  61.698  1.00  0.00     0.103 A 
HETATM   23  C   UNL     1       7.296  32.217  61.523  1.00  0.00     0.078 A 
HETATM   24  C   UNL     1       5.835  33.506  62.936  1.00  0.00     0.034 A 
HETATM   25  C   UNL     1       8.267  32.090  62.517  1.00  0.00     0.032 A 
HETATM   26  N   UNL     1       7.228  31.767  60.234  1.00  0.00    -0.186 N 
HETATM   27  C   UNL     1       7.986  32.700  63.746  1.00  0.00     0.002 A 
HETATM   28  C   UNL     1       6.791  33.395  63.954  1.00  0.00     0.002 A 
HETATM   29  H   UNL     1       7.908  31.224  59.726  1.00  0.00     0.184 HD
ENDBRANCH  18  20
ENDBRANCH  17  18
ENDBRANCH   1  16
TORSDOF 3
ENDMDL
MODEL 7
REMARK VINA RESULT:      -8.9      4.938      9.878
REMARK  3 active torsions:
REMARK  status: ('A' for Active; 'I' for Inactive)
REMARK    1  A    between atoms: C_6  and  N_7 
REMARK    2  A    between atoms: N_7  and  N_8 
REMARK    3  A    between atoms: C_9  and  C_10 
ROOT
HETATM    1  C   UNL     1       6.383  26.508  54.092  1.00  0.00     0.024 A 
HETATM    2  C   UNL     1       7.214  25.755  54.904  1.00  0.00     0.138 A 
HETATM    3 CL   UNL     1       7.695  24.144  54.543  1.00  0.00    -0.061 Cl
HETATM    4  N   UNL     1       7.742  26.201  56.070  1.00  0.00    -0.235 NA
HETATM    5  C   UNL     1       7.443  27.450  56.467  1.00  0.00     0.071 A 
HETATM    6  C   UNL     1       6.603  28.296  55.709  1.00  0.00    -0.004 A 
HETATM    7  C   UNL     1       6.076  27.804  54.511  1.00  0.00     0.030 A 
HETATM    8  C   UNL     1       7.971  27.942  57.654  1.00  0.00     0.072 A 
HETATM    9  C   UNL     1       7.689  29.236  58.092  1.00  0.00     0.104 A 
HETATM   10  C   UNL     1       6.838  30.056  57.353  1.00  0.00     0.103 A 
HETATM   11  O   UNL     1       6.488  31.324  57.734  1.00  0.00    -0.346 OA
HETATM   12  C   UNL     1       6.805  31.561  59.111  1.00  0.00     0.202 C 
HETATM   13  C   UNL     1       8.202  31.056  59.433  1.00  0.00     0.202 C 
HETATM   14  O   UNL     1       8.278  29.634  59.265  1.00  0.00    -0.346 OA
HETATM   15  C   UNL     1       6.306  29.594  56.154  1.00  0.00     0.053 A 
ENDROOT
BRANCH   1  16
HETATM   16  C   UNL     1       5.824  25.999  52.825  1.00  0.00     0.154 C 
HETATM   17  N   UNL     1       6.092  26.596  51.707  1.00  0.00    -0.172 NA
BRANCH  17  18
HETATM   18  N   UNL     1       5.530  26.048  50.596  1.00  0.00    -0.108 N 
HETATM   19  H   UNL     1       5.840  25.149  50.230  1.00  0.00     0.208 HD
BRANCH  18  20
HETATM   20  C   UNL     1       4.542  26.655  49.906  1.00  0.00     0.721 A 
HETATM   21  N   UNL     1       4.155  27.907  49.943  1.00  0.00    -0.061 NA
HETATM   22  C   UNL     1       3.112  27.988  49.046  1.00  0.00     0.103 A 
HETATM   23  C   UNL     1       2.865  26.754  48.452  1.00  0.00     0.078 A 
HETATM   24  C   UNL     1       2.322  29.087  48.683  1.00  0.00     0.034 A 
HETATM   25  C   UNL     1       1.865  26.539  47.503  1.00  0.00     0.032 A 
HETATM   26  N   UNL     1       3.792  25.927  49.021  1.00  0.00    -0.186 N 
HETATM   27  C   UNL     1       1.086  27.648  47.154  1.00  0.00     0.002 A 
HETATM   28  C   UNL     1       1.309  28.902  47.732  1.00  0.00     0.002 A 
HETATM   29  H   UNL     1       3.940  24.945  48.853  1.00  0.00     0.184 HD
ENDBRANCH  18  20
ENDBRANCH  17  18
ENDBRANCH   1  16
TORSDOF 3
ENDMDL
MODEL 8
REMARK VINA RESULT:      -8.8      4.743     10.342
REMARK  3 active torsions:
REMARK  status: ('A' for Active; 'I' for Inactive)
REMARK    1  A    between atoms: C_6  and  N_7 
REMARK    2  A    between atoms: N_7  and  N_8 
REMARK    3  A    between atoms: C_9  and  C_10 
ROOT
HETATM    1  C   UNL     1       5.592  31.274  58.072  1.00  0.00     0.024 A 
HETATM    2  C   UNL     1       4.228  31.199  58.302  1.00  0.00     0.138 A 
HETATM    3 CL   UNL     1       3.103  30.559  57.168  1.00  0.00    -0.061 Cl
HETATM    4  N   UNL     1       3.628  31.619  59.442  1.00  0.00    -0.235 NA
HETATM    5  C   UNL     1       4.398  32.140  60.412  1.00  0.00     0.071 A 
HETATM    6  C   UNL     1       5.799  32.260  60.273  1.00  0.00    -0.004 A 
HETATM    7  C   UNL     1       6.385  31.817  59.083  1.00  0.00     0.030 A 
HETATM    8  C   UNL     1       3.817  32.575  61.596  1.00  0.00     0.072 A 
HETATM    9  C   UNL     1       4.588  33.114  62.627  1.00  0.00     0.104 A 
HETATM   10  C   UNL     1       5.966  33.254  62.472  1.00  0.00     0.103 A 
HETATM   11  O   UNL     1       6.783  33.803  63.424  1.00  0.00    -0.346 OA
HETATM   12  C   UNL     1       6.028  34.515  64.413  1.00  0.00     0.202 C 
HETATM   13  C   UNL     1       4.826  33.699  64.858  1.00  0.00     0.202 C 
HETATM   14  O   UNL     1       3.921  33.492  63.765  1.00  0.00    -0.346 OA
HETATM   15  C   UNL     1       6.575  32.815  61.303  1.00  0.00     0.053 A 
ENDROOT
BRANCH   1  16
HETATM   16  C   UNL     1       6.219  30.807  56.821  1.00  0.00     0.154 C 
HETATM   17  N   UNL     1       6.346  29.538  56.589  1.00  0.00    -0.172 NA
BRANCH  17  18
HETATM   18  N   UNL     1       6.937  29.210  55.408  1.00  0.00    -0.108 N 
HETATM   19  H   UNL     1       7.259  29.925  54.757  1.00  0.00     0.208 HD
BRANCH  18  20
HETATM   20  C   UNL     1       7.125  27.932  55.019  1.00  0.00     0.721 A 
HETATM   21  N   UNL     1       7.109  26.837  55.740  1.00  0.00    -0.061 NA
HETATM   22  C   UNL     1       7.358  25.817  54.848  1.00  0.00     0.103 A 
HETATM   23  C   UNL     1       7.527  26.308  53.557  1.00  0.00     0.078 A 
HETATM   24  C   UNL     1       7.456  24.435  55.067  1.00  0.00     0.034 A 
HETATM   25  C   UNL     1       7.791  25.501  52.450  1.00  0.00     0.032 A 
HETATM   26  N   UNL     1       7.372  27.658  53.701  1.00  0.00    -0.186 N 
HETATM   27  C   UNL     1       7.886  24.125  52.690  1.00  0.00     0.002 A 
HETATM   28  C   UNL     1       7.721  23.598  53.974  1.00  0.00     0.002 A 
HETATM   29  H   UNL     1       7.422  28.371  52.991  1.00  0.00     0.184 HD
ENDBRANCH  18  20
ENDBRANCH  17  18
ENDBRANCH   1  16
TORSDOF 3
ENDMDL
MODEL 9
REMARK VINA RESULT:      -8.7      4.372      7.825
REMARK  3 active torsions:
REMARK  status: ('A' for Active; 'I' for Inactive)
REMARK    1  A    between atoms: C_6  and  N_7 
REMARK    2  A    between atoms: N_7  and  N_8 
REMARK    3  A    between atoms: C_9  and  C_10 
ROOT
HETATM    1  C   UNL     1       6.040  26.808  54.408  1.00  0.00     0.024 A 
HETATM    2  C   UNL     1       6.311  26.838  55.765  1.00  0.00     0.138 A 
HETATM    3 CL   UNL     1       6.012  28.203  56.768  1.00  0.00    -0.061 Cl
HETATM    4  N   UNL     1       6.841  25.798  56.455  1.00  0.00    -0.235 NA
HETATM    5  C   UNL     1       7.121  24.667  55.786  1.00  0.00     0.071 A 
HETATM    6  C   UNL     1       6.882  24.538  54.399  1.00  0.00    -0.004 A 
HETATM    7  C   UNL     1       6.335  25.631  53.719  1.00  0.00     0.030 A 
HETATM    8  C   UNL     1       7.659  23.580  56.462  1.00  0.00     0.072 A 
HETATM    9  C   UNL     1       7.954  22.387  55.800  1.00  0.00     0.104 A 
HETATM   10  C   UNL     1       7.741  22.277  54.427  1.00  0.00     0.103 A 
HETATM   11  O   UNL     1       8.036  21.152  53.703  1.00  0.00    -0.346 OA
HETATM   12  C   UNL     1       8.891  20.268  54.438  1.00  0.00     0.202 C 
HETATM   13  C   UNL     1       8.400  20.113  55.868  1.00  0.00     0.202 C 
HETATM   14  O   UNL     1       8.462  21.366  56.563  1.00  0.00    -0.346 OA
HETATM   15  C   UNL     1       7.191  23.345  53.728  1.00  0.00     0.053 A 
ENDROOT
BRANCH   1  16
HETATM   16  C   UNL     1       5.460  27.954  53.682  1.00  0.00     0.154 C 
HETATM   17  N   UNL     1       4.176  28.121  53.645  1.00  0.00    -0.172 NA
BRANCH  17  18
HETATM   18  N   UNL     1       3.741  29.208  52.951  1.00  0.00    -0.108 N 
HETATM   19  H   UNL     1       3.548  30.094  53.415  1.00  0.00     0.208 HD
BRANCH  18  20
HETATM   20  C   UNL     1       3.530  29.183  51.619  1.00  0.00     0.721 A 
HETATM   21  N   UNL     1       4.211  29.765  50.662  1.00  0.00    -0.061 NA
HETATM   22  C   UNL     1       3.565  29.415  49.496  1.00  0.00     0.103 A 
HETATM   23  C   UNL     1       2.467  28.600  49.757  1.00  0.00     0.078 A 
HETATM   24  C   UNL     1       3.858  29.756  48.168  1.00  0.00     0.034 A 
HETATM   25  C   UNL     1       1.627  28.093  48.764  1.00  0.00     0.032 A 
HETATM   26  N   UNL     1       2.473  28.472  51.117  1.00  0.00    -0.186 N 
HETATM   27  C   UNL     1       1.936  28.445  47.445  1.00  0.00     0.002 A 
HETATM   28  C   UNL     1       3.032  29.262  47.149  1.00  0.00     0.002 A 
HETATM   29  H   UNL     1       1.833  27.955  51.698  1.00  0.00     0.184 HD
ENDBRANCH  18  20
ENDBRANCH  17  18
ENDBRANCH   1  16
TORSDOF 3
ENDMDL
MODEL 10
REMARK VINA RESULT:      -8.6      2.923      3.136
REMARK  3 active torsions:
REMARK  status: ('A' for Active; 'I' for Inactive)
REMARK    1  A    between atoms: C_6  and  N_7 
REMARK    2  A    between atoms: N_7  and  N_8 
REMARK    3  A    between atoms: C_9  and  C_10 
ROOT
HETATM    1  C   UNL     1       5.361  26.461  53.877  1.00  0.00     0.024 A 
HETATM    2  C   UNL     1       5.589  25.873  52.645  1.00  0.00     0.138 A 
HETATM    3 CL   UNL     1       5.051  26.542  51.154  1.00  0.00    -0.061 Cl
HETATM    4  N   UNL     1       6.259  24.707  52.474  1.00  0.00    -0.235 NA
HETATM    5  C   UNL     1       6.735  24.081  53.564  1.00  0.00     0.071 A 
HETATM    6  C   UNL     1       6.554  24.601  54.865  1.00  0.00    -0.004 A 
HETATM    7  C   UNL     1       5.857  25.805  55.005  1.00  0.00     0.030 A 
HETATM    8  C   UNL     1       7.432  22.888  53.425  1.00  0.00     0.072 A 
HETATM    9  C   UNL     1       7.947  22.215  54.534  1.00  0.00     0.104 A 
HETATM   10  C   UNL     1       7.741  22.720  55.817  1.00  0.00     0.103 A 
HETATM   11  O   UNL     1       8.186  22.101  56.955  1.00  0.00    -0.346 OA
HETATM   12  C   UNL     1       8.562  20.742  56.697  1.00  0.00     0.202 C 
HETATM   13  C   UNL     1       9.401  20.649  55.433  1.00  0.00     0.202 C 
HETATM   14  O   UNL     1       8.640  21.057  54.289  1.00  0.00    -0.346 OA
HETATM   15  C   UNL     1       7.058  23.919  55.984  1.00  0.00     0.053 A 
ENDROOT
BRANCH   1  16
HETATM   16  C   UNL     1       4.630  27.733  54.034  1.00  0.00     0.154 C 
HETATM   17  N   UNL     1       4.650  28.362  55.167  1.00  0.00    -0.172 NA
BRANCH  17  18
HETATM   18  N   UNL     1       3.946  29.525  55.209  1.00  0.00    -0.108 N 
HETATM   19  H   UNL     1       3.312  29.791  54.457  1.00  0.00     0.208 HD
BRANCH  18  20
HETATM   20  C   UNL     1       4.045  30.399  56.231  1.00  0.00     0.721 A 
HETATM   21  N   UNL     1       4.667  31.553  56.276  1.00  0.00    -0.061 NA
HETATM   22  C   UNL     1       4.453  32.027  57.552  1.00  0.00     0.103 A 
HETATM   23  C   UNL     1       3.682  31.139  58.295  1.00  0.00     0.078 A 
HETATM   24  C   UNL     1       4.888  33.217  58.153  1.00  0.00     0.034 A 
HETATM   25  C   UNL     1       3.309  31.360  59.621  1.00  0.00     0.032 A 
HETATM   26  N   UNL     1       3.440  30.113  57.425  1.00  0.00    -0.186 N 
HETATM   27  C   UNL     1       3.753  32.553  60.204  1.00  0.00     0.002 A 
HETATM   28  C   UNL     1       4.529  33.467  59.485  1.00  0.00     0.002 A 
HETATM   29  H   UNL     1       2.912  29.270  57.586  1.00  0.00     0.184 HD
ENDBRANCH  18  20
ENDBRANCH  17  18
ENDBRANCH   1  16
TORSDOF 3
ENDMDL
