MODEL 1
REMARK VINA RESULT:      -9.7      0.000      0.000
REMARK  10 active torsions:
REMARK  status: ('A' for Active; 'I' for Inactive)
REMARK    1  A    between atoms: N_7  and  C_8 
REMARK    2  A    between atoms: C_8  and  C_9 
REMARK       I    between atoms: C_9  and  N_10 
REMARK    3  A    between atoms: N_10  and  C_11 
REMARK    4  A    between atoms: C_11  and  C_12 
REMARK    5  A    between atoms: C_12  and  C_13 
REMARK    6  A    between atoms: C_13  and  C_14 
REMARK       I    between atoms: C_14  and  N_15 
REMARK    7  A    between atoms: N_15  and  C_16 
REMARK    8  A    between atoms: C_16  and  C_17 
REMARK    9  A    between atoms: C_17  and  C_18 
REMARK   10  A    between atoms: C_18  and  N_19 
ROOT
HETATM    1  C   UNL     1      10.309  30.894  57.772  1.00  0.00     0.123 C 
ENDROOT
BRANCH   1   2
HETATM    2  N   UNL     1       9.871  30.654  59.131  1.00  0.00    -0.360 N 
HETATM    3  C   UNL     1       9.301  31.653  59.896  1.00  0.00     0.235 C 
HETATM    4  O   UNL     1       9.149  32.799  59.482  1.00  0.00    -0.272 OA
HETATM    5  H   UNL     1      10.049  29.744  59.541  1.00  0.00     0.162 HD
BRANCH   3   6
HETATM    6  C   UNL     1       8.806  31.187  61.264  1.00  0.00     0.235 C 
BRANCH   6   7
HETATM    7  N   UNL     1       7.554  31.838  61.596  1.00  0.00    -0.299 N 
HETATM    8  C   UNL     1       6.529  31.886  60.670  1.00  0.00     0.214 A 
HETATM    9  N   UNL     1       5.364  32.412  60.865  1.00  0.00    -0.235 NA
HETATM   10  C   UNL     1       5.192  32.947  62.099  1.00  0.00     0.115 A 
HETATM   11  C   UNL     1       6.130  33.021  63.106  1.00  0.00     0.075 A 
HETATM   12  S   UNL     1       3.706  33.622  62.572  1.00  0.00    -0.074 SA
HETATM   13  C   UNL     1       5.626  33.661  64.296  1.00  0.00    -0.031 A 
HETATM   14  C   UNL     1       7.444  32.456  62.839  1.00  0.00     0.262 A 
HETATM   15  C   UNL     1       6.434  33.886  65.533  1.00  0.00     0.050 C 
HETATM   16  C   UNL     1       4.290  34.003  64.137  1.00  0.00    -0.012 A 
HETATM   17  C   UNL     1       3.361  34.641  65.119  1.00  0.00     0.057 C 
HETATM   18  O   UNL     1       8.374  32.516  63.641  1.00  0.00    -0.267 OA
ENDBRANCH   6   7
ENDBRANCH   3   6
ENDBRANCH   1   2
BRANCH   1  19
HETATM   19  C   UNL     1      10.476  29.599  56.981  1.00  0.00     0.029 C 
BRANCH  19  20
HETATM   20  C   UNL     1       9.138  29.139  56.414  1.00  0.00     0.104 C 
BRANCH  20  21
HETATM   21  C   UNL     1       8.364  28.297  57.402  1.00  0.00     0.217 C 
HETATM   22  N   UNL     1       8.195  26.981  57.033  1.00  0.00    -0.361 N 
HETATM   23  H   UNL     1       8.475  26.717  56.091  1.00  0.00     0.162 HD
HETATM   24  O   UNL     1       7.932  28.747  58.460  1.00  0.00    -0.274 OA
BRANCH  22  25
HETATM   25  C   UNL     1       7.296  26.092  57.739  1.00  0.00     0.124 C 
BRANCH  25  26
HETATM   26  C   UNL     1       7.119  24.724  57.070  1.00  0.00     0.047 C 
BRANCH  26  27
HETATM   27  C   UNL     1       8.448  24.094  56.660  1.00  0.00     0.236 C 
BRANCH  27  28
HETATM   28  N   UNL     1       8.442  23.688  55.188  1.00  0.00    -0.070 N 
HETATM   29  H   UNL     1       9.205  24.204  54.734  1.00  0.00     0.279 HD
HETATM   30  C   UNL     1       8.683  22.208  54.986  1.00  0.00     0.239 C 
HETATM   31  C   UNL     1       8.733  21.890  53.490  1.00  0.00     0.008 C 
HETATM   32  C   UNL     1       7.456  22.356  52.783  1.00  0.00     0.011 C 
HETATM   33  C   UNL     1       8.945  20.391  53.277  1.00  0.00     0.011 C 
HETATM   34  C   UNL     1       7.145  23.836  53.043  1.00  0.00     0.008 C 
HETATM   35  C   UNL     1       7.143  24.134  54.544  1.00  0.00     0.239 C 
HETATM   36  C   UNL     1       8.091  24.761  52.273  1.00  0.00     0.011 C 
ENDBRANCH  27  28
ENDBRANCH  26  27
ENDBRANCH  25  26
ENDBRANCH  22  25
ENDBRANCH  20  21
ENDBRANCH  19  20
ENDBRANCH   1  19
TORSDOF 10
ENDMDL
MODEL 2
REMARK VINA RESULT:      -9.2      2.918     11.600
REMARK  10 active torsions:
REMARK  status: ('A' for Active; 'I' for Inactive)
REMARK    1  A    between atoms: N_7  and  C_8 
REMARK    2  A    between atoms: C_8  and  C_9 
REMARK       I    between atoms: C_9  and  N_10 
REMARK    3  A    between atoms: N_10  and  C_11 
REMARK    4  A    between atoms: C_11  and  C_12 
REMARK    5  A    between atoms: C_12  and  C_13 
REMARK    6  A    between atoms: C_13  and  C_14 
REMARK       I    between atoms: C_14  and  N_15 
REMARK    7  A    between atoms: N_15  and  C_16 
REMARK    8  A    between atoms: C_16  and  C_17 
REMARK    9  A    between atoms: C_17  and  C_18 
REMARK   10  A    between atoms: C_18  and  N_19 
ROOT
HETATM    1  C   UNL     1       9.702  31.181  59.168  1.00  0.00     0.123 C 
ENDROOT
BRANCH   1   2
HETATM    2  N   UNL     1       8.529  30.372  58.914  1.00  0.00    -0.360 N 
HETATM    3  C   UNL     1       8.534  29.365  57.967  1.00  0.00     0.235 C 
HETATM    4  O   UNL     1       9.517  29.111  57.276  1.00  0.00    -0.272 OA
HETATM    5  H   UNL     1       7.671  30.598  59.403  1.00  0.00     0.162 HD
BRANCH   3   6
HETATM    6  C   UNL     1       7.242  28.553  57.912  1.00  0.00     0.235 C 
BRANCH   6   7
HETATM    7  N   UNL     1       7.258  27.656  56.772  1.00  0.00    -0.299 N 
HETATM    8  C   UNL     1       6.859  28.107  55.528  1.00  0.00     0.214 A 
HETATM    9  N   UNL     1       6.860  27.409  54.439  1.00  0.00    -0.235 NA
HETATM   10  C   UNL     1       7.298  26.135  54.594  1.00  0.00     0.115 A 
HETATM   11  C   UNL     1       7.678  25.528  55.771  1.00  0.00     0.075 A 
HETATM   12  S   UNL     1       7.440  25.080  53.269  1.00  0.00    -0.074 SA
HETATM   13  C   UNL     1       8.086  24.157  55.591  1.00  0.00    -0.031 A 
HETATM   14  C   UNL     1       7.627  26.331  56.984  1.00  0.00     0.262 A 
HETATM   15  C   UNL     1       8.533  23.261  56.701  1.00  0.00     0.050 C 
HETATM   16  C   UNL     1       8.033  23.806  54.248  1.00  0.00    -0.012 A 
HETATM   17  C   UNL     1       8.403  22.511  53.601  1.00  0.00     0.057 C 
HETATM   18  O   UNL     1       7.888  25.879  58.098  1.00  0.00    -0.267 OA
ENDBRANCH   6   7
ENDBRANCH   3   6
ENDBRANCH   1   2
BRANCH   1  19
HETATM   19  C   UNL     1       9.562  32.021  60.435  1.00  0.00     0.029 C 
BRANCH  19  20
HETATM   20  C   UNL     1       9.302  31.131  61.645  1.00  0.00     0.104 C 
BRANCH  20  21
HETATM   21  C   UNL     1       8.178  31.659  62.506  1.00  0.00     0.217 C 
HETATM   22  N   UNL     1       6.939  31.121  62.233  1.00  0.00    -0.361 N 
HETATM   23  H   UNL     1       6.854  30.532  61.408  1.00  0.00     0.162 HD
HETATM   24  O   UNL     1       8.356  32.491  63.391  1.00  0.00    -0.274 OA
BRANCH  22  25
HETATM   25  C   UNL     1       5.721  31.667  62.795  1.00  0.00     0.124 C 
BRANCH  25  26
HETATM   26  C   UNL     1       4.983  32.635  61.864  1.00  0.00     0.047 C 
BRANCH  26  27
HETATM   27  C   UNL     1       3.621  33.056  62.412  1.00  0.00     0.236 C 
BRANCH  27  28
HETATM   28  N   UNL     1       3.679  34.444  63.045  1.00  0.00    -0.070 N 
HETATM   29  H   UNL     1       2.796  34.914  62.812  1.00  0.00     0.279 HD
HETATM   30  C   UNL     1       3.810  34.398  64.551  1.00  0.00     0.239 C 
HETATM   31  C   UNL     1       3.791  35.820  65.117  1.00  0.00     0.008 C 
HETATM   32  C   UNL     1       4.885  36.683  64.480  1.00  0.00     0.011 C 
HETATM   33  C   UNL     1       3.955  35.784  66.636  1.00  0.00     0.011 C 
HETATM   34  C   UNL     1       4.823  36.677  62.947  1.00  0.00     0.008 C 
HETATM   35  C   UNL     1       4.801  35.244  62.411  1.00  0.00     0.239 C 
HETATM   36  C   UNL     1       3.649  37.507  62.421  1.00  0.00     0.011 C 
ENDBRANCH  27  28
ENDBRANCH  26  27
ENDBRANCH  25  26
ENDBRANCH  22  25
ENDBRANCH  20  21
ENDBRANCH  19  20
ENDBRANCH   1  19
TORSDOF 10
ENDMDL
MODEL 3
REMARK VINA RESULT:      -9.2      2.582      3.957
REMARK  10 active torsions:
REMARK  status: ('A' for Active; 'I' for Inactive)
REMARK    1  A    between atoms: N_7  and  C_8 
REMARK    2  A    between atoms: C_8  and  C_9 
REMARK       I    between atoms: C_9  and  N_10 
REMARK    3  A    between atoms: N_10  and  C_11 
REMARK    4  A    between atoms: C_11  and  C_12 
REMARK    5  A    between atoms: C_12  and  C_13 
REMARK    6  A    between atoms: C_13  and  C_14 
REMARK       I    between atoms: C_14  and  N_15 
REMARK    7  A    between atoms: N_15  and  C_16 
REMARK    8  A    between atoms: C_16  and  C_17 
REMARK    9  A    between atoms: C_17  and  C_18 
REMARK   10  A    between atoms: C_18  and  N_19 
ROOT
HETATM    1  C   UNL     1       5.576  28.795  57.098  1.00  0.00     0.123 C 
ENDROOT
BRANCH   1   2
HETATM    2  N   UNL     1       6.453  29.864  57.527  1.00  0.00    -0.360 N 
HETATM    3  C   UNL     1       7.645  29.608  58.178  1.00  0.00     0.235 C 
HETATM    4  O   UNL     1       8.020  28.470  58.448  1.00  0.00    -0.272 OA
HETATM    5  H   UNL     1       6.146  30.821  57.396  1.00  0.00     0.162 HD
BRANCH   3   6
HETATM    6  C   UNL     1       8.484  30.853  58.458  1.00  0.00     0.235 C 
BRANCH   6   7
HETATM    7  N   UNL     1       8.251  31.324  59.810  1.00  0.00    -0.299 N 
HETATM    8  C   UNL     1       9.012  30.838  60.856  1.00  0.00     0.214 A 
HETATM    9  N   UNL     1       8.912  31.205  62.092  1.00  0.00    -0.235 NA
HETATM   10  C   UNL     1       7.964  32.147  62.320  1.00  0.00     0.115 A 
HETATM   11  C   UNL     1       7.098  32.689  61.395  1.00  0.00     0.075 A 
HETATM   12  S   UNL     1       7.728  32.810  63.867  1.00  0.00    -0.074 SA
HETATM   13  C   UNL     1       6.204  33.665  61.968  1.00  0.00    -0.031 A 
HETATM   14  C   UNL     1       7.210  32.224  60.021  1.00  0.00     0.262 A 
HETATM   15  C   UNL     1       5.155  34.397  61.195  1.00  0.00     0.050 C 
HETATM   16  C   UNL     1       6.480  33.846  63.316  1.00  0.00    -0.012 A 
HETATM   17  C   UNL     1       5.838  34.782  64.289  1.00  0.00     0.057 C 
HETATM   18  O   UNL     1       6.453  32.594  59.125  1.00  0.00    -0.267 OA
ENDBRANCH   6   7
ENDBRANCH   3   6
ENDBRANCH   1   2
BRANCH   1  19
HETATM   19  C   UNL     1       5.704  28.504  55.605  1.00  0.00     0.029 C 
BRANCH  19  20
HETATM   20  C   UNL     1       4.347  28.610  54.919  1.00  0.00     0.104 C 
BRANCH  20  21
HETATM   21  C   UNL     1       4.231  27.665  53.745  1.00  0.00     0.217 C 
HETATM   22  N   UNL     1       4.654  26.379  53.994  1.00  0.00    -0.361 N 
HETATM   23  H   UNL     1       5.127  26.202  54.878  1.00  0.00     0.162 HD
HETATM   24  O   UNL     1       3.779  28.013  52.658  1.00  0.00    -0.274 OA
BRANCH  22  25
HETATM   25  C   UNL     1       4.828  25.405  52.935  1.00  0.00     0.124 C 
BRANCH  25  26
HETATM   26  C   UNL     1       6.282  25.227  52.485  1.00  0.00     0.047 C 
BRANCH  26  27
HETATM   27  C   UNL     1       6.841  23.849  52.833  1.00  0.00     0.236 C 
BRANCH  27  28
HETATM   28  N   UNL     1       7.037  23.690  54.338  1.00  0.00    -0.070 N 
HETATM   29  H   UNL     1       6.102  23.707  54.764  1.00  0.00     0.279 HD
HETATM   30  C   UNL     1       7.704  22.385  54.709  1.00  0.00     0.239 C 
HETATM   31  C   UNL     1       7.803  22.266  56.231  1.00  0.00     0.008 C 
HETATM   32  C   UNL     1       8.539  23.468  56.833  1.00  0.00     0.011 C 
HETATM   33  C   UNL     1       8.505  20.963  56.614  1.00  0.00     0.011 C 
HETATM   34  C   UNL     1       7.930  24.808  56.401  1.00  0.00     0.008 C 
HETATM   35  C   UNL     1       7.805  24.882  54.878  1.00  0.00     0.239 C 
HETATM   36  C   UNL     1       6.597  25.081  57.103  1.00  0.00     0.011 C 
ENDBRANCH  27  28
ENDBRANCH  26  27
ENDBRANCH  25  26
ENDBRANCH  22  25
ENDBRANCH  20  21
ENDBRANCH  19  20
ENDBRANCH   1  19
TORSDOF 10
ENDMDL
MODEL 4
REMARK VINA RESULT:      -9.1      2.947     11.841
REMARK  10 active torsions:
REMARK  status: ('A' for Active; 'I' for Inactive)
REMARK    1  A    between atoms: N_7  and  C_8 
REMARK    2  A    between atoms: C_8  and  C_9 
REMARK       I    between atoms: C_9  and  N_10 
REMARK    3  A    between atoms: N_10  and  C_11 
REMARK    4  A    between atoms: C_11  and  C_12 
REMARK    5  A    between atoms: C_12  and  C_13 
REMARK    6  A    between atoms: C_13  and  C_14 
REMARK       I    between atoms: C_14  and  N_15 
REMARK    7  A    between atoms: N_15  and  C_16 
REMARK    8  A    between atoms: C_16  and  C_17 
REMARK    9  A    between atoms: C_17  and  C_18 
REMARK   10  A    between atoms: C_18  and  N_19 
ROOT
HETATM    1  C   UNL     1       8.914  30.458  59.671  1.00  0.00     0.123 C 
ENDROOT
BRANCH   1   2
HETATM    2  N   UNL     1       7.830  29.738  59.036  1.00  0.00    -0.360 N 
HETATM    3  C   UNL     1       7.888  29.366  57.707  1.00  0.00     0.235 C 
HETATM    4  O   UNL     1       8.844  29.637  56.984  1.00  0.00    -0.272 OA
HETATM    5  H   UNL     1       6.988  29.563  59.572  1.00  0.00     0.162 HD
BRANCH   3   6
HETATM    6  C   UNL     1       6.701  28.525  57.241  1.00  0.00     0.235 C 
BRANCH   6   7
HETATM    7  N   UNL     1       7.149  27.211  56.820  1.00  0.00    -0.299 N 
HETATM    8  C   UNL     1       7.630  26.310  57.750  1.00  0.00     0.214 A 
HETATM    9  N   UNL     1       8.028  25.106  57.494  1.00  0.00    -0.235 NA
HETATM   10  C   UNL     1       7.943  24.756  56.187  1.00  0.00     0.115 A 
HETATM   11  C   UNL     1       7.535  25.556  55.142  1.00  0.00     0.075 A 
HETATM   12  S   UNL     1       8.352  23.193  55.660  1.00  0.00    -0.074 SA
HETATM   13  C   UNL     1       7.569  24.878  53.869  1.00  0.00    -0.031 A 
HETATM   14  C   UNL     1       7.133  26.918  55.459  1.00  0.00     0.262 A 
HETATM   15  C   UNL     1       7.192  25.513  52.570  1.00  0.00     0.050 C 
HETATM   16  C   UNL     1       7.967  23.558  54.031  1.00  0.00    -0.012 A 
HETATM   17  C   UNL     1       8.101  22.484  53.000  1.00  0.00     0.057 C 
HETATM   18  O   UNL     1       6.806  27.736  54.601  1.00  0.00    -0.267 OA
ENDBRANCH   6   7
ENDBRANCH   3   6
ENDBRANCH   1   2
BRANCH   1  19
HETATM   19  C   UNL     1       8.446  31.765  60.307  1.00  0.00     0.029 C 
BRANCH  19  20
HETATM   20  C   UNL     1       8.913  31.857  61.755  1.00  0.00     0.104 C 
BRANCH  20  21
HETATM   21  C   UNL     1       7.760  32.065  62.709  1.00  0.00     0.217 C 
HETATM   22  N   UNL     1       6.568  31.505  62.307  1.00  0.00    -0.361 N 
HETATM   23  H   UNL     1       6.521  31.126  61.365  1.00  0.00     0.162 HD
HETATM   24  O   UNL     1       7.880  32.672  63.770  1.00  0.00    -0.274 OA
BRANCH  22  25
HETATM   25  C   UNL     1       5.316  31.793  62.976  1.00  0.00     0.124 C 
BRANCH  25  26
HETATM   26  C   UNL     1       4.135  32.007  62.024  1.00  0.00     0.047 C 
BRANCH  26  27
HETATM   27  C   UNL     1       3.587  33.432  62.077  1.00  0.00     0.236 C 
BRANCH  27  28
HETATM   28  N   UNL     1       4.233  34.237  63.201  1.00  0.00    -0.070 N 
HETATM   29  H   UNL     1       5.023  33.680  63.550  1.00  0.00     0.279 HD
HETATM   30  C   UNL     1       4.763  35.575  62.736  1.00  0.00     0.239 C 
HETATM   31  C   UNL     1       5.455  36.291  63.898  1.00  0.00     0.008 C 
HETATM   32  C   UNL     1       4.511  36.442  65.095  1.00  0.00     0.011 C 
HETATM   33  C   UNL     1       5.966  37.658  63.444  1.00  0.00     0.011 C 
HETATM   34  C   UNL     1       3.895  35.107  65.532  1.00  0.00     0.008 C 
HETATM   35  C   UNL     1       3.247  34.394  64.343  1.00  0.00     0.239 C 
HETATM   36  C   UNL     1       4.912  34.218  66.253  1.00  0.00     0.011 C 
ENDBRANCH  27  28
ENDBRANCH  26  27
ENDBRANCH  25  26
ENDBRANCH  22  25
ENDBRANCH  20  21
ENDBRANCH  19  20
ENDBRANCH   1  19
TORSDOF 10
ENDMDL
MODEL 5
REMARK VINA RESULT:      -9.1      1.417      2.130
REMARK  10 active torsions:
REMARK  status: ('A' for Active; 'I' for Inactive)
REMARK    1  A    between atoms: N_7  and  C_8 
REMARK    2  A    between atoms: C_8  and  C_9 
REMARK       I    between atoms: C_9  and  N_10 
REMARK    3  A    between atoms: N_10  and  C_11 
REMARK    4  A    between atoms: C_11  and  C_12 
REMARK    5  A    between atoms: C_12  and  C_13 
REMARK    6  A    between atoms: C_13  and  C_14 
REMARK       I    between atoms: C_14  and  N_15 
REMARK    7  A    between atoms: N_15  and  C_16 
REMARK    8  A    between atoms: C_16  and  C_17 
REMARK    9  A    between atoms: C_17  and  C_18 
REMARK   10  A    between atoms: C_18  and  N_19 
ROOT
HETATM    1  C   UNL     1       7.517  30.435  57.782  1.00  0.00     0.123 C 
ENDROOT
BRANCH   1   2
HETATM    2  N   UNL     1       7.630  30.422  59.226  1.00  0.00    -0.360 N 
HETATM    3  C   UNL     1       8.136  31.503  59.923  1.00  0.00     0.235 C 
HETATM    4  O   UNL     1       8.534  32.523  59.367  1.00  0.00    -0.272 OA
HETATM    5  H   UNL     1       7.389  29.571  59.721  1.00  0.00     0.162 HD
BRANCH   3   6
HETATM    6  C   UNL     1       8.082  31.347  61.442  1.00  0.00     0.235 C 
BRANCH   6   7
HETATM    7  N   UNL     1       6.963  32.092  61.985  1.00  0.00    -0.299 N 
HETATM    8  C   UNL     1       5.818  32.275  61.233  1.00  0.00     0.214 A 
HETATM    9  N   UNL     1       4.752  32.894  61.623  1.00  0.00    -0.235 NA
HETATM   10  C   UNL     1       4.823  33.386  62.885  1.00  0.00     0.115 A 
HETATM   11  C   UNL     1       5.906  33.328  63.735  1.00  0.00     0.075 A 
HETATM   12  S   UNL     1       3.499  34.170  63.605  1.00  0.00    -0.074 SA
HETATM   13  C   UNL     1       5.654  33.956  65.009  1.00  0.00    -0.031 A 
HETATM   14  C   UNL     1       7.103  32.659  63.249  1.00  0.00     0.262 A 
HETATM   15  C   UNL     1       6.659  34.050  66.111  1.00  0.00     0.050 C 
HETATM   16  C   UNL     1       4.348  34.424  65.071  1.00  0.00    -0.012 A 
HETATM   17  C   UNL     1       3.645  35.097  66.206  1.00  0.00     0.057 C 
HETATM   18  O   UNL     1       8.147  32.599  63.898  1.00  0.00    -0.267 OA
ENDBRANCH   6   7
ENDBRANCH   3   6
ENDBRANCH   1   2
BRANCH   1  19
HETATM   19  C   UNL     1       8.615  29.617  57.108  1.00  0.00     0.029 C 
BRANCH  19  20
HETATM   20  C   UNL     1       8.363  28.125  57.290  1.00  0.00     0.104 C 
BRANCH  20  21
HETATM   21  C   UNL     1       7.389  27.587  56.266  1.00  0.00     0.217 C 
HETATM   22  N   UNL     1       7.872  27.540  54.977  1.00  0.00    -0.361 N 
HETATM   23  H   UNL     1       8.767  27.986  54.795  1.00  0.00     0.162 HD
HETATM   24  O   UNL     1       6.261  27.205  56.563  1.00  0.00    -0.274 OA
BRANCH  22  25
HETATM   25  C   UNL     1       7.013  27.271  53.842  1.00  0.00     0.124 C 
BRANCH  25  26
HETATM   26  C   UNL     1       7.114  25.837  53.311  1.00  0.00     0.047 C 
BRANCH  26  27
HETATM   27  C   UNL     1       6.230  24.860  54.082  1.00  0.00     0.236 C 
BRANCH  27  28
HETATM   28  N   UNL     1       7.003  23.609  54.490  1.00  0.00    -0.070 N 
HETATM   29  H   UNL     1       6.407  23.091  55.147  1.00  0.00     0.279 HD
HETATM   30  C   UNL     1       7.318  22.704  53.320  1.00  0.00     0.239 C 
HETATM   31  C   UNL     1       8.029  21.443  53.814  1.00  0.00     0.008 C 
HETATM   32  C   UNL     1       9.290  21.797  54.610  1.00  0.00     0.011 C 
HETATM   33  C   UNL     1       8.379  20.538  52.633  1.00  0.00     0.011 C 
HETATM   34  C   UNL     1       9.010  22.781  55.752  1.00  0.00     0.008 C 
HETATM   35  C   UNL     1       8.261  24.012  55.237  1.00  0.00     0.239 C 
HETATM   36  C   UNL     1       8.279  22.108  56.918  1.00  0.00     0.011 C 
ENDBRANCH  27  28
ENDBRANCH  26  27
ENDBRANCH  25  26
ENDBRANCH  22  25
ENDBRANCH  20  21
ENDBRANCH  19  20
ENDBRANCH   1  19
TORSDOF 10
ENDMDL
MODEL 6
REMARK VINA RESULT:      -9.1      3.256     11.513
REMARK  10 active torsions:
REMARK  status: ('A' for Active; 'I' for Inactive)
REMARK    1  A    between atoms: N_7  and  C_8 
REMARK    2  A    between atoms: C_8  and  C_9 
REMARK       I    between atoms: C_9  and  N_10 
REMARK    3  A    between atoms: N_10  and  C_11 
REMARK    4  A    between atoms: C_11  and  C_12 
REMARK    5  A    between atoms: C_12  and  C_13 
REMARK    6  A    between atoms: C_13  and  C_14 
REMARK       I    between atoms: C_14  and  N_15 
REMARK    7  A    between atoms: N_15  and  C_16 
REMARK    8  A    between atoms: C_16  and  C_17 
REMARK    9  A    between atoms: C_17  and  C_18 
REMARK   10  A    between atoms: C_18  and  N_19 
ROOT
HETATM    1  C   UNL     1       8.928  29.162  55.508  1.00  0.00     0.123 C 
ENDROOT
BRANCH   1   2
HETATM    2  N   UNL     1       8.003  28.145  55.961  1.00  0.00    -0.360 N 
HETATM    3  C   UNL     1       6.652  28.215  55.676  1.00  0.00     0.235 C 
HETATM    4  O   UNL     1       6.156  29.145  55.046  1.00  0.00    -0.272 OA
HETATM    5  H   UNL     1       8.355  27.401  56.552  1.00  0.00     0.162 HD
BRANCH   3   6
HETATM    6  C   UNL     1       5.851  27.002  56.145  1.00  0.00     0.235 C 
BRANCH   6   7
HETATM    7  N   UNL     1       6.247  25.820  55.403  1.00  0.00    -0.299 N 
HETATM    8  C   UNL     1       6.017  25.744  54.043  1.00  0.00     0.214 A 
HETATM    9  N   UNL     1       6.352  24.757  53.277  1.00  0.00    -0.235 NA
HETATM   10  C   UNL     1       6.975  23.739  53.921  1.00  0.00     0.115 A 
HETATM   11  C   UNL     1       7.228  23.646  55.272  1.00  0.00     0.075 A 
HETATM   12  S   UNL     1       7.555  22.382  53.077  1.00  0.00    -0.074 SA
HETATM   13  C   UNL     1       7.904  22.425  55.634  1.00  0.00    -0.031 A 
HETATM   14  C   UNL     1       6.802  24.757  56.110  1.00  0.00     0.262 A 
HETATM   15  C   UNL     1       8.286  22.060  57.032  1.00  0.00     0.050 C 
HETATM   16  C   UNL     1       8.172  21.663  54.504  1.00  0.00    -0.012 A 
HETATM   17  C   UNL     1       8.887  20.354  54.402  1.00  0.00     0.057 C 
HETATM   18  O   UNL     1       6.924  24.757  57.334  1.00  0.00    -0.267 OA
ENDBRANCH   6   7
ENDBRANCH   3   6
ENDBRANCH   1   2
BRANCH   1  19
HETATM   19  C   UNL     1       9.842  29.653  56.629  1.00  0.00     0.029 C 
BRANCH  19  20
HETATM   20  C   UNL     1       9.051  29.862  57.915  1.00  0.00     0.104 C 
BRANCH  20  21
HETATM   21  C   UNL     1       9.609  30.995  58.745  1.00  0.00     0.217 C 
HETATM   22  N   UNL     1       9.401  30.877  60.101  1.00  0.00    -0.361 N 
HETATM   23  H   UNL     1       8.787  30.130  60.418  1.00  0.00     0.162 HD
HETATM   24  O   UNL     1      10.216  31.941  58.250  1.00  0.00    -0.274 OA
BRANCH  22  25
HETATM   25  C   UNL     1       9.662  31.966  61.019  1.00  0.00     0.124 C 
BRANCH  25  26
HETATM   26  C   UNL     1       8.820  31.919  62.299  1.00  0.00     0.047 C 
BRANCH  26  27
HETATM   27  C   UNL     1       7.335  31.704  62.017  1.00  0.00     0.236 C 
BRANCH  27  28
HETATM   28  N   UNL     1       6.465  32.587  62.908  1.00  0.00    -0.070 N 
HETATM   29  H   UNL     1       5.603  32.062  63.098  1.00  0.00     0.279 HD
HETATM   30  C   UNL     1       7.121  32.918  64.229  1.00  0.00     0.239 C 
HETATM   31  C   UNL     1       6.165  33.744  65.092  1.00  0.00     0.008 C 
HETATM   32  C   UNL     1       5.709  35.008  64.356  1.00  0.00     0.011 C 
HETATM   33  C   UNL     1       6.833  34.109  66.418  1.00  0.00     0.011 C 
HETATM   34  C   UNL     1       5.116  34.704  62.975  1.00  0.00     0.008 C 
HETATM   35  C   UNL     1       6.074  33.843  62.150  1.00  0.00     0.239 C 
HETATM   36  C   UNL     1       3.722  34.079  63.078  1.00  0.00     0.011 C 
ENDBRANCH  27  28
ENDBRANCH  26  27
ENDBRANCH  25  26
ENDBRANCH  22  25
ENDBRANCH  20  21
ENDBRANCH  19  20
ENDBRANCH   1  19
TORSDOF 10
ENDMDL
MODEL 7
REMARK VINA RESULT:      -9.0      3.272     11.304
REMARK  10 active torsions:
REMARK  status: ('A' for Active; 'I' for Inactive)
REMARK    1  A    between atoms: N_7  and  C_8 
REMARK    2  A    between atoms: C_8  and  C_9 
REMARK       I    between atoms: C_9  and  N_10 
REMARK    3  A    between atoms: N_10  and  C_11 
REMARK    4  A    between atoms: C_11  and  C_12 
REMARK    5  A    between atoms: C_12  and  C_13 
REMARK    6  A    between atoms: C_13  and  C_14 
REMARK       I    between atoms: C_14  and  N_15 
REMARK    7  A    between atoms: N_15  and  C_16 
REMARK    8  A    between atoms: C_16  and  C_17 
REMARK    9  A    between atoms: C_17  and  C_18 
REMARK   10  A    between atoms: C_18  and  N_19 
ROOT
HETATM    1  C   UNL     1       5.751  30.242  55.849  1.00  0.00     0.123 C 
ENDROOT
BRANCH   1   2
HETATM    2  N   UNL     1       6.536  29.271  55.117  1.00  0.00    -0.360 N 
HETATM    3  C   UNL     1       5.950  28.181  54.501  1.00  0.00     0.235 C 
HETATM    4  O   UNL     1       4.743  27.961  54.553  1.00  0.00    -0.272 OA
HETATM    5  H   UNL     1       7.545  29.368  55.115  1.00  0.00     0.162 HD
BRANCH   3   6
HETATM    6  C   UNL     1       6.921  27.325  53.689  1.00  0.00     0.235 C 
BRANCH   6   7
HETATM    7  N   UNL     1       7.321  26.157  54.451  1.00  0.00    -0.299 N 
HETATM    8  C   UNL     1       7.569  26.263  55.807  1.00  0.00     0.214 A 
HETATM    9  N   UNL     1       7.901  25.289  56.589  1.00  0.00    -0.235 NA
HETATM   10  C   UNL     1       8.001  24.086  55.970  1.00  0.00     0.115 A 
HETATM   11  C   UNL     1       7.836  23.832  54.626  1.00  0.00     0.075 A 
HETATM   12  S   UNL     1       8.358  22.670  56.839  1.00  0.00    -0.074 SA
HETATM   13  C   UNL     1       8.019  22.441  54.291  1.00  0.00    -0.031 A 
HETATM   14  C   UNL     1       7.501  24.958  53.768  1.00  0.00     0.262 A 
HETATM   15  C   UNL     1       7.911  21.890  52.905  1.00  0.00     0.050 C 
HETATM   16  C   UNL     1       8.275  21.694  55.433  1.00  0.00    -0.012 A 
HETATM   17  C   UNL     1       8.485  20.220  55.564  1.00  0.00     0.057 C 
HETATM   18  O   UNL     1       7.387  24.859  52.547  1.00  0.00    -0.267 OA
ENDBRANCH   6   7
ENDBRANCH   3   6
ENDBRANCH   1   2
BRANCH   1  19
HETATM   19  C   UNL     1       5.762  29.979  57.353  1.00  0.00     0.029 C 
BRANCH  19  20
HETATM   20  C   UNL     1       6.805  28.925  57.707  1.00  0.00     0.104 C 
BRANCH  20  21
HETATM   21  C   UNL     1       8.104  29.548  58.166  1.00  0.00     0.217 C 
HETATM   22  N   UNL     1       7.975  30.779  58.768  1.00  0.00    -0.361 N 
HETATM   23  H   UNL     1       7.061  31.225  58.735  1.00  0.00     0.162 HD
HETATM   24  O   UNL     1       9.190  28.991  58.028  1.00  0.00    -0.274 OA
BRANCH  22  25
HETATM   25  C   UNL     1       9.119  31.618  59.062  1.00  0.00     0.124 C 
BRANCH  25  26
HETATM   26  C   UNL     1       9.126  32.186  60.486  1.00  0.00     0.047 C 
BRANCH  26  27
HETATM   27  C   UNL     1       8.433  31.266  61.489  1.00  0.00     0.236 C 
BRANCH  27  28
HETATM   28  N   UNL     1       7.337  32.002  62.255  1.00  0.00    -0.070 N 
HETATM   29  H   UNL     1       6.592  31.319  62.439  1.00  0.00     0.279 HD
HETATM   30  C   UNL     1       7.813  32.553  63.581  1.00  0.00     0.239 C 
HETATM   31  C   UNL     1       6.647  33.212  64.319  1.00  0.00     0.008 C 
HETATM   32  C   UNL     1       5.992  34.298  63.459  1.00  0.00     0.011 C 
HETATM   33  C   UNL     1       7.127  33.799  65.646  1.00  0.00     0.011 C 
HETATM   34  C   UNL     1       5.575  33.782  62.075  1.00  0.00     0.008 C 
HETATM   35  C   UNL     1       6.749  33.091  61.378  1.00  0.00     0.239 C 
HETATM   36  C   UNL     1       4.339  32.883  62.151  1.00  0.00     0.011 C 
ENDBRANCH  27  28
ENDBRANCH  26  27
ENDBRANCH  25  26
ENDBRANCH  22  25
ENDBRANCH  20  21
ENDBRANCH  19  20
ENDBRANCH   1  19
TORSDOF 10
ENDMDL
MODEL 8
REMARK VINA RESULT:      -9.0      1.772      2.825
REMARK  10 active torsions:
REMARK  status: ('A' for Active; 'I' for Inactive)
REMARK    1  A    between atoms: N_7  and  C_8 
REMARK    2  A    between atoms: C_8  and  C_9 
REMARK       I    between atoms: C_9  and  N_10 
REMARK    3  A    between atoms: N_10  and  C_11 
REMARK    4  A    between atoms: C_11  and  C_12 
REMARK    5  A    between atoms: C_12  and  C_13 
REMARK    6  A    between atoms: C_13  and  C_14 
REMARK       I    between atoms: C_14  and  N_15 
REMARK    7  A    between atoms: N_15  and  C_16 
REMARK    8  A    between atoms: C_16  and  C_17 
REMARK    9  A    between atoms: C_17  and  C_18 
REMARK   10  A    between atoms: C_18  and  N_19 
ROOT
HETATM    1  C   UNL     1       9.293  28.849  56.631  1.00  0.00     0.123 C 
ENDROOT
BRANCH   1   2
HETATM    2  N   UNL     1       9.357  30.119  57.323  1.00  0.00    -0.360 N 
HETATM    3  C   UNL     1       8.871  30.269  58.608  1.00  0.00     0.235 C 
HETATM    4  O   UNL     1       8.345  29.349  59.229  1.00  0.00    -0.272 OA
HETATM    5  H   UNL     1       9.710  30.925  56.821  1.00  0.00     0.162 HD
BRANCH   3   6
HETATM    6  C   UNL     1       9.119  31.650  59.212  1.00  0.00     0.235 C 
BRANCH   6   7
HETATM    7  N   UNL     1       7.955  32.090  59.958  1.00  0.00    -0.299 N 
HETATM    8  C   UNL     1       6.738  32.240  59.320  1.00  0.00     0.214 A 
HETATM    9  N   UNL     1       5.632  32.597  59.887  1.00  0.00    -0.235 NA
HETATM   10  C   UNL     1       5.737  32.830  61.218  1.00  0.00     0.115 A 
HETATM   11  C   UNL     1       6.884  32.772  61.980  1.00  0.00     0.075 A 
HETATM   12  S   UNL     1       4.380  33.240  62.155  1.00  0.00    -0.074 SA
HETATM   13  C   UNL     1       6.652  33.085  63.369  1.00  0.00    -0.031 A 
HETATM   14  C   UNL     1       8.119  32.407  61.303  1.00  0.00     0.262 A 
HETATM   15  C   UNL     1       7.721  33.110  64.413  1.00  0.00     0.050 C 
HETATM   16  C   UNL     1       5.303  33.324  63.596  1.00  0.00    -0.012 A 
HETATM   17  C   UNL     1       4.608  33.640  64.881  1.00  0.00     0.057 C 
HETATM   18  O   UNL     1       9.210  32.379  61.870  1.00  0.00    -0.267 OA
ENDBRANCH   6   7
ENDBRANCH   3   6
ENDBRANCH   1   2
BRANCH   1  19
HETATM   19  C   UNL     1       8.361  28.894  55.423  1.00  0.00     0.029 C 
BRANCH  19  20
HETATM   20  C   UNL     1       6.914  28.680  55.853  1.00  0.00     0.104 C 
BRANCH  20  21
HETATM   21  C   UNL     1       6.108  27.968  54.791  1.00  0.00     0.217 C 
HETATM   22  N   UNL     1       6.849  27.446  53.754  1.00  0.00    -0.361 N 
HETATM   23  H   UNL     1       7.835  27.691  53.712  1.00  0.00     0.162 HD
HETATM   24  O   UNL     1       4.887  27.848  54.855  1.00  0.00    -0.274 OA
BRANCH  22  25
HETATM   25  C   UNL     1       6.234  26.934  52.547  1.00  0.00     0.124 C 
BRANCH  25  26
HETATM   26  C   UNL     1       6.514  25.451  52.285  1.00  0.00     0.047 C 
BRANCH  26  27
HETATM   27  C   UNL     1       8.003  25.117  52.324  1.00  0.00     0.236 C 
BRANCH  27  28
HETATM   28  N   UNL     1       8.287  23.941  53.255  1.00  0.00    -0.070 N 
HETATM   29  H   UNL     1       9.246  23.629  53.057  1.00  0.00     0.279 HD
HETATM   30  C   UNL     1       8.202  24.314  54.718  1.00  0.00     0.239 C 
HETATM   31  C   UNL     1       8.565  23.107  55.585  1.00  0.00     0.008 C 
HETATM   32  C   UNL     1       7.676  21.903  55.256  1.00  0.00     0.011 C 
HETATM   33  C   UNL     1       8.451  23.468  57.066  1.00  0.00     0.011 C 
HETATM   34  C   UNL     1       7.681  21.557  53.762  1.00  0.00     0.008 C 
HETATM   35  C   UNL     1       7.356  22.791  52.918  1.00  0.00     0.239 C 
HETATM   36  C   UNL     1       8.995  20.897  53.334  1.00  0.00     0.011 C 
ENDBRANCH  27  28
ENDBRANCH  26  27
ENDBRANCH  25  26
ENDBRANCH  22  25
ENDBRANCH  20  21
ENDBRANCH  19  20
ENDBRANCH   1  19
TORSDOF 10
ENDMDL
MODEL 9
REMARK VINA RESULT:      -9.0      3.244     11.901
REMARK  10 active torsions:
REMARK  status: ('A' for Active; 'I' for Inactive)
REMARK    1  A    between atoms: N_7  and  C_8 
REMARK    2  A    between atoms: C_8  and  C_9 
REMARK       I    between atoms: C_9  and  N_10 
REMARK    3  A    between atoms: N_10  and  C_11 
REMARK    4  A    between atoms: C_11  and  C_12 
REMARK    5  A    between atoms: C_12  and  C_13 
REMARK    6  A    between atoms: C_13  and  C_14 
REMARK       I    between atoms: C_14  and  N_15 
REMARK    7  A    between atoms: N_15  and  C_16 
REMARK    8  A    between atoms: C_16  and  C_17 
REMARK    9  A    between atoms: C_17  and  C_18 
REMARK   10  A    between atoms: C_18  and  N_19 
ROOT
HETATM    1  C   UNL     1       5.520  30.365  56.958  1.00  0.00     0.123 C 
ENDROOT
BRANCH   1   2
HETATM    2  N   UNL     1       6.413  29.557  56.153  1.00  0.00    -0.360 N 
HETATM    3  C   UNL     1       5.978  28.410  55.517  1.00  0.00     0.235 C 
HETATM    4  O   UNL     1       4.825  27.999  55.610  1.00  0.00    -0.272 OA
HETATM    5  H   UNL     1       7.392  29.815  56.114  1.00  0.00     0.162 HD
BRANCH   3   6
HETATM    6  C   UNL     1       7.032  27.750  54.631  1.00  0.00     0.235 C 
BRANCH   6   7
HETATM    7  N   UNL     1       7.408  26.458  55.173  1.00  0.00    -0.299 N 
HETATM    8  C   UNL     1       7.716  26.330  56.514  1.00  0.00     0.214 A 
HETATM    9  N   UNL     1       8.035  25.228  57.111  1.00  0.00    -0.235 NA
HETATM   10  C   UNL     1       8.053  24.141  56.301  1.00  0.00     0.115 A 
HETATM   11  C   UNL     1       7.820  24.117  54.943  1.00  0.00     0.075 A 
HETATM   12  S   UNL     1       8.380  22.588  56.911  1.00  0.00    -0.074 SA
HETATM   13  C   UNL     1       7.925  22.794  54.379  1.00  0.00    -0.031 A 
HETATM   14  C   UNL     1       7.504  25.381  54.296  1.00  0.00     0.262 A 
HETATM   15  C   UNL     1       7.734  22.482  52.930  1.00  0.00     0.050 C 
HETATM   16  C   UNL     1       8.193  21.860  55.371  1.00  0.00    -0.012 A 
HETATM   17  C   UNL     1       8.339  20.377  55.252  1.00  0.00     0.057 C 
HETATM   18  O   UNL     1       7.335  25.488  53.083  1.00  0.00    -0.267 OA
ENDBRANCH   6   7
ENDBRANCH   3   6
ENDBRANCH   1   2
BRANCH   1  19
HETATM   19  C   UNL     1       6.255  31.100  58.076  1.00  0.00     0.029 C 
BRANCH  19  20
HETATM   20  C   UNL     1       7.595  30.434  58.369  1.00  0.00     0.104 C 
BRANCH  20  21
HETATM   21  C   UNL     1       8.404  31.210  59.382  1.00  0.00     0.217 C 
HETATM   22  N   UNL     1       8.508  30.614  60.619  1.00  0.00    -0.361 N 
HETATM   23  H   UNL     1       7.936  29.792  60.794  1.00  0.00     0.162 HD
HETATM   24  O   UNL     1       8.941  32.282  59.118  1.00  0.00    -0.274 OA
BRANCH  22  25
HETATM   25  C   UNL     1       9.047  31.313  61.768  1.00  0.00     0.124 C 
BRANCH  25  26
HETATM   26  C   UNL     1       7.995  31.696  62.815  1.00  0.00     0.047 C 
BRANCH  26  27
HETATM   27  C   UNL     1       6.936  32.648  62.263  1.00  0.00     0.236 C 
BRANCH  27  28
HETATM   28  N   UNL     1       6.488  33.655  63.319  1.00  0.00    -0.070 N 
HETATM   29  H   UNL     1       7.306  33.856  63.906  1.00  0.00     0.279 HD
HETATM   30  C   UNL     1       6.003  34.957  62.720  1.00  0.00     0.239 C 
HETATM   31  C   UNL     1       5.638  35.938  63.836  1.00  0.00     0.008 C 
HETATM   32  C   UNL     1       4.601  35.332  64.787  1.00  0.00     0.011 C 
HETATM   33  C   UNL     1       5.117  37.245  63.239  1.00  0.00     0.011 C 
HETATM   34  C   UNL     1       5.035  33.970  65.342  1.00  0.00     0.008 C 
HETATM   35  C   UNL     1       5.433  33.024  64.207  1.00  0.00     0.239 C 
HETATM   36  C   UNL     1       6.140  34.108  66.392  1.00  0.00     0.011 C 
ENDBRANCH  27  28
ENDBRANCH  26  27
ENDBRANCH  25  26
ENDBRANCH  22  25
ENDBRANCH  20  21
ENDBRANCH  19  20
ENDBRANCH   1  19
TORSDOF 10
ENDMDL
MODEL 10
REMARK VINA RESULT:      -8.8      2.429      4.152
REMARK  10 active torsions:
REMARK  status: ('A' for Active; 'I' for Inactive)
REMARK    1  A    between atoms: N_7  and  C_8 
REMARK    2  A    between atoms: C_8  and  C_9 
REMARK       I    between atoms: C_9  and  N_10 
REMARK    3  A    between atoms: N_10  and  C_11 
REMARK    4  A    between atoms: C_11  and  C_12 
REMARK    5  A    between atoms: C_12  and  C_13 
REMARK    6  A    between atoms: C_13  and  C_14 
REMARK       I    between atoms: C_14  and  N_15 
REMARK    7  A    between atoms: N_15  and  C_16 
REMARK    8  A    between atoms: C_16  and  C_17 
REMARK    9  A    between atoms: C_17  and  C_18 
REMARK   10  A    between atoms: C_18  and  N_19 
ROOT
HETATM    1  C   UNL     1       4.919  27.696  56.632  1.00  0.00     0.123 C 
ENDROOT
BRANCH   1   2
HETATM    2  N   UNL     1       5.799  28.833  56.801  1.00  0.00    -0.360 N 
HETATM    3  C   UNL     1       7.008  28.723  57.459  1.00  0.00     0.235 C 
HETATM    4  O   UNL     1       7.399  27.669  57.954  1.00  0.00    -0.272 OA
HETATM    5  H   UNL     1       5.481  29.741  56.480  1.00  0.00     0.162 HD
BRANCH   3   6
HETATM    6  C   UNL     1       7.845  30.001  57.448  1.00  0.00     0.235 C 
BRANCH   6   7
HETATM    7  N   UNL     1       7.411  30.896  58.503  1.00  0.00    -0.299 N 
HETATM    8  C   UNL     1       6.472  31.876  58.241  1.00  0.00     0.214 A 
HETATM    9  N   UNL     1       5.992  32.708  59.106  1.00  0.00    -0.235 NA
HETATM   10  C   UNL     1       6.490  32.560  60.359  1.00  0.00     0.115 A 
HETATM   11  C   UNL     1       7.460  31.669  60.763  1.00  0.00     0.075 A 
HETATM   12  S   UNL     1       5.931  33.511  61.652  1.00  0.00    -0.074 SA
HETATM   13  C   UNL     1       7.770  31.775  62.167  1.00  0.00    -0.031 A 
HETATM   14  C   UNL     1       8.009  30.775  59.755  1.00  0.00     0.262 A 
HETATM   15  C   UNL     1       8.794  30.940  62.866  1.00  0.00     0.050 C 
HETATM   16  C   UNL     1       6.965  32.731  62.773  1.00  0.00    -0.012 A 
HETATM   17  C   UNL     1       6.911  33.139  64.210  1.00  0.00     0.057 C 
HETATM   18  O   UNL     1       8.918  29.980  59.988  1.00  0.00    -0.267 OA
ENDBRANCH   6   7
ENDBRANCH   3   6
ENDBRANCH   1   2
BRANCH   1  19
HETATM   19  C   UNL     1       4.795  27.273  55.170  1.00  0.00     0.029 C 
BRANCH  19  20
HETATM   20  C   UNL     1       5.252  28.394  54.245  1.00  0.00     0.104 C 
BRANCH  20  21
HETATM   21  C   UNL     1       5.849  27.862  52.962  1.00  0.00     0.217 C 
HETATM   22  N   UNL     1       5.773  26.495  52.813  1.00  0.00    -0.361 N 
HETATM   23  H   UNL     1       5.458  25.952  53.612  1.00  0.00     0.162 HD
HETATM   24  O   UNL     1       6.347  28.593  52.111  1.00  0.00    -0.274 OA
BRANCH  22  25
HETATM   25  C   UNL     1       6.487  25.793  51.766  1.00  0.00     0.124 C 
BRANCH  25  26
HETATM   26  C   UNL     1       7.808  25.166  52.224  1.00  0.00     0.047 C 
BRANCH  26  27
HETATM   27  C   UNL     1       7.699  23.658  52.441  1.00  0.00     0.236 C 
BRANCH  27  28
HETATM   28  N   UNL     1       7.531  23.317  53.919  1.00  0.00    -0.070 N 
HETATM   29  H   UNL     1       6.531  23.411  54.135  1.00  0.00     0.279 HD
HETATM   30  C   UNL     1       7.957  21.904  54.249  1.00  0.00     0.239 C 
HETATM   31  C   UNL     1       7.696  21.614  55.728  1.00  0.00     0.008 C 
HETATM   32  C   UNL     1       8.397  22.640  56.625  1.00  0.00     0.011 C 
HETATM   33  C   UNL     1       8.153  20.198  56.077  1.00  0.00     0.011 C 
HETATM   34  C   UNL     1       8.045  24.086  56.254  1.00  0.00     0.008 C 
HETATM   35  C   UNL     1       8.276  24.335  54.762  1.00  0.00     0.239 C 
HETATM   36  C   UNL     1       6.623  24.455  56.686  1.00  0.00     0.011 C 
ENDBRANCH  27  28
ENDBRANCH  26  27
ENDBRANCH  25  26
ENDBRANCH  22  25
ENDBRANCH  20  21
ENDBRANCH  19  20
ENDBRANCH   1  19
TORSDOF 10
ENDMDL
