MODEL 1
REMARK VINA RESULT:      -9.4      0.000      0.000
REMARK  5 active torsions:
REMARK  status: ('A' for Active; 'I' for Inactive)
REMARK    1  A    between atoms: C_2  and  C_3 
REMARK    2  A    between atoms: C_7  and  N_8 
REMARK    3  A    between atoms: C_13  and  N_14 
REMARK       I    between atoms: N_14  and  C_15 
REMARK    4  A    between atoms: C_15  and  C_16 
REMARK       I    between atoms: C_16  and  N_17 
REMARK    5  A    between atoms: N_17  and  C_18 
ROOT
HETATM    1  N   UNL     1       6.782  30.662  58.102  1.00  0.00    -0.045 N 
HETATM    2  N   UNL     1       7.014  31.851  58.744  1.00  0.00    -0.156 NA
HETATM    3  C   UNL     1       8.134  31.634  59.446  1.00  0.00     0.055 C 
HETATM    4  C   UNL     1       8.751  32.724  60.245  1.00  0.00     0.072 C 
HETATM    5  C   UNL     1       8.585  30.299  59.329  1.00  0.00     0.079 C 
HETATM    6  C   UNL     1       7.633  29.670  58.563  1.00  0.00     0.152 C 
ENDROOT
BRANCH   6   7
HETATM    7  N   UNL     1       7.624  28.307  58.336  1.00  0.00    -0.303 N 
HETATM    8  C   UNL     1       8.402  27.713  57.282  1.00  0.00     0.315 C 
HETATM    9  O   UNL     1       9.039  28.372  56.482  1.00  0.00    -0.262 OA
HETATM   10  H   UNL     1       6.941  27.708  58.792  1.00  0.00     0.171 HD
BRANCH   8  11
HETATM   11  C   UNL     1       8.080  26.221  57.096  1.00  0.00     0.310 C 
HETATM   12  N   UNL     1       7.647  25.860  55.832  1.00  0.00    -0.348 N 
HETATM   13  H   UNL     1       7.650  26.572  55.105  1.00  0.00     0.163 HD
HETATM   14  O   UNL     1       8.052  25.517  58.098  1.00  0.00    -0.262 OA
BRANCH  12  15
HETATM   15  C   UNL     1       6.826  24.669  55.652  1.00  0.00     0.085 C 
HETATM   16  C   UNL     1       5.740  24.875  54.579  1.00  0.00     0.034 C 
HETATM   17  C   UNL     1       6.241  24.843  53.116  1.00  0.00    -0.045 C 
HETATM   18  C   UNL     1       7.074  26.089  52.753  1.00  0.00     0.015 C 
HETATM   19  C   UNL     1       5.011  24.838  52.184  1.00  0.00     0.015 C 
HETATM   20  C   UNL     1       7.056  23.554  52.887  1.00  0.00     0.013 C 
HETATM   21  C   UNL     1       8.188  23.352  53.909  1.00  0.00    -0.016 C 
HETATM   22  C   UNL     1       8.876  22.006  53.660  1.00  0.00     0.010 C 
HETATM   23  C   UNL     1       7.668  23.422  55.354  1.00  0.00     0.029 C 
ENDBRANCH  12  15
ENDBRANCH   8  11
ENDBRANCH   6   7
BRANCH   1  24
HETATM   24  C   UNL     1       5.911  30.624  57.000  1.00  0.00     0.732 A 
HETATM   25  N   UNL     1       5.385  31.852  56.731  1.00  0.00    -0.152 N 
HETATM   26  C   UNL     1       4.562  32.052  55.669  1.00  0.00     0.268 A 
HETATM   27  H   UNL     1       5.641  32.651  57.301  1.00  0.00     0.188 HD
HETATM   28  C   UNL     1       4.276  30.844  54.842  1.00  0.00     0.035 A 
HETATM   29  O   UNL     1       4.102  33.156  55.408  1.00  0.00    -0.267 OA
HETATM   30  C   UNL     1       4.857  29.682  55.215  1.00  0.00     0.061 A 
HETATM   31  N   UNL     1       5.691  29.555  56.308  1.00  0.00    -0.067 NA
HETATM   32  C   UNL     1       4.697  28.395  54.444  1.00  0.00     0.072 C 
BRANCH  28  33
HETATM   33  C   UNL     1       3.341  31.052  53.679  1.00  0.00     0.042 C 
HETATM   34  C   UNL     1       4.094  31.334  52.388  1.00  0.00     0.010 C 
ENDBRANCH  28  33
ENDBRANCH   1  24
TORSDOF 5
ENDMDL
MODEL 2
REMARK VINA RESULT:      -9.1      2.145      4.889
REMARK  5 active torsions:
REMARK  status: ('A' for Active; 'I' for Inactive)
REMARK    1  A    between atoms: C_2  and  C_3 
REMARK    2  A    between atoms: C_7  and  N_8 
REMARK    3  A    between atoms: C_13  and  N_14 
REMARK       I    between atoms: N_14  and  C_15 
REMARK    4  A    between atoms: C_15  and  C_16 
REMARK       I    between atoms: C_16  and  N_17 
REMARK    5  A    between atoms: N_17  and  C_18 
ROOT
HETATM    1  N   UNL     1       6.073  32.026  58.200  1.00  0.00    -0.045 N 
HETATM    2  N   UNL     1       5.695  33.198  57.596  1.00  0.00    -0.156 NA
HETATM    3  C   UNL     1       4.866  32.813  56.618  1.00  0.00     0.055 C 
HETATM    4  C   UNL     1       4.190  33.817  55.758  1.00  0.00     0.072 C 
HETATM    5  C   UNL     1       4.765  31.405  56.530  1.00  0.00     0.079 C 
HETATM    6  C   UNL     1       5.642  30.927  57.473  1.00  0.00     0.152 C 
ENDROOT
BRANCH   6   7
HETATM    7  N   UNL     1       5.954  29.588  57.607  1.00  0.00    -0.303 N 
HETATM    8  C   UNL     1       7.237  29.070  57.212  1.00  0.00     0.315 C 
HETATM    9  O   UNL     1       8.083  29.752  56.664  1.00  0.00    -0.262 OA
HETATM   10  H   UNL     1       5.235  28.904  57.826  1.00  0.00     0.171 HD
BRANCH   8  11
HETATM   11  C   UNL     1       7.284  27.534  57.268  1.00  0.00     0.310 C 
HETATM   12  N   UNL     1       6.892  26.885  56.109  1.00  0.00    -0.348 N 
HETATM   13  H   UNL     1       6.685  27.453  55.291  1.00  0.00     0.163 HD
HETATM   14  O   UNL     1       7.478  27.011  58.359  1.00  0.00    -0.262 OA
BRANCH  12  15
HETATM   15  C   UNL     1       6.382  25.522  56.171  1.00  0.00     0.085 C 
HETATM   16  C   UNL     1       5.382  25.230  55.036  1.00  0.00     0.034 C 
HETATM   17  C   UNL     1       6.012  25.011  53.640  1.00  0.00    -0.045 C 
HETATM   18  C   UNL     1       6.572  26.315  53.039  1.00  0.00     0.015 C 
HETATM   19  C   UNL     1       4.907  24.514  52.685  1.00  0.00     0.015 C 
HETATM   20  C   UNL     1       7.114  23.937  53.743  1.00  0.00     0.013 C 
HETATM   21  C   UNL     1       8.162  24.234  54.830  1.00  0.00    -0.016 C 
HETATM   22  C   UNL     1       9.156  23.072  54.921  1.00  0.00     0.010 C 
HETATM   23  C   UNL     1       7.507  24.480  56.199  1.00  0.00     0.029 C 
ENDBRANCH  12  15
ENDBRANCH   8  11
ENDBRANCH   6   7
BRANCH   1  24
HETATM   24  C   UNL     1       6.642  32.055  59.483  1.00  0.00     0.732 A 
HETATM   25  N   UNL     1       5.691  32.016  60.459  1.00  0.00    -0.152 N 
HETATM   26  C   UNL     1       6.026  31.976  61.774  1.00  0.00     0.268 A 
HETATM   27  H   UNL     1       4.708  31.969  60.208  1.00  0.00     0.188 HD
HETATM   28  C   UNL     1       7.490  31.989  62.063  1.00  0.00     0.035 A 
HETATM   29  O   UNL     1       5.179  31.919  62.655  1.00  0.00    -0.267 OA
HETATM   30  C   UNL     1       8.333  32.032  61.009  1.00  0.00     0.061 A 
HETATM   31  N   UNL     1       7.918  32.065  59.693  1.00  0.00    -0.067 NA
HETATM   32  C   UNL     1       9.835  32.000  61.152  1.00  0.00     0.072 C 
BRANCH  28  33
HETATM   33  C   UNL     1       7.869  31.974  63.521  1.00  0.00     0.042 C 
HETATM   34  C   UNL     1       7.715  33.344  64.164  1.00  0.00     0.010 C 
ENDBRANCH  28  33
ENDBRANCH   1  24
TORSDOF 5
ENDMDL
MODEL 3
REMARK VINA RESULT:      -8.8      3.833      7.582
REMARK  5 active torsions:
REMARK  status: ('A' for Active; 'I' for Inactive)
REMARK    1  A    between atoms: C_2  and  C_3 
REMARK    2  A    between atoms: C_7  and  N_8 
REMARK    3  A    between atoms: C_13  and  N_14 
REMARK       I    between atoms: N_14  and  C_15 
REMARK    4  A    between atoms: C_15  and  C_16 
REMARK       I    between atoms: C_16  and  N_17 
REMARK    5  A    between atoms: N_17  and  C_18 
ROOT
HETATM    1  N   UNL     1       7.036  27.124  55.346  1.00  0.00    -0.045 N 
HETATM    2  N   UNL     1       6.978  27.765  56.557  1.00  0.00    -0.156 NA
HETATM    3  C   UNL     1       6.150  28.795  56.346  1.00  0.00     0.055 C 
HETATM    4  C   UNL     1       5.781  29.711  57.457  1.00  0.00     0.072 C 
HETATM    5  C   UNL     1       5.734  28.876  54.998  1.00  0.00     0.079 C 
HETATM    6  C   UNL     1       6.413  27.869  54.356  1.00  0.00     0.152 C 
ENDROOT
BRANCH   6   7
HETATM    7  N   UNL     1       6.399  27.700  52.985  1.00  0.00    -0.303 N 
HETATM    8  C   UNL     1       5.239  27.198  52.300  1.00  0.00     0.315 C 
HETATM    9  O   UNL     1       4.242  26.816  52.884  1.00  0.00    -0.262 OA
HETATM   10  H   UNL     1       7.257  27.762  52.444  1.00  0.00     0.171 HD
BRANCH   8  11
HETATM   11  C   UNL     1       5.522  26.909  50.816  1.00  0.00     0.310 C 
HETATM   12  N   UNL     1       5.067  27.867  49.926  1.00  0.00    -0.348 N 
HETATM   13  H   UNL     1       4.660  28.718  50.308  1.00  0.00     0.163 HD
HETATM   14  O   UNL     1       5.949  25.798  50.526  1.00  0.00    -0.262 OA
BRANCH  12  15
HETATM   15  C   UNL     1       4.781  27.504  48.544  1.00  0.00     0.085 C 
HETATM   16  C   UNL     1       3.343  26.979  48.373  1.00  0.00     0.034 C 
HETATM   17  C   UNL     1       2.237  28.060  48.398  1.00  0.00    -0.045 C 
HETATM   18  C   UNL     1       2.031  28.657  49.804  1.00  0.00     0.015 C 
HETATM   19  C   UNL     1       0.904  27.397  47.992  1.00  0.00     0.015 C 
HETATM   20  C   UNL     1       2.584  29.165  47.379  1.00  0.00     0.013 C 
HETATM   21  C   UNL     1       3.995  29.750  47.564  1.00  0.00    -0.016 C 
HETATM   22  C   UNL     1       4.283  30.766  46.454  1.00  0.00     0.010 C 
HETATM   23  C   UNL     1       5.070  28.652  47.569  1.00  0.00     0.029 C 
ENDBRANCH  12  15
ENDBRANCH   8  11
ENDBRANCH   6   7
BRANCH   1  24
HETATM   24  C   UNL     1       7.511  25.804  55.278  1.00  0.00     0.732 A 
HETATM   25  N   UNL     1       7.950  25.363  56.490  1.00  0.00    -0.152 N 
HETATM   26  C   UNL     1       8.396  24.092  56.662  1.00  0.00     0.268 A 
HETATM   27  H   UNL     1       7.904  25.973  57.300  1.00  0.00     0.188 HD
HETATM   28  C   UNL     1       8.379  23.235  55.440  1.00  0.00     0.035 A 
HETATM   29  O   UNL     1       8.772  23.681  57.752  1.00  0.00    -0.267 OA
HETATM   30  C   UNL     1       7.922  23.791  54.297  1.00  0.00     0.061 A 
HETATM   31  N   UNL     1       7.477  25.094  54.198  1.00  0.00    -0.067 NA
HETATM   32  C   UNL     1       7.803  23.029  53.000  1.00  0.00     0.072 C 
BRANCH  28  33
HETATM   33  C   UNL     1       8.899  21.833  55.617  1.00  0.00     0.042 C 
HETATM   34  C   UNL     1       7.777  20.835  55.860  1.00  0.00     0.010 C 
ENDBRANCH  28  33
ENDBRANCH   1  24
TORSDOF 5
ENDMDL
MODEL 4
REMARK VINA RESULT:      -8.7      3.051      5.907
REMARK  5 active torsions:
REMARK  status: ('A' for Active; 'I' for Inactive)
REMARK    1  A    between atoms: C_2  and  C_3 
REMARK    2  A    between atoms: C_7  and  N_8 
REMARK    3  A    between atoms: C_13  and  N_14 
REMARK       I    between atoms: N_14  and  C_15 
REMARK    4  A    between atoms: C_15  and  C_16 
REMARK       I    between atoms: C_16  and  N_17 
REMARK    5  A    between atoms: N_17  and  C_18 
ROOT
HETATM    1  N   UNL     1       4.785  28.293  51.885  1.00  0.00    -0.045 N 
HETATM    2  N   UNL     1       3.841  29.058  51.248  1.00  0.00    -0.156 NA
HETATM    3  C   UNL     1       3.506  28.337  50.171  1.00  0.00     0.055 C 
HETATM    4  C   UNL     1       2.449  28.812  49.241  1.00  0.00     0.072 C 
HETATM    5  C   UNL     1       4.275  27.156  50.060  1.00  0.00     0.079 C 
HETATM    6  C   UNL     1       5.169  27.216  51.101  1.00  0.00     0.152 C 
ENDROOT
BRANCH   6   7
HETATM    7  N   UNL     1       6.205  26.317  51.263  1.00  0.00    -0.303 N 
HETATM    8  C   UNL     1       6.094  25.192  52.152  1.00  0.00     0.315 C 
HETATM    9  O   UNL     1       5.129  25.013  52.872  1.00  0.00    -0.262 OA
HETATM   10  H   UNL     1       7.130  26.515  50.892  1.00  0.00     0.171 HD
BRANCH   8  11
HETATM   11  C   UNL     1       7.431  24.450  52.317  1.00  0.00     0.310 C 
HETATM   12  N   UNL     1       7.403  23.353  53.161  1.00  0.00    -0.348 N 
HETATM   13  H   UNL     1       6.503  23.067  53.540  1.00  0.00     0.163 HD
HETATM   14  O   UNL     1       8.434  24.979  51.853  1.00  0.00    -0.262 OA
BRANCH  12  15
HETATM   15  C   UNL     1       8.623  22.903  53.818  1.00  0.00     0.085 C 
HETATM   16  C   UNL     1       9.016  23.820  54.992  1.00  0.00     0.034 C 
HETATM   17  C   UNL     1       8.172  23.648  56.276  1.00  0.00    -0.045 C 
HETATM   18  C   UNL     1       6.739  24.191  56.113  1.00  0.00     0.015 C 
HETATM   19  C   UNL     1       8.837  24.465  57.403  1.00  0.00     0.015 C 
HETATM   20  C   UNL     1       8.152  22.158  56.675  1.00  0.00     0.013 C 
HETATM   21  C   UNL     1       7.704  21.223  55.538  1.00  0.00    -0.016 C 
HETATM   22  C   UNL     1       7.807  19.765  55.996  1.00  0.00     0.010 C 
HETATM   23  C   UNL     1       8.537  21.438  54.264  1.00  0.00     0.029 C 
ENDBRANCH  12  15
ENDBRANCH   8  11
ENDBRANCH   6   7
BRANCH   1  24
HETATM   24  C   UNL     1       5.098  28.551  53.230  1.00  0.00     0.732 A 
HETATM   25  N   UNL     1       4.088  29.207  53.867  1.00  0.00    -0.152 N 
HETATM   26  C   UNL     1       4.158  29.502  55.190  1.00  0.00     0.268 A 
HETATM   27  H   UNL     1       3.239  29.444  53.363  1.00  0.00     0.188 HD
HETATM   28  C   UNL     1       5.410  29.070  55.878  1.00  0.00     0.035 A 
HETATM   29  O   UNL     1       3.246  30.072  55.775  1.00  0.00    -0.267 OA
HETATM   30  C   UNL     1       6.339  28.429  55.136  1.00  0.00     0.061 A 
HETATM   31  N   UNL     1       6.196  28.158  53.790  1.00  0.00    -0.067 NA
HETATM   32  C   UNL     1       7.627  27.894  55.710  1.00  0.00     0.072 C 
BRANCH  28  33
HETATM   33  C   UNL     1       5.507  29.419  57.340  1.00  0.00     0.042 C 
HETATM   34  C   UNL     1       6.167  30.773  57.559  1.00  0.00     0.010 C 
ENDBRANCH  28  33
ENDBRANCH   1  24
TORSDOF 5
ENDMDL
MODEL 5
REMARK VINA RESULT:      -8.5      3.286      7.018
REMARK  5 active torsions:
REMARK  status: ('A' for Active; 'I' for Inactive)
REMARK    1  A    between atoms: C_2  and  C_3 
REMARK    2  A    between atoms: C_7  and  N_8 
REMARK    3  A    between atoms: C_13  and  N_14 
REMARK       I    between atoms: N_14  and  C_15 
REMARK    4  A    between atoms: C_15  and  C_16 
REMARK       I    between atoms: C_16  and  N_17 
REMARK    5  A    between atoms: N_17  and  C_18 
ROOT
HETATM    1  N   UNL     1       6.388  25.883  55.697  1.00  0.00    -0.045 N 
HETATM    2  N   UNL     1       7.072  24.763  56.094  1.00  0.00    -0.156 NA
HETATM    3  C   UNL     1       6.944  23.916  55.065  1.00  0.00     0.055 C 
HETATM    4  C   UNL     1       7.609  22.587  55.090  1.00  0.00     0.072 C 
HETATM    5  C   UNL     1       6.122  24.441  54.042  1.00  0.00     0.079 C 
HETATM    6  C   UNL     1       5.681  25.648  54.527  1.00  0.00     0.152 C 
ENDROOT
BRANCH   6   7
HETATM    7  N   UNL     1       4.727  26.418  53.889  1.00  0.00    -0.303 N 
HETATM    8  C   UNL     1       5.094  27.505  53.022  1.00  0.00     0.315 C 
HETATM    9  O   UNL     1       6.246  27.865  52.867  1.00  0.00    -0.262 OA
HETATM   10  H   UNL     1       3.746  26.349  54.144  1.00  0.00     0.171 HD
BRANCH   8  11
HETATM   11  C   UNL     1       3.875  28.336  52.587  1.00  0.00     0.310 C 
HETATM   12  N   UNL     1       3.415  28.089  51.304  1.00  0.00    -0.348 N 
HETATM   13  H   UNL     1       3.850  27.335  50.779  1.00  0.00     0.163 HD
HETATM   14  O   UNL     1       3.528  29.258  53.314  1.00  0.00    -0.262 OA
BRANCH  12  15
HETATM   15  C   UNL     1       2.668  29.113  50.586  1.00  0.00     0.085 C 
HETATM   16  C   UNL     1       3.587  29.994  49.719  1.00  0.00     0.034 C 
HETATM   17  C   UNL     1       4.092  29.338  48.412  1.00  0.00    -0.045 C 
HETATM   18  C   UNL     1       5.125  28.225  48.675  1.00  0.00     0.015 C 
HETATM   19  C   UNL     1       4.800  30.420  47.571  1.00  0.00     0.015 C 
HETATM   20  C   UNL     1       2.886  28.790  47.621  1.00  0.00     0.013 C 
HETATM   21  C   UNL     1       1.982  27.858  48.446  1.00  0.00    -0.016 C 
HETATM   22  C   UNL     1       0.767  27.442  47.611  1.00  0.00     0.010 C 
HETATM   23  C   UNL     1       1.523  28.522  49.754  1.00  0.00     0.029 C 
ENDBRANCH  12  15
ENDBRANCH   8  11
ENDBRANCH   6   7
BRANCH   1  24
HETATM   24  C   UNL     1       6.608  27.104  56.354  1.00  0.00     0.732 A 
HETATM   25  N   UNL     1       7.937  27.351  56.527  1.00  0.00    -0.152 N 
HETATM   26  C   UNL     1       8.375  28.507  57.090  1.00  0.00     0.268 A 
HETATM   27  H   UNL     1       8.626  26.685  56.191  1.00  0.00     0.188 HD
HETATM   28  C   UNL     1       7.308  29.463  57.506  1.00  0.00     0.035 A 
HETATM   29  O   UNL     1       9.568  28.746  57.229  1.00  0.00    -0.267 OA
HETATM   30  C   UNL     1       6.026  29.101  57.282  1.00  0.00     0.061 A 
HETATM   31  N   UNL     1       5.654  27.906  56.698  1.00  0.00    -0.067 NA
HETATM   32  C   UNL     1       4.850  29.988  57.606  1.00  0.00     0.072 C 
BRANCH  28  33
HETATM   33  C   UNL     1       7.786  30.735  58.156  1.00  0.00     0.042 C 
HETATM   34  C   UNL     1       8.054  30.548  59.642  1.00  0.00     0.010 C 
ENDBRANCH  28  33
ENDBRANCH   1  24
TORSDOF 5
ENDMDL
MODEL 6
REMARK VINA RESULT:      -8.4      2.159      4.879
REMARK  5 active torsions:
REMARK  status: ('A' for Active; 'I' for Inactive)
REMARK    1  A    between atoms: C_2  and  C_3 
REMARK    2  A    between atoms: C_7  and  N_8 
REMARK    3  A    between atoms: C_13  and  N_14 
REMARK       I    between atoms: N_14  and  C_15 
REMARK    4  A    between atoms: C_15  and  C_16 
REMARK       I    between atoms: C_16  and  N_17 
REMARK    5  A    between atoms: N_17  and  C_18 
ROOT
HETATM    1  N   UNL     1       5.433  32.043  57.812  1.00  0.00    -0.045 N 
HETATM    2  N   UNL     1       5.127  33.288  57.325  1.00  0.00    -0.156 NA
HETATM    3  C   UNL     1       3.964  33.116  56.685  1.00  0.00     0.055 C 
HETATM    4  C   UNL     1       3.265  34.268  56.060  1.00  0.00     0.072 C 
HETATM    5  C   UNL     1       3.553  31.763  56.683  1.00  0.00     0.079 C 
HETATM    6  C   UNL     1       4.572  31.082  57.303  1.00  0.00     0.152 C 
ENDROOT
BRANCH   6   7
HETATM    7  N   UNL     1       4.629  29.703  57.374  1.00  0.00    -0.303 N 
HETATM    8  C   UNL     1       5.645  28.956  56.683  1.00  0.00     0.315 C 
HETATM    9  O   UNL     1       6.454  29.475  55.936  1.00  0.00    -0.262 OA
HETATM   10  H   UNL     1       3.861  29.170  57.771  1.00  0.00     0.171 HD
BRANCH   8  11
HETATM   11  C   UNL     1       5.392  27.440  56.745  1.00  0.00     0.310 C 
HETATM   12  N   UNL     1       6.298  26.657  56.051  1.00  0.00    -0.348 N 
HETATM   13  H   UNL     1       7.101  27.118  55.628  1.00  0.00     0.163 HD
HETATM   14  O   UNL     1       4.333  27.061  57.230  1.00  0.00    -0.262 OA
BRANCH  12  15
HETATM   15  C   UNL     1       5.911  25.334  55.579  1.00  0.00     0.085 C 
HETATM   16  C   UNL     1       5.767  25.290  54.046  1.00  0.00     0.034 C 
HETATM   17  C   UNL     1       7.097  25.266  53.256  1.00  0.00    -0.045 C 
HETATM   18  C   UNL     1       7.839  26.616  53.316  1.00  0.00     0.015 C 
HETATM   19  C   UNL     1       6.773  24.997  51.772  1.00  0.00     0.015 C 
HETATM   20  C   UNL     1       7.986  24.127  53.795  1.00  0.00     0.013 C 
HETATM   21  C   UNL     1       8.197  24.180  55.319  1.00  0.00    -0.016 C 
HETATM   22  C   UNL     1       9.009  22.962  55.771  1.00  0.00     0.010 C 
HETATM   23  C   UNL     1       6.861  24.237  56.076  1.00  0.00     0.029 C 
ENDBRANCH  12  15
ENDBRANCH   8  11
ENDBRANCH   6   7
BRANCH   1  24
HETATM   24  C   UNL     1       6.384  31.909  58.837  1.00  0.00     0.732 A 
HETATM   25  N   UNL     1       7.501  31.257  58.407  1.00  0.00    -0.152 N 
HETATM   26  C   UNL     1       8.571  31.071  59.222  1.00  0.00     0.268 A 
HETATM   27  H   UNL     1       7.564  30.938  57.445  1.00  0.00     0.188 HD
HETATM   28  C   UNL     1       8.428  31.618  60.603  1.00  0.00     0.035 A 
HETATM   29  O   UNL     1       9.586  30.506  58.837  1.00  0.00    -0.267 OA
HETATM   30  C   UNL     1       7.270  32.243  60.908  1.00  0.00     0.061 A 
HETATM   31  N   UNL     1       6.222  32.399  60.022  1.00  0.00    -0.067 NA
HETATM   32  C   UNL     1       7.007  32.886  62.247  1.00  0.00     0.072 C 
BRANCH  28  33
HETATM   33  C   UNL     1       9.600  31.392  61.521  1.00  0.00     0.042 C 
HETATM   34  C   UNL     1       9.487  30.074  62.273  1.00  0.00     0.010 C 
ENDBRANCH  28  33
ENDBRANCH   1  24
TORSDOF 5
ENDMDL
MODEL 7
REMARK VINA RESULT:      -8.3      3.218      7.032
REMARK  5 active torsions:
REMARK  status: ('A' for Active; 'I' for Inactive)
REMARK    1  A    between atoms: C_2  and  C_3 
REMARK    2  A    between atoms: C_7  and  N_8 
REMARK    3  A    between atoms: C_13  and  N_14 
REMARK       I    between atoms: N_14  and  C_15 
REMARK    4  A    between atoms: C_15  and  C_16 
REMARK       I    between atoms: C_16  and  N_17 
REMARK    5  A    between atoms: N_17  and  C_18 
ROOT
HETATM    1  N   UNL     1       6.763  24.856  54.887  1.00  0.00    -0.045 N 
HETATM    2  N   UNL     1       6.967  23.772  55.703  1.00  0.00    -0.156 NA
HETATM    3  C   UNL     1       7.429  22.822  54.880  1.00  0.00     0.055 C 
HETATM    4  C   UNL     1       7.829  21.492  55.407  1.00  0.00     0.072 C 
HETATM    5  C   UNL     1       7.452  23.251  53.533  1.00  0.00     0.079 C 
HETATM    6  C   UNL     1       6.905  24.511  53.552  1.00  0.00     0.152 C 
ENDROOT
BRANCH   6   7
HETATM    7  N   UNL     1       6.609  25.226  52.407  1.00  0.00    -0.303 N 
HETATM    8  C   UNL     1       5.258  25.592  52.077  1.00  0.00     0.315 C 
HETATM    9  O   UNL     1       4.297  25.227  52.729  1.00  0.00    -0.262 OA
HETATM   10  H   UNL     1       7.309  25.365  51.684  1.00  0.00     0.171 HD
BRANCH   8  11
HETATM   11  C   UNL     1       5.151  26.204  50.670  1.00  0.00     0.310 C 
HETATM   12  N   UNL     1       5.571  27.519  50.560  1.00  0.00    -0.348 N 
HETATM   13  H   UNL     1       5.991  27.955  51.378  1.00  0.00     0.163 HD
HETATM   14  O   UNL     1       4.546  25.565  49.818  1.00  0.00    -0.262 OA
BRANCH  12  15
HETATM   15  C   UNL     1       5.054  28.366  49.494  1.00  0.00     0.085 C 
HETATM   16  C   UNL     1       3.521  28.504  49.562  1.00  0.00     0.034 C 
HETATM   17  C   UNL     1       2.991  29.446  50.669  1.00  0.00    -0.045 C 
HETATM   18  C   UNL     1       3.169  28.850  52.080  1.00  0.00     0.015 C 
HETATM   19  C   UNL     1       1.476  29.642  50.451  1.00  0.00     0.015 C 
HETATM   20  C   UNL     1       3.700  30.811  50.557  1.00  0.00     0.013 C 
HETATM   21  C   UNL     1       5.236  30.707  50.547  1.00  0.00    -0.016 C 
HETATM   22  C   UNL     1       5.847  32.096  50.338  1.00  0.00     0.010 C 
HETATM   23  C   UNL     1       5.733  29.740  49.460  1.00  0.00     0.029 C 
ENDBRANCH  12  15
ENDBRANCH   8  11
ENDBRANCH   6   7
BRANCH   1  24
HETATM   24  C   UNL     1       6.632  26.136  55.450  1.00  0.00     0.732 A 
HETATM   25  N   UNL     1       5.344  26.579  55.401  1.00  0.00    -0.152 N 
HETATM   26  C   UNL     1       4.983  27.771  55.943  1.00  0.00     0.268 A 
HETATM   27  H   UNL     1       4.621  25.995  54.992  1.00  0.00     0.188 HD
HETATM   28  C   UNL     1       6.089  28.547  56.577  1.00  0.00     0.035 A 
HETATM   29  O   UNL     1       3.825  28.166  55.922  1.00  0.00    -0.267 OA
HETATM   30  C   UNL     1       7.324  28.001  56.559  1.00  0.00     0.061 A 
HETATM   31  N   UNL     1       7.616  26.777  55.991  1.00  0.00    -0.067 NA
HETATM   32  C   UNL     1       8.523  28.650  57.204  1.00  0.00     0.072 C 
BRANCH  28  33
HETATM   33  C   UNL     1       5.701  29.883  57.156  1.00  0.00     0.042 C 
HETATM   34  C   UNL     1       5.502  30.936  56.076  1.00  0.00     0.010 C 
ENDBRANCH  28  33
ENDBRANCH   1  24
TORSDOF 5
ENDMDL
MODEL 8
REMARK VINA RESULT:      -8.2      2.441      8.313
REMARK  5 active torsions:
REMARK  status: ('A' for Active; 'I' for Inactive)
REMARK    1  A    between atoms: C_2  and  C_3 
REMARK    2  A    between atoms: C_7  and  N_8 
REMARK    3  A    between atoms: C_13  and  N_14 
REMARK       I    between atoms: N_14  and  C_15 
REMARK    4  A    between atoms: C_15  and  C_16 
REMARK       I    between atoms: C_16  and  N_17 
REMARK    5  A    between atoms: N_17  and  C_18 
ROOT
HETATM    1  N   UNL     1       5.240  27.559  54.157  1.00  0.00    -0.045 N 
HETATM    2  N   UNL     1       4.178  27.398  53.304  1.00  0.00    -0.156 NA
HETATM    3  C   UNL     1       3.806  28.648  53.002  1.00  0.00     0.055 C 
HETATM    4  C   UNL     1       2.702  28.899  52.040  1.00  0.00     0.072 C 
HETATM    5  C   UNL     1       4.560  29.613  53.708  1.00  0.00     0.079 C 
HETATM    6  C   UNL     1       5.385  28.886  54.531  1.00  0.00     0.152 C 
ENDROOT
BRANCH   6   7
HETATM    7  N   UNL     1       6.185  29.459  55.500  1.00  0.00    -0.303 N 
HETATM    8  C   UNL     1       5.943  29.242  56.901  1.00  0.00     0.315 C 
HETATM    9  O   UNL     1       4.982  28.621  57.316  1.00  0.00    -0.262 OA
HETATM   10  H   UNL     1       6.858  30.182  55.261  1.00  0.00     0.171 HD
BRANCH   8  11
HETATM   11  C   UNL     1       6.830  30.133  57.787  1.00  0.00     0.310 C 
HETATM   12  N   UNL     1       6.153  30.947  58.679  1.00  0.00    -0.348 N 
HETATM   13  H   UNL     1       5.143  30.843  58.748  1.00  0.00     0.163 HD
HETATM   14  O   UNL     1       8.023  30.194  57.516  1.00  0.00    -0.262 OA
BRANCH  12  15
HETATM   15  C   UNL     1       6.773  32.171  59.169  1.00  0.00     0.085 C 
HETATM   16  C   UNL     1       5.733  33.275  59.435  1.00  0.00     0.034 C 
HETATM   17  C   UNL     1       4.893  33.096  60.722  1.00  0.00    -0.045 C 
HETATM   18  C   UNL     1       3.882  31.938  60.607  1.00  0.00     0.015 C 
HETATM   19  C   UNL     1       4.076  34.385  60.949  1.00  0.00     0.015 C 
HETATM   20  C   UNL     1       5.840  32.880  61.920  1.00  0.00     0.013 C 
HETATM   21  C   UNL     1       6.853  31.742  61.705  1.00  0.00    -0.016 C 
HETATM   22  C   UNL     1       7.807  31.665  62.901  1.00  0.00     0.010 C 
HETATM   23  C   UNL     1       7.649  31.927  60.403  1.00  0.00     0.029 C 
ENDBRANCH  12  15
ENDBRANCH   8  11
ENDBRANCH   6   7
BRANCH   1  24
HETATM   24  C   UNL     1       6.113  26.484  54.392  1.00  0.00     0.732 A 
HETATM   25  N   UNL     1       6.208  26.192  55.720  1.00  0.00    -0.152 N 
HETATM   26  C   UNL     1       6.954  25.148  56.164  1.00  0.00     0.268 A 
HETATM   27  H   UNL     1       5.678  26.730  56.398  1.00  0.00     0.188 HD
HETATM   28  C   UNL     1       7.658  24.367  55.106  1.00  0.00     0.035 A 
HETATM   29  O   UNL     1       7.028  24.866  57.353  1.00  0.00    -0.267 OA
HETATM   30  C   UNL     1       7.486  24.758  53.824  1.00  0.00     0.061 A 
HETATM   31  N   UNL     1       6.704  25.831  53.446  1.00  0.00    -0.067 NA
HETATM   32  C   UNL     1       8.096  24.032  52.651  1.00  0.00     0.072 C 
BRANCH  28  33
HETATM   33  C   UNL     1       8.511  23.225  55.593  1.00  0.00     0.042 C 
HETATM   34  C   UNL     1       7.743  21.911  55.618  1.00  0.00     0.010 C 
ENDBRANCH  28  33
ENDBRANCH   1  24
TORSDOF 5
ENDMDL
MODEL 9
REMARK VINA RESULT:      -8.1      5.440     11.201
REMARK  5 active torsions:
REMARK  status: ('A' for Active; 'I' for Inactive)
REMARK    1  A    between atoms: C_2  and  C_3 
REMARK    2  A    between atoms: C_7  and  N_8 
REMARK    3  A    between atoms: C_13  and  N_14 
REMARK       I    between atoms: N_14  and  C_15 
REMARK    4  A    between atoms: C_15  and  C_16 
REMARK       I    between atoms: C_16  and  N_17 
REMARK    5  A    between atoms: N_17  and  C_18 
ROOT
HETATM    1  N   UNL     1       5.243  32.584  58.177  1.00  0.00    -0.045 N 
HETATM    2  N   UNL     1       5.152  31.593  57.233  1.00  0.00    -0.156 NA
HETATM    3  C   UNL     1       4.652  32.210  56.155  1.00  0.00     0.055 C 
HETATM    4  C   UNL     1       4.458  31.471  54.881  1.00  0.00     0.072 C 
HETATM    5  C   UNL     1       4.344  33.566  56.412  1.00  0.00     0.079 C 
HETATM    6  C   UNL     1       4.617  33.743  57.747  1.00  0.00     0.152 C 
ENDROOT
BRANCH   6   7
HETATM    7  N   UNL     1       4.308  34.901  58.435  1.00  0.00    -0.303 N 
HETATM    8  C   UNL     1       3.049  35.060  59.114  1.00  0.00     0.315 C 
HETATM    9  O   UNL     1       2.158  34.234  59.053  1.00  0.00    -0.262 OA
HETATM   10  H   UNL     1       4.883  35.733  58.341  1.00  0.00     0.171 HD
BRANCH   8  11
HETATM   11  C   UNL     1       2.851  36.492  59.637  1.00  0.00     0.310 C 
HETATM   12  N   UNL     1       3.990  37.111  60.122  1.00  0.00    -0.348 N 
HETATM   13  H   UNL     1       4.877  36.622  60.026  1.00  0.00     0.163 HD
HETATM   14  O   UNL     1       1.701  36.899  59.755  1.00  0.00    -0.262 OA
BRANCH  12  15
HETATM   15  C   UNL     1       3.878  38.188  61.098  1.00  0.00     0.085 C 
HETATM   16  C   UNL     1       3.724  37.649  62.533  1.00  0.00     0.034 C 
HETATM   17  C   UNL     1       5.020  37.099  63.176  1.00  0.00    -0.045 C 
HETATM   18  C   UNL     1       5.468  35.766  62.543  1.00  0.00     0.015 C 
HETATM   19  C   UNL     1       4.738  36.817  64.666  1.00  0.00     0.015 C 
HETATM   20  C   UNL     1       6.133  38.160  63.063  1.00  0.00     0.013 C 
HETATM   21  C   UNL     1       6.349  38.674  61.629  1.00  0.00    -0.016 C 
HETATM   22  C   UNL     1       7.402  39.787  61.631  1.00  0.00     0.010 C 
HETATM   23  C   UNL     1       5.041  39.183  61.003  1.00  0.00     0.029 C 
ENDBRANCH  12  15
ENDBRANCH   8  11
ENDBRANCH   6   7
BRANCH   1  24
HETATM   24  C   UNL     1       6.057  32.397  59.306  1.00  0.00     0.732 A 
HETATM   25  N   UNL     1       5.318  32.226  60.438  1.00  0.00    -0.152 N 
HETATM   26  C   UNL     1       5.905  31.971  61.636  1.00  0.00     0.268 A 
HETATM   27  H   UNL     1       4.304  32.241  60.390  1.00  0.00     0.188 HD
HETATM   28  C   UNL     1       7.396  31.906  61.618  1.00  0.00     0.035 A 
HETATM   29  O   UNL     1       5.248  31.794  62.653  1.00  0.00    -0.267 OA
HETATM   30  C   UNL     1       8.013  32.095  60.432  1.00  0.00     0.061 A 
HETATM   31  N   UNL     1       7.348  32.346  59.249  1.00  0.00    -0.067 NA
HETATM   32  C   UNL     1       9.509  32.008  60.258  1.00  0.00     0.072 C 
BRANCH  28  33
HETATM   33  C   UNL     1       8.055  31.651  62.948  1.00  0.00     0.042 C 
HETATM   34  C   UNL     1       8.018  32.879  63.846  1.00  0.00     0.010 C 
ENDBRANCH  28  33
ENDBRANCH   1  24
TORSDOF 5
ENDMDL
MODEL 10
REMARK VINA RESULT:      -7.8      4.840      9.936
REMARK  5 active torsions:
REMARK  status: ('A' for Active; 'I' for Inactive)
REMARK    1  A    between atoms: C_2  and  C_3 
REMARK    2  A    between atoms: C_7  and  N_8 
REMARK    3  A    between atoms: C_13  and  N_14 
REMARK       I    between atoms: N_14  and  C_15 
REMARK    4  A    between atoms: C_15  and  C_16 
REMARK       I    between atoms: C_16  and  N_17 
REMARK    5  A    between atoms: N_17  and  C_18 
ROOT
HETATM    1  N   UNL     1       7.011  31.792  60.151  1.00  0.00    -0.045 N 
HETATM    2  N   UNL     1       8.193  31.106  60.261  1.00  0.00    -0.156 NA
HETATM    3  C   UNL     1       8.369  30.961  61.580  1.00  0.00     0.055 C 
HETATM    4  C   UNL     1       9.533  30.206  62.111  1.00  0.00     0.072 C 
HETATM    5  C   UNL     1       7.359  31.611  62.326  1.00  0.00     0.079 C 
HETATM    6  C   UNL     1       6.574  32.237  61.389  1.00  0.00     0.152 C 
ENDROOT
BRANCH   6   7
HETATM    7  N   UNL     1       5.554  33.110  61.716  1.00  0.00    -0.303 N 
HETATM    8  C   UNL     1       4.353  32.656  62.363  1.00  0.00     0.315 C 
HETATM    9  O   UNL     1       4.125  31.481  62.582  1.00  0.00    -0.262 OA
HETATM   10  H   UNL     1       5.548  34.062  61.360  1.00  0.00     0.171 HD
BRANCH   8  11
HETATM   11  C   UNL     1       3.287  33.761  62.447  1.00  0.00     0.310 C 
HETATM   12  N   UNL     1       3.531  34.883  61.673  1.00  0.00    -0.348 N 
HETATM   13  H   UNL     1       4.335  34.867  61.051  1.00  0.00     0.163 HD
HETATM   14  O   UNL     1       2.423  33.653  63.309  1.00  0.00    -0.262 OA
BRANCH  12  15
HETATM   15  C   UNL     1       2.944  36.166  62.038  1.00  0.00     0.085 C 
HETATM   16  C   UNL     1       3.677  36.817  63.226  1.00  0.00     0.034 C 
HETATM   17  C   UNL     1       5.047  37.453  62.890  1.00  0.00    -0.045 C 
HETATM   18  C   UNL     1       6.126  36.395  62.585  1.00  0.00     0.015 C 
HETATM   19  C   UNL     1       5.528  38.244  64.124  1.00  0.00     0.015 C 
HETATM   20  C   UNL     1       4.878  38.422  61.702  1.00  0.00     0.013 C 
HETATM   21  C   UNL     1       4.201  37.781  60.477  1.00  0.00    -0.016 C 
HETATM   22  C   UNL     1       3.991  38.839  59.390  1.00  0.00     0.010 C 
HETATM   23  C   UNL     1       2.860  37.127  60.846  1.00  0.00     0.029 C 
ENDBRANCH  12  15
ENDBRANCH   8  11
ENDBRANCH   6   7
BRANCH   1  24
HETATM   24  C   UNL     1       6.324  31.805  58.925  1.00  0.00     0.732 A 
HETATM   25  N   UNL     1       6.145  30.547  58.434  1.00  0.00    -0.152 N 
HETATM   26  C   UNL     1       5.453  30.326  57.287  1.00  0.00     0.268 A 
HETATM   27  H   UNL     1       6.493  29.745  58.951  1.00  0.00     0.188 HD
HETATM   28  C   UNL     1       4.922  31.547  56.613  1.00  0.00     0.035 A 
HETATM   29  O   UNL     1       5.269  29.198  56.850  1.00  0.00    -0.267 OA
HETATM   30  C   UNL     1       5.168  32.739  57.200  1.00  0.00     0.061 A 
HETATM   31  N   UNL     1       5.879  32.886  58.374  1.00  0.00    -0.067 NA
HETATM   32  C   UNL     1       4.651  34.048  56.657  1.00  0.00     0.072 C 
BRANCH  28  33
HETATM   33  C   UNL     1       4.177  31.312  55.325  1.00  0.00     0.042 C 
HETATM   34  C   UNL     1       2.672  31.245  55.542  1.00  0.00     0.010 C 
ENDBRANCH  28  33
ENDBRANCH   1  24
TORSDOF 5
ENDMDL
