MODEL 1
REMARK VINA RESULT:      -8.5      0.000      0.000
REMARK  11 active torsions:
REMARK  status: ('A' for Active; 'I' for Inactive)
REMARK    1  A    between atoms: C_2  and  C_3 
REMARK    2  A    between atoms: C_3  and  N_4 
REMARK    3  A    between atoms: N_4  and  C_6 
REMARK    4  A    between atoms: N_4  and  C_30 
REMARK    5  A    between atoms: C_6  and  C_7 
REMARK    6  A    between atoms: N_8  and  C_9 
REMARK    7  A    between atoms: C_13  and  N_14 
REMARK    8  A    between atoms: C_17  and  C_18 
REMARK       I    between atoms: C_18  and  N_19 
REMARK    9  A    between atoms: N_19  and  N_20 
REMARK   10  A    between atoms: C_21  and  C_22 
REMARK   11  A    between atoms: C_30  and  C_31 
ROOT
HETATM    1  C   UNL     1       5.618  29.864  56.382  1.00  0.00     0.096 A 
HETATM    2  N   UNL     1       4.944  31.070  56.556  1.00  0.00    -0.215 N 
HETATM    3  N   UNL     1       4.355  31.415  55.380  1.00  0.00     0.012 NA
HETATM    4  N   UNL     1       4.549  30.453  54.494  1.00  0.00    -0.152 NA
HETATM    5  C   UNL     1       5.320  29.491  55.076  1.00  0.00     0.170 A 
ENDROOT
BRANCH   5   6
HETATM    6  C   UNL     1       5.716  28.256  54.411  1.00  0.00     0.293 C 
HETATM    7  N   UNL     1       5.077  27.127  54.882  1.00  0.00    -0.242 N 
HETATM    8  H   UNL     1       4.380  27.196  55.620  1.00  0.00     0.192 HD
HETATM    9  O   UNL     1       6.593  28.275  53.550  1.00  0.00    -0.264 OA
BRANCH   7  10
HETATM   10  N   UNL     1       5.468  25.908  54.419  1.00  0.00    -0.184 NA
HETATM   11  C   UNL     1       6.500  25.378  54.994  1.00  0.00     0.150 C 
BRANCH  11  12
HETATM   12  C   UNL     1       7.026  24.068  54.557  1.00  0.00    -0.016 A 
HETATM   13  C   UNL     1       7.311  23.097  55.520  1.00  0.00     0.032 A 
HETATM   14  C   UNL     1       7.825  21.867  55.111  1.00  0.00     0.011 A 
HETATM   15 BR   UNL     1       8.223  20.546  56.404  1.00  0.00    -0.051 Br
HETATM   16  C   UNL     1       8.051  21.600  53.760  1.00  0.00     0.019 A 
HETATM   17  C   UNL     1       7.762  22.572  52.803  1.00  0.00     0.002 A 
HETATM   18  C   UNL     1       7.250  23.807  53.200  1.00  0.00     0.013 A 
ENDBRANCH  11  12
ENDBRANCH   7  10
ENDBRANCH   5   6
BRANCH   1  19
HETATM   19  C   UNL     1       6.519  29.218  57.371  1.00  0.00     0.296 C 
BRANCH  19  20
HETATM   20  N   UNL     1       7.902  29.840  57.531  1.00  0.00    -0.066 N 
HETATM   21  H   UNL     1       7.880  30.724  57.008  1.00  0.00     0.280 HD
BRANCH  20  22
HETATM   22  C   UNL     1       8.959  28.936  56.901  1.00  0.00     0.235 C 
BRANCH  22  23
HETATM   23  C   UNL     1      10.122  29.728  56.307  1.00  0.00     0.023 C 
HETATM   24  C   UNL     1      11.338  29.793  57.220  1.00  0.00     0.007 C 
ENDBRANCH  22  23
ENDBRANCH  20  22
BRANCH  20  25
HETATM   25  C   UNL     1       8.238  30.139  58.986  1.00  0.00     0.235 C 
BRANCH  25  26
HETATM   26  C   UNL     1       8.386  31.634  59.272  1.00  0.00     0.023 C 
HETATM   27  C   UNL     1       9.601  31.983  60.117  1.00  0.00     0.007 C 
ENDBRANCH  25  26
ENDBRANCH  20  25
ENDBRANCH  19  20
ENDBRANCH   1  19
BRANCH   2  28
HETATM   28  C   UNL     1       4.794  31.839  57.733  1.00  0.00     0.225 A 
HETATM   29  N   UNL     1       5.439  33.002  57.852  1.00  0.00    -0.081 NA
HETATM   30  O   UNL     1       5.067  33.457  59.123  1.00  0.00    -0.103 OA
HETATM   31  N   UNL     1       4.231  32.548  59.755  1.00  0.00    -0.083 NA
HETATM   32  C   UNL     1       4.062  31.544  58.897  1.00  0.00     0.201 A 
BRANCH  32  33
HETATM   33  N   UNL     1       3.312  30.458  59.132  1.00  0.00    -0.379 N 
HETATM   34  H   UNL     1       2.646  30.449  59.901  1.00  0.00     0.158 HD
HETATM   35  H   UNL     1       3.439  29.562  58.666  1.00  0.00     0.158 HD
ENDBRANCH  32  33
ENDBRANCH   2  28
TORSDOF 11
ENDMDL
MODEL 2
REMARK VINA RESULT:      -8.5      2.027      3.350
REMARK  11 active torsions:
REMARK  status: ('A' for Active; 'I' for Inactive)
REMARK    1  A    between atoms: C_2  and  C_3 
REMARK    2  A    between atoms: C_3  and  N_4 
REMARK    3  A    between atoms: N_4  and  C_6 
REMARK    4  A    between atoms: N_4  and  C_30 
REMARK    5  A    between atoms: C_6  and  C_7 
REMARK    6  A    between atoms: N_8  and  C_9 
REMARK    7  A    between atoms: C_13  and  N_14 
REMARK    8  A    between atoms: C_17  and  C_18 
REMARK       I    between atoms: C_18  and  N_19 
REMARK    9  A    between atoms: N_19  and  N_20 
REMARK   10  A    between atoms: C_21  and  C_22 
REMARK   11  A    between atoms: C_30  and  C_31 
ROOT
HETATM    1  C   UNL     1       5.361  31.566  58.976  1.00  0.00     0.096 A 
HETATM    2  N   UNL     1       4.458  32.169  59.846  1.00  0.00    -0.215 N 
HETATM    3  N   UNL     1       3.196  31.928  59.403  1.00  0.00     0.012 NA
HETATM    4  N   UNL     1       3.248  31.135  58.346  1.00  0.00    -0.152 NA
HETATM    5  C   UNL     1       4.559  30.898  58.059  1.00  0.00     0.170 A 
ENDROOT
BRANCH   5   6
HETATM    6  C   UNL     1       5.008  30.037  56.972  1.00  0.00     0.293 C 
HETATM    7  N   UNL     1       4.980  28.688  57.268  1.00  0.00    -0.242 N 
HETATM    8  H   UNL     1       4.649  28.363  58.173  1.00  0.00     0.192 HD
HETATM    9  O   UNL     1       5.421  30.531  55.925  1.00  0.00    -0.264 OA
BRANCH   7  10
HETATM   10  N   UNL     1       5.501  27.807  56.370  1.00  0.00    -0.184 NA
HETATM   11  C   UNL     1       5.330  26.551  56.630  1.00  0.00     0.150 C 
BRANCH  11  12
HETATM   12  C   UNL     1       5.872  25.507  55.737  1.00  0.00    -0.016 A 
HETATM   13  C   UNL     1       6.695  24.515  56.275  1.00  0.00     0.032 A 
HETATM   14  C   UNL     1       7.222  23.539  55.430  1.00  0.00     0.011 A 
HETATM   15 BR   UNL     1       8.344  22.193  56.144  1.00  0.00    -0.051 Br
HETATM   16  C   UNL     1       6.935  23.543  54.064  1.00  0.00     0.019 A 
HETATM   17  C   UNL     1       6.111  24.536  53.533  1.00  0.00     0.002 A 
HETATM   18  C   UNL     1       5.580  25.519  54.368  1.00  0.00     0.013 A 
ENDBRANCH  11  12
ENDBRANCH   7  10
ENDBRANCH   5   6
BRANCH   1  19
HETATM   19  C   UNL     1       6.839  31.719  59.010  1.00  0.00     0.296 C 
BRANCH  19  20
HETATM   20  N   UNL     1       7.638  30.470  59.370  1.00  0.00    -0.066 N 
HETATM   21  H   UNL     1       6.950  29.765  59.662  1.00  0.00     0.280 HD
BRANCH  20  22
HETATM   22  C   UNL     1       8.559  30.760  60.553  1.00  0.00     0.235 C 
BRANCH  22  23
HETATM   23  C   UNL     1       8.355  32.166  61.117  1.00  0.00     0.023 C 
HETATM   24  C   UNL     1       8.447  32.227  62.634  1.00  0.00     0.007 C 
ENDBRANCH  22  23
ENDBRANCH  20  22
BRANCH  20  25
HETATM   25  C   UNL     1       8.426  29.925  58.186  1.00  0.00     0.235 C 
BRANCH  25  26
HETATM   26  C   UNL     1       9.875  30.413  58.155  1.00  0.00     0.023 C 
HETATM   27  C   UNL     1      10.701  29.819  57.025  1.00  0.00     0.007 C 
ENDBRANCH  25  26
ENDBRANCH  20  25
ENDBRANCH  19  20
ENDBRANCH   1  19
BRANCH   2  28
HETATM   28  C   UNL     1       4.718  32.877  61.043  1.00  0.00     0.225 A 
HETATM   29  N   UNL     1       4.985  34.184  60.996  1.00  0.00    -0.081 NA
HETATM   30  O   UNL     1       5.198  34.526  62.337  1.00  0.00    -0.103 OA
HETATM   31  N   UNL     1       5.083  33.415  63.160  1.00  0.00    -0.083 NA
HETATM   32  C   UNL     1       4.789  32.393  62.361  1.00  0.00     0.201 A 
BRANCH  32  33
HETATM   33  N   UNL     1       4.593  31.133  62.776  1.00  0.00    -0.379 N 
HETATM   34  H   UNL     1       4.797  30.869  63.737  1.00  0.00     0.158 HD
HETATM   35  H   UNL     1       4.363  30.356  62.159  1.00  0.00     0.158 HD
ENDBRANCH  32  33
ENDBRANCH   2  28
TORSDOF 11
ENDMDL
MODEL 3
REMARK VINA RESULT:      -8.4      1.269      2.146
REMARK  11 active torsions:
REMARK  status: ('A' for Active; 'I' for Inactive)
REMARK    1  A    between atoms: C_2  and  C_3 
REMARK    2  A    between atoms: C_3  and  N_4 
REMARK    3  A    between atoms: N_4  and  C_6 
REMARK    4  A    between atoms: N_4  and  C_30 
REMARK    5  A    between atoms: C_6  and  C_7 
REMARK    6  A    between atoms: N_8  and  C_9 
REMARK    7  A    between atoms: C_13  and  N_14 
REMARK    8  A    between atoms: C_17  and  C_18 
REMARK       I    between atoms: C_18  and  N_19 
REMARK    9  A    between atoms: N_19  and  N_20 
REMARK   10  A    between atoms: C_21  and  C_22 
REMARK   11  A    between atoms: C_30  and  C_31 
ROOT
HETATM    1  C   UNL     1       5.262  30.586  57.417  1.00  0.00     0.096 A 
HETATM    2  N   UNL     1       4.122  31.188  57.943  1.00  0.00    -0.215 N 
HETATM    3  N   UNL     1       3.027  30.643  57.350  1.00  0.00     0.012 NA
HETATM    4  N   UNL     1       3.407  29.671  56.538  1.00  0.00    -0.152 NA
HETATM    5  C   UNL     1       4.769  29.613  56.556  1.00  0.00     0.170 A 
ENDROOT
BRANCH   5   6
HETATM    6  C   UNL     1       5.548  28.638  55.804  1.00  0.00     0.293 C 
HETATM    7  N   UNL     1       5.709  27.424  56.443  1.00  0.00    -0.242 N 
HETATM    8  H   UNL     1       5.286  27.258  57.353  1.00  0.00     0.192 HD
HETATM    9  O   UNL     1       6.045  28.949  54.723  1.00  0.00    -0.264 OA
BRANCH   7  10
HETATM   10  N   UNL     1       6.528  26.491  55.885  1.00  0.00    -0.184 NA
HETATM   11  C   UNL     1       5.950  25.478  55.326  1.00  0.00     0.150 C 
BRANCH  11  12
HETATM   12  C   UNL     1       6.742  24.393  54.709  1.00  0.00    -0.016 A 
HETATM   13  C   UNL     1       7.110  23.295  55.489  1.00  0.00     0.032 A 
HETATM   14  C   UNL     1       7.872  22.279  54.913  1.00  0.00     0.011 A 
HETATM   15 BR   UNL     1       8.383  20.789  55.960  1.00  0.00    -0.051 Br
HETATM   16  C   UNL     1       8.264  22.349  53.576  1.00  0.00     0.019 A 
HETATM   17  C   UNL     1       7.892  23.448  52.802  1.00  0.00     0.002 A 
HETATM   18  C   UNL     1       7.132  24.471  53.367  1.00  0.00     0.013 A 
ENDBRANCH  11  12
ENDBRANCH   7  10
ENDBRANCH   5   6
BRANCH   1  19
HETATM   19  C   UNL     1       6.665  30.998  57.679  1.00  0.00     0.296 C 
BRANCH  19  20
HETATM   20  N   UNL     1       7.327  30.394  58.914  1.00  0.00    -0.066 N 
HETATM   21  H   UNL     1       6.680  29.675  59.262  1.00  0.00     0.280 HD
BRANCH  20  22
HETATM   22  C   UNL     1       7.486  31.459  59.997  1.00  0.00     0.235 C 
BRANCH  22  23
HETATM   23  C   UNL     1       8.896  32.044  60.034  1.00  0.00     0.023 C 
HETATM   24  C   UNL     1       9.591  31.861  61.375  1.00  0.00     0.007 C 
ENDBRANCH  22  23
ENDBRANCH  20  22
BRANCH  20  25
HETATM   25  C   UNL     1       8.663  29.738  58.594  1.00  0.00     0.235 C 
BRANCH  25  26
HETATM   26  C   UNL     1       8.911  29.584  57.093  1.00  0.00     0.023 C 
HETATM   27  C   UNL     1      10.365  29.767  56.686  1.00  0.00     0.007 C 
ENDBRANCH  25  26
ENDBRANCH  20  25
ENDBRANCH  19  20
ENDBRANCH   1  19
BRANCH   2  28
HETATM   28  C   UNL     1       4.025  32.162  58.964  1.00  0.00     0.225 A 
HETATM   29  N   UNL     1       4.524  33.384  58.766  1.00  0.00    -0.081 NA
HETATM   30  O   UNL     1       4.262  34.047  59.970  1.00  0.00    -0.103 OA
HETATM   31  N   UNL     1       3.637  33.206  60.879  1.00  0.00    -0.083 NA
HETATM   32  C   UNL     1       3.491  32.037  60.259  1.00  0.00     0.201 A 
BRANCH  32  33
HETATM   33  N   UNL     1       2.923  30.951  60.803  1.00  0.00    -0.379 N 
HETATM   34  H   UNL     1       1.944  30.739  60.626  1.00  0.00     0.158 HD
HETATM   35  H   UNL     1       3.369  30.362  61.504  1.00  0.00     0.158 HD
ENDBRANCH  32  33
ENDBRANCH   2  28
TORSDOF 11
ENDMDL
MODEL 4
REMARK VINA RESULT:      -8.3      4.097      9.340
REMARK  11 active torsions:
REMARK  status: ('A' for Active; 'I' for Inactive)
REMARK    1  A    between atoms: C_2  and  C_3 
REMARK    2  A    between atoms: C_3  and  N_4 
REMARK    3  A    between atoms: N_4  and  C_6 
REMARK    4  A    between atoms: N_4  and  C_30 
REMARK    5  A    between atoms: C_6  and  C_7 
REMARK    6  A    between atoms: N_8  and  C_9 
REMARK    7  A    between atoms: C_13  and  N_14 
REMARK    8  A    between atoms: C_17  and  C_18 
REMARK       I    between atoms: C_18  and  N_19 
REMARK    9  A    between atoms: N_19  and  N_20 
REMARK   10  A    between atoms: C_21  and  C_22 
REMARK   11  A    between atoms: C_30  and  C_31 
ROOT
HETATM    1  C   UNL     1       7.473  23.924  55.289  1.00  0.00     0.096 A 
HETATM    2  N   UNL     1       8.368  22.870  55.131  1.00  0.00    -0.215 N 
HETATM    3  N   UNL     1       9.296  22.932  56.122  1.00  0.00     0.012 NA
HETATM    4  N   UNL     1       8.989  23.919  56.948  1.00  0.00    -0.152 NA
HETATM    5  C   UNL     1       7.879  24.546  56.464  1.00  0.00     0.170 A 
ENDROOT
BRANCH   5   6
HETATM    6  C   UNL     1       7.228  25.667  57.127  1.00  0.00     0.293 C 
HETATM    7  N   UNL     1       8.061  26.738  57.385  1.00  0.00    -0.242 N 
HETATM    8  H   UNL     1       9.038  26.713  57.102  1.00  0.00     0.192 HD
HETATM    9  O   UNL     1       6.047  25.585  57.458  1.00  0.00    -0.264 OA
BRANCH   7  10
HETATM   10  N   UNL     1       7.585  27.781  58.117  1.00  0.00    -0.184 NA
HETATM   11  C   UNL     1       8.057  28.951  57.827  1.00  0.00     0.150 C 
BRANCH  11  12
HETATM   12  C   UNL     1       7.627  30.153  58.572  1.00  0.00    -0.016 A 
HETATM   13  C   UNL     1       8.245  30.454  59.787  1.00  0.00     0.032 A 
HETATM   14  C   UNL     1       7.828  31.578  60.500  1.00  0.00     0.011 A 
HETATM   15 BR   UNL     1       8.652  31.993  62.151  1.00  0.00    -0.051 Br
HETATM   16  C   UNL     1       6.810  32.397  60.012  1.00  0.00     0.019 A 
HETATM   17  C   UNL     1       6.198  32.093  58.796  1.00  0.00     0.002 A 
HETATM   18  C   UNL     1       6.605  30.970  58.075  1.00  0.00     0.013 A 
ENDBRANCH  11  12
ENDBRANCH   7  10
ENDBRANCH   5   6
BRANCH   1  19
HETATM   19  C   UNL     1       6.402  24.310  54.333  1.00  0.00     0.296 C 
BRANCH  19  20
HETATM   20  N   UNL     1       6.624  25.605  53.558  1.00  0.00    -0.066 N 
HETATM   21  H   UNL     1       7.575  25.917  53.790  1.00  0.00     0.280 HD
BRANCH  20  22
HETATM   22  C   UNL     1       5.641  26.674  54.033  1.00  0.00     0.235 C 
BRANCH  22  23
HETATM   23  C   UNL     1       6.342  27.968  54.439  1.00  0.00     0.023 C 
HETATM   24  C   UNL     1       7.814  28.004  54.059  1.00  0.00     0.007 C 
ENDBRANCH  22  23
ENDBRANCH  20  22
BRANCH  20  25
HETATM   25  C   UNL     1       6.526  25.404  52.052  1.00  0.00     0.235 C 
BRANCH  25  26
HETATM   26  C   UNL     1       5.092  25.485  51.528  1.00  0.00     0.023 C 
HETATM   27  C   UNL     1       4.955  26.259  50.226  1.00  0.00     0.007 C 
ENDBRANCH  25  26
ENDBRANCH  20  25
ENDBRANCH  19  20
ENDBRANCH   1  19
BRANCH   2  28
HETATM   28  C   UNL     1       8.354  21.831  54.171  1.00  0.00     0.225 A 
HETATM   29  N   UNL     1       7.967  22.089  52.919  1.00  0.00    -0.081 NA
HETATM   30  O   UNL     1       8.067  20.848  52.281  1.00  0.00    -0.103 OA
HETATM   31  N   UNL     1       8.484  19.863  53.164  1.00  0.00    -0.083 NA
HETATM   32  C   UNL     1       8.660  20.469  54.336  1.00  0.00     0.201 A 
BRANCH  32  33
HETATM   33  N   UNL     1       9.066  19.857  55.457  1.00  0.00    -0.379 N 
HETATM   34  H   UNL     1       8.440  19.773  56.254  1.00  0.00     0.158 HD
HETATM   35  H   UNL     1      10.026  19.564  55.634  1.00  0.00     0.158 HD
ENDBRANCH  32  33
ENDBRANCH   2  28
TORSDOF 11
ENDMDL
MODEL 5
REMARK VINA RESULT:      -8.2      2.444      4.222
REMARK  11 active torsions:
REMARK  status: ('A' for Active; 'I' for Inactive)
REMARK    1  A    between atoms: C_2  and  C_3 
REMARK    2  A    between atoms: C_3  and  N_4 
REMARK    3  A    between atoms: N_4  and  C_6 
REMARK    4  A    between atoms: N_4  and  C_30 
REMARK    5  A    between atoms: C_6  and  C_7 
REMARK    6  A    between atoms: N_8  and  C_9 
REMARK    7  A    between atoms: C_13  and  N_14 
REMARK    8  A    between atoms: C_17  and  C_18 
REMARK       I    between atoms: C_18  and  N_19 
REMARK    9  A    between atoms: N_19  and  N_20 
REMARK   10  A    between atoms: C_21  and  C_22 
REMARK   11  A    between atoms: C_30  and  C_31 
ROOT
HETATM    1  C   UNL     1       5.172  31.904  59.763  1.00  0.00     0.096 A 
HETATM    2  N   UNL     1       4.220  32.319  60.689  1.00  0.00    -0.215 N 
HETATM    3  N   UNL     1       2.982  32.084  60.179  1.00  0.00     0.012 NA
HETATM    4  N   UNL     1       3.098  31.466  59.016  1.00  0.00    -0.152 NA
HETATM    5  C   UNL     1       4.426  31.343  58.733  1.00  0.00     0.170 A 
ENDROOT
BRANCH   5   6
HETATM    6  C   UNL     1       4.943  30.682  57.541  1.00  0.00     0.293 C 
HETATM    7  N   UNL     1       4.838  29.305  57.565  1.00  0.00    -0.242 N 
HETATM    8  H   UNL     1       4.411  28.832  58.358  1.00  0.00     0.192 HD
HETATM    9  O   UNL     1       5.471  31.344  56.650  1.00  0.00    -0.264 OA
BRANCH   7  10
HETATM   10  N   UNL     1       5.408  28.585  56.560  1.00  0.00    -0.184 NA
HETATM   11  C   UNL     1       5.792  27.385  56.858  1.00  0.00     0.150 C 
BRANCH  11  12
HETATM   12  C   UNL     1       6.444  26.522  55.852  1.00  0.00    -0.016 A 
HETATM   13  C   UNL     1       6.669  25.178  56.156  1.00  0.00     0.032 A 
HETATM   14  C   UNL     1       7.301  24.365  55.215  1.00  0.00     0.011 A 
HETATM   15 BR   UNL     1       7.618  22.545  55.616  1.00  0.00    -0.051 Br
HETATM   16  C   UNL     1       7.703  24.880  53.981  1.00  0.00     0.019 A 
HETATM   17  C   UNL     1       7.474  26.223  53.683  1.00  0.00     0.002 A 
HETATM   18  C   UNL     1       6.845  27.046  54.617  1.00  0.00     0.013 A 
ENDBRANCH  11  12
ENDBRANCH   7  10
ENDBRANCH   5   6
BRANCH   1  19
HETATM   19  C   UNL     1       6.638  32.124  59.861  1.00  0.00     0.296 C 
BRANCH  19  20
HETATM   20  N   UNL     1       7.487  30.894  60.166  1.00  0.00    -0.066 N 
HETATM   21  H   UNL     1       6.840  30.096  60.175  1.00  0.00     0.280 HD
BRANCH  20  22
HETATM   22  C   UNL     1       8.111  31.020  61.555  1.00  0.00     0.235 C 
BRANCH  22  23
HETATM   23  C   UNL     1       8.133  32.464  62.053  1.00  0.00     0.023 C 
HETATM   24  C   UNL     1       7.984  32.584  63.563  1.00  0.00     0.007 C 
ENDBRANCH  22  23
ENDBRANCH  20  22
BRANCH  20  25
HETATM   25  C   UNL     1       8.555  30.650  59.108  1.00  0.00     0.235 C 
BRANCH  25  26
HETATM   26  C   UNL     1       8.367  29.330  58.360  1.00  0.00     0.023 C 
HETATM   27  C   UNL     1       9.121  29.256  57.042  1.00  0.00     0.007 C 
ENDBRANCH  25  26
ENDBRANCH  20  25
ENDBRANCH  19  20
ENDBRANCH   1  19
BRANCH   2  28
HETATM   28  C   UNL     1       4.416  32.849  61.986  1.00  0.00     0.225 A 
HETATM   29  N   UNL     1       4.280  32.057  63.053  1.00  0.00    -0.081 NA
HETATM   30  O   UNL     1       4.528  32.913  64.132  1.00  0.00    -0.103 OA
HETATM   31  N   UNL     1       4.779  34.207  63.698  1.00  0.00    -0.083 NA
HETATM   32  C   UNL     1       4.708  34.169  62.369  1.00  0.00     0.201 A 
BRANCH  32  33
HETATM   33  N   UNL     1       4.895  35.226  61.565  1.00  0.00    -0.379 N 
HETATM   34  H   UNL     1       5.431  35.132  60.706  1.00  0.00     0.158 HD
HETATM   35  H   UNL     1       4.642  36.182  61.809  1.00  0.00     0.158 HD
ENDBRANCH  32  33
ENDBRANCH   2  28
TORSDOF 11
ENDMDL
MODEL 6
REMARK VINA RESULT:      -8.1      1.981      3.828
REMARK  11 active torsions:
REMARK  status: ('A' for Active; 'I' for Inactive)
REMARK    1  A    between atoms: C_2  and  C_3 
REMARK    2  A    between atoms: C_3  and  N_4 
REMARK    3  A    between atoms: N_4  and  C_6 
REMARK    4  A    between atoms: N_4  and  C_30 
REMARK    5  A    between atoms: C_6  and  C_7 
REMARK    6  A    between atoms: N_8  and  C_9 
REMARK    7  A    between atoms: C_13  and  N_14 
REMARK    8  A    between atoms: C_17  and  C_18 
REMARK       I    between atoms: C_18  and  N_19 
REMARK    9  A    between atoms: N_19  and  N_20 
REMARK   10  A    between atoms: C_21  and  C_22 
REMARK   11  A    between atoms: C_30  and  C_31 
ROOT
HETATM    1  C   UNL     1       6.699  30.297  57.835  1.00  0.00     0.096 A 
HETATM    2  N   UNL     1       6.679  31.190  58.902  1.00  0.00    -0.215 N 
HETATM    3  N   UNL     1       7.668  30.853  59.773  1.00  0.00     0.012 NA
HETATM    4  N   UNL     1       8.365  29.846  59.274  1.00  0.00    -0.152 NA
HETATM    5  C   UNL     1       7.796  29.482  58.090  1.00  0.00     0.170 A 
ENDROOT
BRANCH   5   6
HETATM    6  C   UNL     1       8.313  28.423  57.234  1.00  0.00     0.293 C 
HETATM    7  N   UNL     1       7.458  27.349  57.081  1.00  0.00    -0.242 N 
HETATM    8  H   UNL     1       6.545  27.345  57.530  1.00  0.00     0.192 HD
HETATM    9  O   UNL     1       9.445  28.508  56.764  1.00  0.00    -0.264 OA
BRANCH   7  10
HETATM   10  N   UNL     1       7.897  26.250  56.408  1.00  0.00    -0.184 NA
HETATM   11  C   UNL     1       6.999  25.565  55.776  1.00  0.00     0.150 C 
BRANCH  11  12
HETATM   12  C   UNL     1       7.359  24.341  55.031  1.00  0.00    -0.016 A 
HETATM   13  C   UNL     1       7.479  23.135  55.725  1.00  0.00     0.032 A 
HETATM   14  C   UNL     1       7.836  21.982  55.026  1.00  0.00     0.011 A 
HETATM   15 BR   UNL     1       8.009  20.344  55.956  1.00  0.00    -0.051 Br
HETATM   16  C   UNL     1       8.068  22.023  53.651  1.00  0.00     0.019 A 
HETATM   17  C   UNL     1       7.944  23.229  52.963  1.00  0.00     0.002 A 
HETATM   18  C   UNL     1       7.591  24.390  53.651  1.00  0.00     0.013 A 
ENDBRANCH  11  12
ENDBRANCH   7  10
ENDBRANCH   5   6
BRANCH   1  19
HETATM   19  C   UNL     1       5.691  30.217  56.746  1.00  0.00     0.296 C 
BRANCH  19  20
HETATM   20  N   UNL     1       4.391  29.493  57.083  1.00  0.00    -0.066 N 
HETATM   21  H   UNL     1       4.516  29.105  58.026  1.00  0.00     0.280 HD
BRANCH  20  22
HETATM   22  C   UNL     1       4.172  28.333  56.114  1.00  0.00     0.235 C 
BRANCH  22  23
HETATM   23  C   UNL     1       4.856  28.564  54.767  1.00  0.00     0.023 C 
HETATM   24  C   UNL     1       3.896  28.533  53.588  1.00  0.00     0.007 C 
ENDBRANCH  22  23
ENDBRANCH  20  22
BRANCH  20  25
HETATM   25  C   UNL     1       3.191  30.430  57.092  1.00  0.00     0.235 C 
BRANCH  25  26
HETATM   26  C   UNL     1       3.393  31.673  56.224  1.00  0.00     0.023 C 
HETATM   27  C   UNL     1       2.366  31.822  55.113  1.00  0.00     0.007 C 
ENDBRANCH  25  26
ENDBRANCH  20  25
ENDBRANCH  19  20
ENDBRANCH   1  19
BRANCH   2  28
HETATM   28  C   UNL     1       5.850  32.319  59.099  1.00  0.00     0.225 A 
HETATM   29  N   UNL     1       5.726  33.228  58.129  1.00  0.00    -0.081 NA
HETATM   30  O   UNL     1       4.862  34.182  58.678  1.00  0.00    -0.103 OA
HETATM   31  N   UNL     1       4.506  33.845  59.976  1.00  0.00    -0.083 NA
HETATM   32  C   UNL     1       5.119  32.693  60.240  1.00  0.00     0.201 A 
BRANCH  32  33
HETATM   33  N   UNL     1       5.027  32.028  61.400  1.00  0.00    -0.379 N 
HETATM   34  H   UNL     1       5.106  32.524  62.286  1.00  0.00     0.158 HD
HETATM   35  H   UNL     1       5.005  31.013  61.479  1.00  0.00     0.158 HD
ENDBRANCH  32  33
ENDBRANCH   2  28
TORSDOF 11
ENDMDL
MODEL 7
REMARK VINA RESULT:      -8.0      2.242      4.130
REMARK  11 active torsions:
REMARK  status: ('A' for Active; 'I' for Inactive)
REMARK    1  A    between atoms: C_2  and  C_3 
REMARK    2  A    between atoms: C_3  and  N_4 
REMARK    3  A    between atoms: N_4  and  C_6 
REMARK    4  A    between atoms: N_4  and  C_30 
REMARK    5  A    between atoms: C_6  and  C_7 
REMARK    6  A    between atoms: N_8  and  C_9 
REMARK    7  A    between atoms: C_13  and  N_14 
REMARK    8  A    between atoms: C_17  and  C_18 
REMARK       I    between atoms: C_18  and  N_19 
REMARK    9  A    between atoms: N_19  and  N_20 
REMARK   10  A    between atoms: C_21  and  C_22 
REMARK   11  A    between atoms: C_30  and  C_31 
ROOT
HETATM    1  C   UNL     1       6.249  29.123  57.514  1.00  0.00     0.096 A 
HETATM    2  N   UNL     1       6.218  30.381  58.108  1.00  0.00    -0.215 N 
HETATM    3  N   UNL     1       7.350  30.546  58.842  1.00  0.00     0.012 NA
HETATM    4  N   UNL     1       8.134  29.494  58.679  1.00  0.00    -0.152 NA
HETATM    5  C   UNL     1       7.487  28.605  57.873  1.00  0.00     0.170 A 
ENDROOT
BRANCH   5   6
HETATM    6  C   UNL     1       8.058  27.334  57.445  1.00  0.00     0.293 C 
HETATM    7  N   UNL     1       7.292  26.231  57.765  1.00  0.00    -0.242 N 
HETATM    8  H   UNL     1       6.401  26.340  58.244  1.00  0.00     0.192 HD
HETATM    9  O   UNL     1       9.160  27.306  56.901  1.00  0.00    -0.264 OA
BRANCH   7  10
HETATM   10  N   UNL     1       7.796  24.989  57.527  1.00  0.00    -0.184 NA
HETATM   11  C   UNL     1       7.304  24.353  56.513  1.00  0.00     0.150 C 
BRANCH  11  12
HETATM   12  C   UNL     1       7.760  22.989  56.174  1.00  0.00    -0.016 A 
HETATM   13  C   UNL     1       7.690  22.560  54.847  1.00  0.00     0.032 A 
HETATM   14  C   UNL     1       8.104  21.267  54.529  1.00  0.00     0.011 A 
HETATM   15 BR   UNL     1       8.007  20.671  52.737  1.00  0.00    -0.051 Br
HETATM   16  C   UNL     1       8.585  20.407  55.516  1.00  0.00     0.019 A 
HETATM   17  C   UNL     1       8.655  20.841  56.840  1.00  0.00     0.002 A 
HETATM   18  C   UNL     1       8.242  22.131  57.171  1.00  0.00     0.013 A 
ENDBRANCH  11  12
ENDBRANCH   7  10
ENDBRANCH   5   6
BRANCH   1  19
HETATM   19  C   UNL     1       5.137  28.488  56.759  1.00  0.00     0.296 C 
BRANCH  19  20
HETATM   20  N   UNL     1       5.274  28.476  55.240  1.00  0.00    -0.066 N 
HETATM   21  H   UNL     1       6.084  29.069  55.021  1.00  0.00     0.280 HD
BRANCH  20  22
HETATM   22  C   UNL     1       4.037  29.101  54.598  1.00  0.00     0.235 C 
BRANCH  22  23
HETATM   23  C   UNL     1       4.198  30.602  54.366  1.00  0.00     0.023 C 
HETATM   24  C   UNL     1       2.978  31.412  54.780  1.00  0.00     0.007 C 
ENDBRANCH  22  23
ENDBRANCH  20  22
BRANCH  20  25
HETATM   25  C   UNL     1       5.526  27.078  54.691  1.00  0.00     0.235 C 
BRANCH  25  26
HETATM   26  C   UNL     1       6.565  27.052  53.570  1.00  0.00     0.023 C 
HETATM   27  C   UNL     1       7.774  27.938  53.829  1.00  0.00     0.007 C 
ENDBRANCH  25  26
ENDBRANCH  20  25
ENDBRANCH  19  20
ENDBRANCH   1  19
BRANCH   2  28
HETATM   28  C   UNL     1       5.247  31.401  57.975  1.00  0.00     0.225 A 
HETATM   29  N   UNL     1       5.553  32.528  57.328  1.00  0.00    -0.081 NA
HETATM   30  O   UNL     1       4.379  33.286  57.412  1.00  0.00    -0.103 OA
HETATM   31  N   UNL     1       3.400  32.615  58.131  1.00  0.00    -0.083 NA
HETATM   32  C   UNL     1       3.937  31.448  58.483  1.00  0.00     0.201 A 
BRANCH  32  33
HETATM   33  N   UNL     1       3.306  30.502  59.194  1.00  0.00    -0.379 N 
HETATM   34  H   UNL     1       3.762  29.614  59.388  1.00  0.00     0.158 HD
HETATM   35  H   UNL     1       2.325  30.547  59.463  1.00  0.00     0.158 HD
ENDBRANCH  32  33
ENDBRANCH   2  28
TORSDOF 11
ENDMDL
MODEL 8
REMARK VINA RESULT:      -8.0      4.127      9.373
REMARK  11 active torsions:
REMARK  status: ('A' for Active; 'I' for Inactive)
REMARK    1  A    between atoms: C_2  and  C_3 
REMARK    2  A    between atoms: C_3  and  N_4 
REMARK    3  A    between atoms: N_4  and  C_6 
REMARK    4  A    between atoms: N_4  and  C_30 
REMARK    5  A    between atoms: C_6  and  C_7 
REMARK    6  A    between atoms: N_8  and  C_9 
REMARK    7  A    between atoms: C_13  and  N_14 
REMARK    8  A    between atoms: C_17  and  C_18 
REMARK       I    between atoms: C_18  and  N_19 
REMARK    9  A    between atoms: N_19  and  N_20 
REMARK   10  A    between atoms: C_21  and  C_22 
REMARK   11  A    between atoms: C_30  and  C_31 
ROOT
HETATM    1  C   UNL     1       7.479  24.005  55.313  1.00  0.00     0.096 A 
HETATM    2  N   UNL     1       8.402  22.989  55.081  1.00  0.00    -0.215 N 
HETATM    3  N   UNL     1       9.415  23.105  55.981  1.00  0.00     0.012 NA
HETATM    4  N   UNL     1       9.143  24.089  56.822  1.00  0.00    -0.152 NA
HETATM    5  C   UNL     1       7.966  24.660  56.438  1.00  0.00     0.170 A 
ENDROOT
BRANCH   5   6
HETATM    6  C   UNL     1       7.330  25.761  57.149  1.00  0.00     0.293 C 
HETATM    7  N   UNL     1       8.173  26.818  57.432  1.00  0.00    -0.242 N 
HETATM    8  H   UNL     1       9.146  26.797  57.135  1.00  0.00     0.192 HD
HETATM    9  O   UNL     1       6.153  25.674  57.493  1.00  0.00    -0.264 OA
BRANCH   7  10
HETATM   10  N   UNL     1       7.713  27.838  58.206  1.00  0.00    -0.184 NA
HETATM   11  C   UNL     1       8.089  29.030  57.871  1.00  0.00     0.150 C 
BRANCH  11  12
HETATM   12  C   UNL     1       7.667  30.210  58.654  1.00  0.00    -0.016 A 
HETATM   13  C   UNL     1       6.623  31.004  58.175  1.00  0.00     0.032 A 
HETATM   14  C   UNL     1       6.236  32.128  58.903  1.00  0.00     0.011 A 
HETATM   15 BR   UNL     1       4.827  33.216  58.262  1.00  0.00    -0.051 Br
HETATM   16  C   UNL     1       6.876  32.462  60.097  1.00  0.00     0.019 A 
HETATM   17  C   UNL     1       7.917  31.665  60.571  1.00  0.00     0.002 A 
HETATM   18  C   UNL     1       8.315  30.539  59.851  1.00  0.00     0.013 A 
ENDBRANCH  11  12
ENDBRANCH   7  10
ENDBRANCH   5   6
BRANCH   1  19
HETATM   19  C   UNL     1       6.308  24.331  54.458  1.00  0.00     0.296 C 
BRANCH  19  20
HETATM   20  N   UNL     1       6.441  25.568  53.575  1.00  0.00    -0.066 N 
HETATM   21  H   UNL     1       7.415  25.881  53.667  1.00  0.00     0.280 HD
BRANCH  20  22
HETATM   22  C   UNL     1       5.530  26.680  54.092  1.00  0.00     0.235 C 
BRANCH  22  23
HETATM   23  C   UNL     1       6.314  27.911  54.544  1.00  0.00     0.023 C 
HETATM   24  C   UNL     1       7.766  27.902  54.091  1.00  0.00     0.007 C 
ENDBRANCH  22  23
ENDBRANCH  20  22
BRANCH  20  25
HETATM   25  C   UNL     1       6.157  25.267  52.110  1.00  0.00     0.235 C 
BRANCH  25  26
HETATM   26  C   UNL     1       5.609  26.473  51.345  1.00  0.00     0.023 C 
HETATM   27  C   UNL     1       4.920  26.112  50.038  1.00  0.00     0.007 C 
ENDBRANCH  25  26
ENDBRANCH  20  25
ENDBRANCH  19  20
ENDBRANCH   1  19
BRANCH   2  28
HETATM   28  C   UNL     1       8.345  21.937  54.137  1.00  0.00     0.225 A 
HETATM   29  N   UNL     1       7.939  22.187  52.890  1.00  0.00    -0.081 NA
HETATM   30  O   UNL     1       7.998  20.935  52.267  1.00  0.00    -0.103 OA
HETATM   31  N   UNL     1       8.408  19.952  53.156  1.00  0.00    -0.083 NA
HETATM   32  C   UNL     1       8.621  20.571  54.316  1.00  0.00     0.201 A 
BRANCH  32  33
HETATM   33  N   UNL     1       9.035  19.965  55.438  1.00  0.00    -0.379 N 
HETATM   34  H   UNL     1       9.767  19.259  55.403  1.00  0.00     0.158 HD
HETATM   35  H   UNL     1       8.580  20.064  56.344  1.00  0.00     0.158 HD
ENDBRANCH  32  33
ENDBRANCH   2  28
TORSDOF 11
ENDMDL
MODEL 9
REMARK VINA RESULT:      -7.8      4.322      9.211
REMARK  11 active torsions:
REMARK  status: ('A' for Active; 'I' for Inactive)
REMARK    1  A    between atoms: C_2  and  C_3 
REMARK    2  A    between atoms: C_3  and  N_4 
REMARK    3  A    between atoms: N_4  and  C_6 
REMARK    4  A    between atoms: N_4  and  C_30 
REMARK    5  A    between atoms: C_6  and  C_7 
REMARK    6  A    between atoms: N_8  and  C_9 
REMARK    7  A    between atoms: C_13  and  N_14 
REMARK    8  A    between atoms: C_17  and  C_18 
REMARK       I    between atoms: C_18  and  N_19 
REMARK    9  A    between atoms: N_19  and  N_20 
REMARK   10  A    between atoms: C_21  and  C_22 
REMARK   11  A    between atoms: C_30  and  C_31 
ROOT
HETATM    1  C   UNL     1       7.823  29.515  57.721  1.00  0.00     0.096 A 
HETATM    2  N   UNL     1       8.423  28.595  56.866  1.00  0.00    -0.215 N 
HETATM    3  N   UNL     1       9.772  28.754  56.931  1.00  0.00     0.012 NA
HETATM    4  N   UNL     1      10.062  29.667  57.842  1.00  0.00    -0.152 NA
HETATM    5  C   UNL     1       8.891  30.153  58.342  1.00  0.00     0.170 A 
ENDROOT
BRANCH   5   6
HETATM    6  C   UNL     1       8.814  31.158  59.394  1.00  0.00     0.293 C 
HETATM    7  N   UNL     1       8.545  30.647  60.649  1.00  0.00    -0.242 N 
HETATM    8  H   UNL     1       8.435  29.645  60.787  1.00  0.00     0.192 HD
HETATM    9  O   UNL     1       8.928  32.350  59.117  1.00  0.00    -0.264 OA
BRANCH   7  10
HETATM   10  N   UNL     1       8.323  31.511  61.677  1.00  0.00    -0.184 NA
HETATM   11  C   UNL     1       7.109  31.579  62.121  1.00  0.00     0.150 C 
BRANCH  11  12
HETATM   12  C   UNL     1       6.749  32.500  63.219  1.00  0.00    -0.016 A 
HETATM   13  C   UNL     1       5.429  32.941  63.328  1.00  0.00     0.032 A 
HETATM   14  C   UNL     1       5.092  33.824  64.353  1.00  0.00     0.011 A 
HETATM   15 BR   UNL     1       3.309  34.436  64.509  1.00  0.00    -0.051 Br
HETATM   16  C   UNL     1       6.053  34.263  65.264  1.00  0.00     0.019 A 
HETATM   17  C   UNL     1       7.370  33.817  65.151  1.00  0.00     0.002 A 
HETATM   18  C   UNL     1       7.720  32.936  64.129  1.00  0.00     0.013 A 
ENDBRANCH  11  12
ENDBRANCH   7  10
ENDBRANCH   5   6
BRANCH   1  19
HETATM   19  C   UNL     1       6.365  29.780  57.832  1.00  0.00     0.296 C 
BRANCH  19  20
HETATM   20  N   UNL     1       5.816  30.906  56.961  1.00  0.00    -0.066 N 
HETATM   21  H   UNL     1       6.614  31.516  56.747  1.00  0.00     0.280 HD
BRANCH  20  22
HETATM   22  C   UNL     1       4.788  31.719  57.745  1.00  0.00     0.235 C 
BRANCH  22  23
HETATM   23  C   UNL     1       5.286  32.099  59.138  1.00  0.00     0.023 C 
HETATM   24  C   UNL     1       4.752  33.437  59.627  1.00  0.00     0.007 C 
ENDBRANCH  22  23
ENDBRANCH  20  22
BRANCH  20  25
HETATM   25  C   UNL     1       5.226  30.393  55.655  1.00  0.00     0.235 C 
BRANCH  25  26
HETATM   26  C   UNL     1       4.423  29.102  55.825  1.00  0.00     0.023 C 
HETATM   27  C   UNL     1       4.089  28.408  54.514  1.00  0.00     0.007 C 
ENDBRANCH  25  26
ENDBRANCH  20  25
ENDBRANCH  19  20
ENDBRANCH   1  19
BRANCH   2  28
HETATM   28  C   UNL     1       7.816  27.591  56.076  1.00  0.00     0.225 A 
HETATM   29  N   UNL     1       7.638  27.792  54.769  1.00  0.00    -0.081 NA
HETATM   30  O   UNL     1       7.011  26.618  54.336  1.00  0.00    -0.103 OA
HETATM   31  N   UNL     1       6.797  25.746  55.394  1.00  0.00    -0.083 NA
HETATM   32  C   UNL     1       7.293  26.348  56.473  1.00  0.00     0.201 A 
BRANCH  32  33
HETATM   33  N   UNL     1       7.284  25.826  57.708  1.00  0.00    -0.379 N 
HETATM   34  H   UNL     1       7.102  26.418  58.516  1.00  0.00     0.158 HD
HETATM   35  H   UNL     1       7.575  24.876  57.931  1.00  0.00     0.158 HD
ENDBRANCH  32  33
ENDBRANCH   2  28
TORSDOF 11
ENDMDL
MODEL 10
REMARK VINA RESULT:      -7.8      3.614      8.260
REMARK  11 active torsions:
REMARK  status: ('A' for Active; 'I' for Inactive)
REMARK    1  A    between atoms: C_2  and  C_3 
REMARK    2  A    between atoms: C_3  and  N_4 
REMARK    3  A    between atoms: N_4  and  C_6 
REMARK    4  A    between atoms: N_4  and  C_30 
REMARK    5  A    between atoms: C_6  and  C_7 
REMARK    6  A    between atoms: N_8  and  C_9 
REMARK    7  A    between atoms: C_13  and  N_14 
REMARK    8  A    between atoms: C_17  and  C_18 
REMARK       I    between atoms: C_18  and  N_19 
REMARK    9  A    between atoms: N_19  and  N_20 
REMARK   10  A    between atoms: C_21  and  C_22 
REMARK   11  A    between atoms: C_30  and  C_31 
ROOT
HETATM    1  C   UNL     1       5.799  28.656  54.249  1.00  0.00     0.096 A 
HETATM    2  N   UNL     1       5.052  29.038  53.138  1.00  0.00    -0.215 N 
HETATM    3  N   UNL     1       4.048  29.858  53.548  1.00  0.00     0.012 NA
HETATM    4  N   UNL     1       4.168  30.083  54.845  1.00  0.00    -0.152 NA
HETATM    5  C   UNL     1       5.229  29.360  55.304  1.00  0.00     0.170 A 
ENDROOT
BRANCH   5   6
HETATM    6  C   UNL     1       5.688  29.381  56.687  1.00  0.00     0.293 C 
HETATM    7  N   UNL     1       6.352  30.536  57.048  1.00  0.00    -0.242 N 
HETATM    8  H   UNL     1       6.473  31.294  56.380  1.00  0.00     0.192 HD
HETATM    9  O   UNL     1       5.519  28.398  57.406  1.00  0.00    -0.264 OA
BRANCH   7  10
HETATM   10  N   UNL     1       6.934  30.604  58.276  1.00  0.00    -0.184 NA
HETATM   11  C   UNL     1       6.673  31.658  58.980  1.00  0.00     0.150 C 
BRANCH  11  12
HETATM   12  C   UNL     1       7.268  31.848  60.319  1.00  0.00    -0.016 A 
HETATM   13  C   UNL     1       6.458  32.299  61.363  1.00  0.00     0.032 A 
HETATM   14  C   UNL     1       7.022  32.496  62.623  1.00  0.00     0.011 A 
HETATM   15 BR   UNL     1       5.938  33.114  64.044  1.00  0.00    -0.051 Br
HETATM   16  C   UNL     1       8.376  32.244  62.847  1.00  0.00     0.019 A 
HETATM   17  C   UNL     1       9.179  31.791  61.801  1.00  0.00     0.002 A 
HETATM   18  C   UNL     1       8.627  31.594  60.536  1.00  0.00     0.013 A 
ENDBRANCH  11  12
ENDBRANCH   7  10
ENDBRANCH   5   6
BRANCH   1  19
HETATM   19  C   UNL     1       6.888  27.644  54.262  1.00  0.00     0.296 C 
BRANCH  19  20
HETATM   20  N   UNL     1       6.600  26.353  55.021  1.00  0.00    -0.066 N 
HETATM   21  H   UNL     1       5.723  26.512  55.533  1.00  0.00     0.280 HD
BRANCH  20  22
HETATM   22  C   UNL     1       7.707  26.086  56.039  1.00  0.00     0.235 C 
BRANCH  22  23
HETATM   23  C   UNL     1       7.422  24.855  56.897  1.00  0.00     0.023 C 
HETATM   24  C   UNL     1       8.565  23.851  56.911  1.00  0.00     0.007 C 
ENDBRANCH  22  23
ENDBRANCH  20  22
BRANCH  20  25
HETATM   25  C   UNL     1       6.415  25.162  54.090  1.00  0.00     0.235 C 
BRANCH  25  26
HETATM   26  C   UNL     1       7.582  24.972  53.121  1.00  0.00     0.023 C 
HETATM   27  C   UNL     1       8.021  23.525  52.961  1.00  0.00     0.007 C 
ENDBRANCH  25  26
ENDBRANCH  20  25
ENDBRANCH  19  20
ENDBRANCH   1  19
BRANCH   2  28
HETATM   28  C   UNL     1       5.266  28.725  51.775  1.00  0.00     0.225 A 
HETATM   29  N   UNL     1       5.788  29.643  50.958  1.00  0.00    -0.081 NA
HETATM   30  O   UNL     1       5.835  28.993  49.720  1.00  0.00    -0.103 OA
HETATM   31  N   UNL     1       5.315  27.710  49.808  1.00  0.00    -0.083 NA
HETATM   32  C   UNL     1       4.959  27.543  51.080  1.00  0.00     0.201 A 
BRANCH  32  33
HETATM   33  N   UNL     1       4.413  26.424  51.578  1.00  0.00    -0.379 N 
HETATM   34  H   UNL     1       4.571  26.161  52.548  1.00  0.00     0.158 HD
HETATM   35  H   UNL     1       3.934  25.722  51.017  1.00  0.00     0.158 HD
ENDBRANCH  32  33
ENDBRANCH   2  28
TORSDOF 11
ENDMDL
