MODEL 1
REMARK VINA RESULT:     -10.0      0.000      0.000
REMARK  7 active torsions:
REMARK  status: ('A' for Active; 'I' for Inactive)
REMARK    1  A    between atoms: C_4  and  C_5 
REMARK    2  A    between atoms: C_5  and  N_6 
REMARK       I    between atoms: N_6  and  C_7 
REMARK       I    between atoms: C_7  and  N_8 
REMARK    3  A    between atoms: N_8  and  C_9 
REMARK    4  A    between atoms: C_9  and  C_10 
REMARK    5  A    between atoms: C_12  and  O_13 
REMARK    6  A    between atoms: O_13  and  C_14 
REMARK    7  A    between atoms: C_23  and  O_24 
ROOT
HETATM    1  N   UNL     1       7.244  26.230  54.855  1.00  0.00    -0.335 N 
HETATM    2  C   UNL     1       7.338  27.536  54.495  1.00  0.00     0.316 C 
HETATM    3  N   UNL     1       7.731  28.404  55.459  1.00  0.00    -0.339 N 
HETATM    4  O   UNL     1       7.104  27.975  53.374  1.00  0.00    -0.247 OA
HETATM    5  H   UNL     1       7.058  26.063  55.828  1.00  0.00     0.165 HD
HETATM    6  H   UNL     1       7.849  29.338  55.086  1.00  0.00     0.164 HD
ENDROOT
BRANCH   1   7
HETATM    7  C   UNL     1       6.785  25.137  53.993  1.00  0.00     0.118 C 
HETATM    8  C   UNL     1       5.272  25.049  53.787  1.00  0.00     0.037 C 
BRANCH   7   9
HETATM    9  C   UNL     1       7.385  23.794  54.393  1.00  0.00    -0.002 A 
HETATM   10  C   UNL     1       7.582  22.784  53.430  1.00  0.00     0.018 A 
HETATM   11  C   UNL     1       8.114  21.537  53.773  1.00  0.00    -0.061 A 
HETATM   12  C   UNL     1       8.320  20.489  52.721  1.00  0.00     0.048 C 
HETATM   13  C   UNL     1       8.504  21.311  55.093  1.00  0.00     0.009 A 
HETATM   14  C   UNL     1       8.345  22.307  56.059  1.00  0.00     0.038 A 
HETATM   15  C   UNL     1       7.791  23.548  55.722  1.00  0.00     0.076 A 
BRANCH  15  16
HETATM   16  O   UNL     1       7.610  24.577  56.610  1.00  0.00    -0.355 OA
HETATM   17  C   UNL     1       8.551  24.709  57.668  1.00  0.00     0.210 C 
ENDBRANCH  15  16
ENDBRANCH   7   9
ENDBRANCH   1   7
BRANCH   3  18
HETATM   18  C   UNL     1       8.258  28.159  56.783  1.00  0.00     0.163 C 
BRANCH  18  19
HETATM   19  C   UNL     1       9.117  29.302  57.248  1.00  0.00    -0.035 A 
HETATM   20  C   UNL     1       8.598  30.283  58.099  1.00  0.00     0.066 A 
HETATM   21  C   UNL     1       9.425  31.322  58.496  1.00  0.00     0.164 A 
HETATM   22  N   UNL     1      10.714  31.446  58.120  1.00  0.00    -0.237 NA
HETATM   23  C   UNL     1      11.203  30.477  57.319  1.00  0.00     0.120 A 
HETATM   24  C   UNL     1      10.457  29.400  56.863  1.00  0.00     0.028 A 
BRANCH  21  25
HETATM   25  O   UNL     1       8.863  32.279  59.320  1.00  0.00    -0.329 OA
BRANCH  25  26
HETATM   26  C   UNL     1       8.350  31.806  60.582  1.00  0.00     0.130 C 
HETATM   27  C   UNL     1       9.353  31.726  61.765  1.00  0.00     0.032 C 
HETATM   28  C   UNL     1       8.230  32.255  62.674  1.00  0.00     0.005 C 
HETATM   29  C   UNL     1       7.596  32.875  61.417  1.00  0.00     0.032 C 
ENDBRANCH  25  26
ENDBRANCH  21  25
ENDBRANCH  18  19
ENDBRANCH   3  18
TORSDOF 7
ENDMDL
MODEL 2
REMARK VINA RESULT:      -9.7      1.505      1.945
REMARK  7 active torsions:
REMARK  status: ('A' for Active; 'I' for Inactive)
REMARK    1  A    between atoms: C_4  and  C_5 
REMARK    2  A    between atoms: C_5  and  N_6 
REMARK       I    between atoms: N_6  and  C_7 
REMARK       I    between atoms: C_7  and  N_8 
REMARK    3  A    between atoms: N_8  and  C_9 
REMARK    4  A    between atoms: C_9  and  C_10 
REMARK    5  A    between atoms: C_12  and  O_13 
REMARK    6  A    between atoms: O_13  and  C_14 
REMARK    7  A    between atoms: C_23  and  O_24 
ROOT
HETATM    1  N   UNL     1       6.891  26.234  53.613  1.00  0.00    -0.335 N 
HETATM    2  C   UNL     1       6.646  27.468  53.102  1.00  0.00     0.316 C 
HETATM    3  N   UNL     1       7.253  28.511  53.719  1.00  0.00    -0.339 N 
HETATM    4  O   UNL     1       5.932  27.699  52.132  1.00  0.00    -0.247 OA
HETATM    5  H   UNL     1       7.127  26.210  54.589  1.00  0.00     0.165 HD
HETATM    6  H   UNL     1       7.079  29.379  53.228  1.00  0.00     0.164 HD
ENDROOT
BRANCH   1   7
HETATM    7  C   UNL     1       6.296  24.980  53.141  1.00  0.00     0.118 C 
HETATM    8  C   UNL     1       4.768  24.930  53.146  1.00  0.00     0.037 C 
BRANCH   7   9
HETATM    9  C   UNL     1       6.909  23.759  53.817  1.00  0.00    -0.002 A 
HETATM   10  C   UNL     1       7.434  22.704  53.045  1.00  0.00     0.018 A 
HETATM   11  C   UNL     1       7.986  21.564  53.640  1.00  0.00    -0.061 A 
HETATM   12  C   UNL     1       8.546  20.464  52.788  1.00  0.00     0.048 C 
HETATM   13  C   UNL     1       8.060  21.498  55.031  1.00  0.00     0.009 A 
HETATM   14  C   UNL     1       7.571  22.545  55.815  1.00  0.00     0.038 A 
HETATM   15  C   UNL     1       6.998  23.676  55.223  1.00  0.00     0.076 A 
BRANCH  15  16
HETATM   16  O   UNL     1       6.504  24.746  55.924  1.00  0.00    -0.355 OA
HETATM   17  C   UNL     1       7.176  25.118  57.120  1.00  0.00     0.210 C 
ENDBRANCH  15  16
ENDBRANCH   7   9
ENDBRANCH   1   7
BRANCH   3  18
HETATM   18  C   UNL     1       8.285  28.530  54.732  1.00  0.00     0.163 C 
BRANCH  18  19
HETATM   19  C   UNL     1       7.801  29.189  55.993  1.00  0.00    -0.035 A 
HETATM   20  C   UNL     1       8.648  29.326  57.096  1.00  0.00     0.066 A 
HETATM   21  C   UNL     1       8.155  29.935  58.240  1.00  0.00     0.164 A 
HETATM   22  N   UNL     1       6.902  30.417  58.357  1.00  0.00    -0.237 NA
HETATM   23  C   UNL     1       6.108  30.296  57.274  1.00  0.00     0.120 A 
HETATM   24  C   UNL     1       6.504  29.700  56.086  1.00  0.00     0.028 A 
BRANCH  21  25
HETATM   25  O   UNL     1       9.023  30.030  59.312  1.00  0.00    -0.329 OA
BRANCH  25  26
HETATM   26  C   UNL     1       8.521  30.725  60.473  1.00  0.00     0.130 C 
HETATM   27  C   UNL     1       9.243  30.454  61.821  1.00  0.00     0.032 C 
HETATM   28  C   UNL     1       9.099  31.954  62.131  1.00  0.00     0.005 C 
HETATM   29  C   UNL     1       9.013  32.190  60.613  1.00  0.00     0.032 C 
ENDBRANCH  25  26
ENDBRANCH  21  25
ENDBRANCH  18  19
ENDBRANCH   3  18
TORSDOF 7
ENDMDL
MODEL 3
REMARK VINA RESULT:      -9.6      1.392      2.299
REMARK  7 active torsions:
REMARK  status: ('A' for Active; 'I' for Inactive)
REMARK    1  A    between atoms: C_4  and  C_5 
REMARK    2  A    between atoms: C_5  and  N_6 
REMARK       I    between atoms: N_6  and  C_7 
REMARK       I    between atoms: C_7  and  N_8 
REMARK    3  A    between atoms: N_8  and  C_9 
REMARK    4  A    between atoms: C_9  and  C_10 
REMARK    5  A    between atoms: C_12  and  O_13 
REMARK    6  A    between atoms: O_13  and  C_14 
REMARK    7  A    between atoms: C_23  and  O_24 
ROOT
HETATM    1  N   UNL     1       7.036  26.578  56.083  1.00  0.00    -0.335 N 
HETATM    2  C   UNL     1       7.323  27.694  55.366  1.00  0.00     0.316 C 
HETATM    3  N   UNL     1       8.201  28.563  55.922  1.00  0.00    -0.339 N 
HETATM    4  O   UNL     1       6.857  27.961  54.263  1.00  0.00    -0.247 OA
HETATM    5  H   UNL     1       7.136  26.667  57.079  1.00  0.00     0.165 HD
HETATM    6  H   UNL     1       8.417  29.323  55.289  1.00  0.00     0.164 HD
ENDROOT
BRANCH   1   7
HETATM    7  C   UNL     1       6.074  25.539  55.700  1.00  0.00     0.118 C 
HETATM    8  C   UNL     1       5.088  25.117  56.790  1.00  0.00     0.037 C 
BRANCH   7   9
HETATM    9  C   UNL     1       6.749  24.339  55.046  1.00  0.00    -0.002 A 
HETATM   10  C   UNL     1       7.334  23.330  55.837  1.00  0.00     0.018 A 
HETATM   11  C   UNL     1       7.975  22.228  55.262  1.00  0.00    -0.061 A 
HETATM   12  C   UNL     1       8.578  21.167  56.134  1.00  0.00     0.048 C 
HETATM   13  C   UNL     1       7.989  22.104  53.873  1.00  0.00     0.009 A 
HETATM   14  C   UNL     1       7.391  23.078  53.070  1.00  0.00     0.038 A 
HETATM   15  C   UNL     1       6.768  24.194  53.642  1.00  0.00     0.076 A 
BRANCH  15  16
HETATM   16  O   UNL     1       6.154  25.187  52.923  1.00  0.00    -0.355 OA
HETATM   17  C   UNL     1       4.924  24.873  52.283  1.00  0.00     0.210 C 
ENDBRANCH  15  16
ENDBRANCH   7   9
ENDBRANCH   1   7
BRANCH   3  18
HETATM   18  C   UNL     1       9.049  28.424  57.086  1.00  0.00     0.163 C 
BRANCH  18  19
HETATM   19  C   UNL     1       9.238  29.741  57.784  1.00  0.00    -0.035 A 
HETATM   20  C   UNL     1       8.279  30.216  58.684  1.00  0.00     0.066 A 
HETATM   21  C   UNL     1       8.493  31.440  59.299  1.00  0.00     0.164 A 
HETATM   22  N   UNL     1       9.582  32.207  59.092  1.00  0.00    -0.237 NA
HETATM   23  C   UNL     1      10.507  31.721  58.239  1.00  0.00     0.120 A 
HETATM   24  C   UNL     1      10.385  30.512  57.571  1.00  0.00     0.028 A 
BRANCH  21  25
HETATM   25  O   UNL     1       7.508  31.877  60.164  1.00  0.00    -0.329 OA
BRANCH  25  26
HETATM   26  C   UNL     1       7.964  32.576  61.341  1.00  0.00     0.130 C 
HETATM   27  C   UNL     1       6.877  33.049  62.344  1.00  0.00     0.032 C 
HETATM   28  C   UNL     1       7.826  32.627  63.479  1.00  0.00     0.005 C 
HETATM   29  C   UNL     1       8.481  31.658  62.480  1.00  0.00     0.032 C 
ENDBRANCH  25  26
ENDBRANCH  21  25
ENDBRANCH  18  19
ENDBRANCH   3  18
TORSDOF 7
ENDMDL
MODEL 4
REMARK VINA RESULT:      -9.6      2.292      3.407
REMARK  7 active torsions:
REMARK  status: ('A' for Active; 'I' for Inactive)
REMARK    1  A    between atoms: C_4  and  C_5 
REMARK    2  A    between atoms: C_5  and  N_6 
REMARK       I    between atoms: N_6  and  C_7 
REMARK       I    between atoms: C_7  and  N_8 
REMARK    3  A    between atoms: N_8  and  C_9 
REMARK    4  A    between atoms: C_9  and  C_10 
REMARK    5  A    between atoms: C_12  and  O_13 
REMARK    6  A    between atoms: O_13  and  C_14 
REMARK    7  A    between atoms: C_23  and  O_24 
ROOT
HETATM    1  N   UNL     1       6.345  25.784  56.485  1.00  0.00    -0.335 N 
HETATM    2  C   UNL     1       5.108  25.890  57.035  1.00  0.00     0.316 C 
HETATM    3  N   UNL     1       4.465  27.070  56.861  1.00  0.00    -0.339 N 
HETATM    4  O   UNL     1       4.538  25.002  57.660  1.00  0.00    -0.247 OA
HETATM    5  H   UNL     1       6.844  26.650  56.376  1.00  0.00     0.165 HD
HETATM    6  H   UNL     1       3.524  27.034  57.233  1.00  0.00     0.164 HD
ENDROOT
BRANCH   1   7
HETATM    7  C   UNL     1       7.236  24.626  56.600  1.00  0.00     0.118 C 
HETATM    8  C   UNL     1       8.521  24.857  57.396  1.00  0.00     0.037 C 
BRANCH   7   9
HETATM    9  C   UNL     1       7.510  23.971  55.251  1.00  0.00    -0.002 A 
HETATM   10  C   UNL     1       7.572  22.568  55.139  1.00  0.00     0.018 A 
HETATM   11  C   UNL     1       7.840  21.942  53.916  1.00  0.00    -0.061 A 
HETATM   12  C   UNL     1       7.889  20.445  53.830  1.00  0.00     0.048 C 
HETATM   13  C   UNL     1       7.999  22.729  52.776  1.00  0.00     0.009 A 
HETATM   14  C   UNL     1       7.913  24.121  52.860  1.00  0.00     0.038 A 
HETATM   15  C   UNL     1       7.667  24.750  54.085  1.00  0.00     0.076 A 
BRANCH  15  16
HETATM   16  O   UNL     1       7.562  26.108  54.246  1.00  0.00    -0.355 OA
HETATM   17  C   UNL     1       7.259  26.887  53.097  1.00  0.00     0.210 C 
ENDBRANCH  15  16
ENDBRANCH   7   9
ENDBRANCH   1   7
BRANCH   3  18
HETATM   18  C   UNL     1       4.790  28.199  56.018  1.00  0.00     0.163 C 
BRANCH  18  19
HETATM   19  C   UNL     1       5.309  29.355  56.829  1.00  0.00    -0.035 A 
HETATM   20  C   UNL     1       6.491  29.236  57.565  1.00  0.00     0.066 A 
HETATM   21  C   UNL     1       6.926  30.325  58.303  1.00  0.00     0.164 A 
HETATM   22  N   UNL     1       6.282  31.509  58.351  1.00  0.00    -0.237 NA
HETATM   23  C   UNL     1       5.157  31.612  57.615  1.00  0.00     0.120 A 
HETATM   24  C   UNL     1       4.637  30.580  56.848  1.00  0.00     0.028 A 
BRANCH  21  25
HETATM   25  O   UNL     1       8.088  30.154  59.032  1.00  0.00    -0.329 OA
BRANCH  25  26
HETATM   26  C   UNL     1       8.250  31.015  60.179  1.00  0.00     0.130 C 
HETATM   27  C   UNL     1       9.111  30.470  61.351  1.00  0.00     0.032 C 
HETATM   28  C   UNL     1       9.703  31.884  61.492  1.00  0.00     0.005 C 
HETATM   29  C   UNL     1       9.334  32.113  60.016  1.00  0.00     0.032 C 
ENDBRANCH  25  26
ENDBRANCH  21  25
ENDBRANCH  18  19
ENDBRANCH   3  18
TORSDOF 7
ENDMDL
MODEL 5
REMARK VINA RESULT:      -9.3      2.519      3.561
REMARK  7 active torsions:
REMARK  status: ('A' for Active; 'I' for Inactive)
REMARK    1  A    between atoms: C_4  and  C_5 
REMARK    2  A    between atoms: C_5  and  N_6 
REMARK       I    between atoms: N_6  and  C_7 
REMARK       I    between atoms: C_7  and  N_8 
REMARK    3  A    between atoms: N_8  and  C_9 
REMARK    4  A    between atoms: C_9  and  C_10 
REMARK    5  A    between atoms: C_12  and  O_13 
REMARK    6  A    between atoms: O_13  and  C_14 
REMARK    7  A    between atoms: C_23  and  O_24 
ROOT
HETATM    1  N   UNL     1       6.312  25.820  56.606  1.00  0.00    -0.335 N 
HETATM    2  C   UNL     1       5.041  25.873  57.080  1.00  0.00     0.316 C 
HETATM    3  N   UNL     1       4.375  27.040  56.898  1.00  0.00    -0.339 N 
HETATM    4  O   UNL     1       4.461  24.952  57.644  1.00  0.00    -0.247 OA
HETATM    5  H   UNL     1       6.790  26.702  56.552  1.00  0.00     0.165 HD
HETATM    6  H   UNL     1       3.414  26.966  57.209  1.00  0.00     0.164 HD
ENDROOT
BRANCH   1   7
HETATM    7  C   UNL     1       7.229  24.685  56.745  1.00  0.00     0.118 C 
HETATM    8  C   UNL     1       8.535  24.977  57.486  1.00  0.00     0.037 C 
BRANCH   7   9
HETATM    9  C   UNL     1       7.473  23.972  55.420  1.00  0.00    -0.002 A 
HETATM   10  C   UNL     1       7.441  24.689  54.207  1.00  0.00     0.018 A 
HETATM   11  C   UNL     1       7.644  24.057  52.976  1.00  0.00    -0.061 A 
HETATM   12  C   UNL     1       7.613  24.853  51.705  1.00  0.00     0.048 C 
HETATM   13  C   UNL     1       7.933  22.693  52.958  1.00  0.00     0.009 A 
HETATM   14  C   UNL     1       7.999  21.968  54.150  1.00  0.00     0.038 A 
HETATM   15  C   UNL     1       7.774  22.594  55.381  1.00  0.00     0.076 A 
BRANCH  15  16
HETATM   16  O   UNL     1       7.827  21.953  56.593  1.00  0.00    -0.355 OA
HETATM   17  C   UNL     1       8.546  20.728  56.659  1.00  0.00     0.210 C 
ENDBRANCH  15  16
ENDBRANCH   7   9
ENDBRANCH   1   7
BRANCH   3  18
HETATM   18  C   UNL     1       4.717  28.202  56.108  1.00  0.00     0.163 C 
BRANCH  18  19
HETATM   19  C   UNL     1       5.015  29.388  56.982  1.00  0.00    -0.035 A 
HETATM   20  C   UNL     1       6.307  29.610  57.467  1.00  0.00     0.066 A 
HETATM   21  C   UNL     1       6.533  30.713  58.275  1.00  0.00     0.164 A 
HETATM   22  N   UNL     1       5.580  31.601  58.622  1.00  0.00    -0.237 NA
HETATM   23  C   UNL     1       4.345  31.383  58.125  1.00  0.00     0.120 A 
HETATM   24  C   UNL     1       4.016  30.308  57.313  1.00  0.00     0.028 A 
BRANCH  21  25
HETATM   25  O   UNL     1       7.821  30.880  58.747  1.00  0.00    -0.329 OA
BRANCH  25  26
HETATM   26  C   UNL     1       7.949  31.157  60.157  1.00  0.00     0.130 C 
HETATM   27  C   UNL     1       9.165  30.529  60.890  1.00  0.00     0.032 C 
HETATM   28  C   UNL     1       9.306  31.852  61.663  1.00  0.00     0.005 C 
HETATM   29  C   UNL     1       8.578  32.535  60.492  1.00  0.00     0.032 C 
ENDBRANCH  25  26
ENDBRANCH  21  25
ENDBRANCH  18  19
ENDBRANCH   3  18
TORSDOF 7
ENDMDL
MODEL 6
REMARK VINA RESULT:      -8.9      1.808      9.780
REMARK  7 active torsions:
REMARK  status: ('A' for Active; 'I' for Inactive)
REMARK    1  A    between atoms: C_4  and  C_5 
REMARK    2  A    between atoms: C_5  and  N_6 
REMARK       I    between atoms: N_6  and  C_7 
REMARK       I    between atoms: C_7  and  N_8 
REMARK    3  A    between atoms: N_8  and  C_9 
REMARK    4  A    between atoms: C_9  and  C_10 
REMARK    5  A    between atoms: C_12  and  O_13 
REMARK    6  A    between atoms: O_13  and  C_14 
REMARK    7  A    between atoms: C_23  and  O_24 
ROOT
HETATM    1  N   UNL     1       8.613  30.165  58.437  1.00  0.00    -0.335 N 
HETATM    2  C   UNL     1       9.205  29.523  57.398  1.00  0.00     0.316 C 
HETATM    3  N   UNL     1       8.786  28.258  57.149  1.00  0.00    -0.339 N 
HETATM    4  O   UNL     1      10.071  30.004  56.675  1.00  0.00    -0.247 OA
HETATM    5  H   UNL     1       8.256  29.571  59.165  1.00  0.00     0.165 HD
HETATM    6  H   UNL     1       9.221  27.885  56.314  1.00  0.00     0.164 HD
ENDROOT
BRANCH   1   7
HETATM    7  C   UNL     1       8.951  31.509  58.917  1.00  0.00     0.118 C 
HETATM    8  C   UNL     1      10.405  31.711  59.345  1.00  0.00     0.037 C 
BRANCH   7   9
HETATM    9  C   UNL     1       7.971  32.011  59.970  1.00  0.00    -0.002 A 
HETATM   10  C   UNL     1       8.375  32.146  61.314  1.00  0.00     0.018 A 
HETATM   11  C   UNL     1       7.490  32.588  62.303  1.00  0.00    -0.061 A 
HETATM   12  C   UNL     1       7.956  32.730  63.722  1.00  0.00     0.048 C 
HETATM   13  C   UNL     1       6.194  32.949  61.937  1.00  0.00     0.009 A 
HETATM   14  C   UNL     1       5.782  32.850  60.607  1.00  0.00     0.038 A 
HETATM   15  C   UNL     1       6.658  32.387  59.618  1.00  0.00     0.076 A 
BRANCH  15  16
HETATM   16  O   UNL     1       6.329  32.269  58.292  1.00  0.00    -0.355 OA
HETATM   17  C   UNL     1       5.020  31.814  57.975  1.00  0.00     0.210 C 
ENDBRANCH  15  16
ENDBRANCH   7   9
ENDBRANCH   1   7
BRANCH   3  18
HETATM   18  C   UNL     1       7.667  27.518  57.688  1.00  0.00     0.163 C 
BRANCH  18  19
HETATM   19  C   UNL     1       7.191  26.468  56.722  1.00  0.00    -0.035 A 
HETATM   20  C   UNL     1       7.903  25.276  56.558  1.00  0.00     0.066 A 
HETATM   21  C   UNL     1       7.430  24.341  55.650  1.00  0.00     0.164 A 
HETATM   22  N   UNL     1       6.311  24.501  54.916  1.00  0.00    -0.237 NA
HETATM   23  C   UNL     1       5.626  25.647  55.107  1.00  0.00     0.120 A 
HETATM   24  C   UNL     1       6.018  26.646  55.985  1.00  0.00     0.028 A 
BRANCH  21  25
HETATM   25  O   UNL     1       8.178  23.187  55.506  1.00  0.00    -0.329 OA
BRANCH  25  26
HETATM   26  C   UNL     1       7.709  22.248  54.516  1.00  0.00     0.130 C 
HETATM   27  C   UNL     1       8.663  21.941  53.330  1.00  0.00     0.032 C 
HETATM   28  C   UNL     1       8.232  20.469  53.442  1.00  0.00     0.005 C 
HETATM   29  C   UNL     1       7.872  20.756  54.910  1.00  0.00     0.032 C 
ENDBRANCH  25  26
ENDBRANCH  21  25
ENDBRANCH  18  19
ENDBRANCH   3  18
TORSDOF 7
ENDMDL
MODEL 7
REMARK VINA RESULT:      -8.7      1.914      9.862
REMARK  7 active torsions:
REMARK  status: ('A' for Active; 'I' for Inactive)
REMARK    1  A    between atoms: C_4  and  C_5 
REMARK    2  A    between atoms: C_5  and  N_6 
REMARK       I    between atoms: N_6  and  C_7 
REMARK       I    between atoms: C_7  and  N_8 
REMARK    3  A    between atoms: N_8  and  C_9 
REMARK    4  A    between atoms: C_9  and  C_10 
REMARK    5  A    between atoms: C_12  and  O_13 
REMARK    6  A    between atoms: O_13  and  C_14 
REMARK    7  A    between atoms: C_23  and  O_24 
ROOT
HETATM    1  N   UNL     1       8.305  30.265  59.753  1.00  0.00    -0.335 N 
HETATM    2  C   UNL     1       8.890  29.905  58.582  1.00  0.00     0.316 C 
HETATM    3  N   UNL     1       8.161  29.112  57.758  1.00  0.00    -0.339 N 
HETATM    4  O   UNL     1      10.010  30.249  58.220  1.00  0.00    -0.247 OA
HETATM    5  H   UNL     1       7.614  29.625  60.105  1.00  0.00     0.165 HD
HETATM    6  H   UNL     1       8.640  28.959  56.879  1.00  0.00     0.164 HD
ENDROOT
BRANCH   1   7
HETATM    7  C   UNL     1       8.930  31.064  60.811  1.00  0.00     0.118 C 
HETATM    8  C   UNL     1       9.748  30.278  61.837  1.00  0.00     0.037 C 
BRANCH   7   9
HETATM    9  C   UNL     1       7.943  32.016  61.477  1.00  0.00    -0.002 A 
HETATM   10  C   UNL     1       8.013  32.262  62.862  1.00  0.00     0.018 A 
HETATM   11  C   UNL     1       7.109  33.117  63.501  1.00  0.00    -0.061 A 
HETATM   12  C   UNL     1       7.218  33.365  64.976  1.00  0.00     0.048 C 
HETATM   13  C   UNL     1       6.148  33.777  62.735  1.00  0.00     0.009 A 
HETATM   14  C   UNL     1       6.080  33.570  61.355  1.00  0.00     0.038 A 
HETATM   15  C   UNL     1       6.969  32.698  60.718  1.00  0.00     0.076 A 
BRANCH  15  16
HETATM   16  O   UNL     1       6.969  32.448  59.369  1.00  0.00    -0.355 OA
HETATM   17  C   UNL     1       5.715  32.445  58.699  1.00  0.00     0.210 C 
ENDBRANCH  15  16
ENDBRANCH   7   9
ENDBRANCH   1   7
BRANCH   3  18
HETATM   18  C   UNL     1       6.770  28.723  57.820  1.00  0.00     0.163 C 
BRANCH  18  19
HETATM   19  C   UNL     1       6.292  28.193  56.497  1.00  0.00    -0.035 A 
HETATM   20  C   UNL     1       7.116  27.377  55.717  1.00  0.00     0.066 A 
HETATM   21  C   UNL     1       6.635  26.917  54.501  1.00  0.00     0.164 A 
HETATM   22  N   UNL     1       5.407  27.200  54.020  1.00  0.00    -0.237 NA
HETATM   23  C   UNL     1       4.619  27.968  54.799  1.00  0.00     0.120 A 
HETATM   24  C   UNL     1       5.008  28.481  56.027  1.00  0.00     0.028 A 
BRANCH  21  25
HETATM   25  O   UNL     1       7.492  26.130  53.754  1.00  0.00    -0.329 OA
BRANCH  25  26
HETATM   26  C   UNL     1       7.049  24.782  53.493  1.00  0.00     0.130 C 
HETATM   27  C   UNL     1       7.953  23.909  52.580  1.00  0.00     0.032 C 
HETATM   28  C   UNL     1       7.662  22.729  53.524  1.00  0.00     0.005 C 
HETATM   29  C   UNL     1       7.368  23.766  54.621  1.00  0.00     0.032 C 
ENDBRANCH  25  26
ENDBRANCH  21  25
ENDBRANCH  18  19
ENDBRANCH   3  18
TORSDOF 7
ENDMDL
MODEL 8
REMARK VINA RESULT:      -8.7      2.102      9.161
REMARK  7 active torsions:
REMARK  status: ('A' for Active; 'I' for Inactive)
REMARK    1  A    between atoms: C_4  and  C_5 
REMARK    2  A    between atoms: C_5  and  N_6 
REMARK       I    between atoms: N_6  and  C_7 
REMARK       I    between atoms: C_7  and  N_8 
REMARK    3  A    between atoms: N_8  and  C_9 
REMARK    4  A    between atoms: C_9  and  C_10 
REMARK    5  A    between atoms: C_12  and  O_13 
REMARK    6  A    between atoms: O_13  and  C_14 
REMARK    7  A    between atoms: C_23  and  O_24 
ROOT
HETATM    1  N   UNL     1       7.276  28.648  56.739  1.00  0.00    -0.335 N 
HETATM    2  C   UNL     1       7.146  27.461  57.386  1.00  0.00     0.316 C 
HETATM    3  N   UNL     1       6.135  26.655  56.977  1.00  0.00    -0.339 N 
HETATM    4  O   UNL     1       7.873  27.070  58.292  1.00  0.00    -0.247 OA
HETATM    5  H   UNL     1       6.431  29.016  56.339  1.00  0.00     0.165 HD
HETATM    6  H   UNL     1       6.160  25.764  57.457  1.00  0.00     0.164 HD
ENDROOT
BRANCH   1   7
HETATM    7  C   UNL     1       8.257  29.690  57.055  1.00  0.00     0.118 C 
HETATM    8  C   UNL     1       9.721  29.252  57.020  1.00  0.00     0.037 C 
BRANCH   7   9
HETATM    9  C   UNL     1       7.915  30.436  58.340  1.00  0.00    -0.002 A 
HETATM   10  C   UNL     1       8.731  30.303  59.480  1.00  0.00     0.018 A 
HETATM   11  C   UNL     1       8.431  30.962  60.677  1.00  0.00    -0.061 A 
HETATM   12  C   UNL     1       9.327  30.806  61.870  1.00  0.00     0.048 C 
HETATM   13  C   UNL     1       7.324  31.808  60.721  1.00  0.00     0.009 A 
HETATM   14  C   UNL     1       6.517  31.978  59.593  1.00  0.00     0.038 A 
HETATM   15  C   UNL     1       6.803  31.302  58.402  1.00  0.00     0.076 A 
BRANCH  15  16
HETATM   16  O   UNL     1       6.064  31.421  57.252  1.00  0.00    -0.355 OA
HETATM   17  C   UNL     1       5.005  32.370  57.245  1.00  0.00     0.210 C 
ENDBRANCH  15  16
ENDBRANCH   7   9
ENDBRANCH   1   7
BRANCH   3  18
HETATM   18  C   UNL     1       5.264  26.753  55.827  1.00  0.00     0.163 C 
BRANCH  18  19
HETATM   19  C   UNL     1       5.687  25.803  54.741  1.00  0.00    -0.035 A 
HETATM   20  C   UNL     1       6.743  24.911  54.945  1.00  0.00     0.066 A 
HETATM   21  C   UNL     1       7.102  24.059  53.911  1.00  0.00     0.164 A 
HETATM   22  N   UNL     1       6.485  24.027  52.713  1.00  0.00    -0.237 NA
HETATM   23  C   UNL     1       5.453  24.879  52.544  1.00  0.00     0.120 A 
HETATM   24  C   UNL     1       5.021  25.772  53.512  1.00  0.00     0.028 A 
BRANCH  21  25
HETATM   25  O   UNL     1       8.165  23.209  54.152  1.00  0.00    -0.329 OA
BRANCH  25  26
HETATM   26  C   UNL     1       7.838  21.943  54.761  1.00  0.00     0.130 C 
HETATM   27  C   UNL     1       8.000  20.675  53.880  1.00  0.00     0.032 C 
HETATM   28  C   UNL     1       8.569  19.960  55.118  1.00  0.00     0.005 C 
HETATM   29  C   UNL     1       8.957  21.348  55.657  1.00  0.00     0.032 C 
ENDBRANCH  25  26
ENDBRANCH  21  25
ENDBRANCH  18  19
ENDBRANCH   3  18
TORSDOF 7
ENDMDL
MODEL 9
REMARK VINA RESULT:      -8.6      2.584      9.561
REMARK  7 active torsions:
REMARK  status: ('A' for Active; 'I' for Inactive)
REMARK    1  A    between atoms: C_4  and  C_5 
REMARK    2  A    between atoms: C_5  and  N_6 
REMARK       I    between atoms: N_6  and  C_7 
REMARK       I    between atoms: C_7  and  N_8 
REMARK    3  A    between atoms: N_8  and  C_9 
REMARK    4  A    between atoms: C_9  and  C_10 
REMARK    5  A    between atoms: C_12  and  O_13 
REMARK    6  A    between atoms: O_13  and  C_14 
REMARK    7  A    between atoms: C_23  and  O_24 
ROOT
HETATM    1  N   UNL     1       5.323  31.019  58.705  1.00  0.00    -0.335 N 
HETATM    2  C   UNL     1       4.178  30.558  58.141  1.00  0.00     0.316 C 
HETATM    3  N   UNL     1       4.287  29.457  57.358  1.00  0.00    -0.339 N 
HETATM    4  O   UNL     1       3.067  31.056  58.295  1.00  0.00    -0.247 OA
HETATM    5  H   UNL     1       6.168  30.805  58.204  1.00  0.00     0.165 HD
HETATM    6  H   UNL     1       3.378  29.138  57.045  1.00  0.00     0.164 HD
ENDROOT
BRANCH   1   7
HETATM    7  C   UNL     1       5.444  32.222  59.534  1.00  0.00     0.118 C 
HETATM    8  C   UNL     1       5.255  33.551  58.802  1.00  0.00     0.037 C 
BRANCH   7   9
HETATM    9  C   UNL     1       6.710  32.214  60.384  1.00  0.00    -0.002 A 
HETATM   10  C   UNL     1       6.649  32.523  61.757  1.00  0.00     0.018 A 
HETATM   11  C   UNL     1       7.797  32.539  62.556  1.00  0.00    -0.061 A 
HETATM   12  C   UNL     1       7.696  32.863  64.017  1.00  0.00     0.048 C 
HETATM   13  C   UNL     1       9.022  32.194  61.984  1.00  0.00     0.009 A 
HETATM   14  C   UNL     1       9.100  31.857  60.631  1.00  0.00     0.038 A 
HETATM   15  C   UNL     1       7.956  31.861  59.825  1.00  0.00     0.076 A 
BRANCH  15  16
HETATM   16  O   UNL     1       7.952  31.535  58.493  1.00  0.00    -0.355 OA
HETATM   17  C   UNL     1       8.808  30.483  58.068  1.00  0.00     0.210 C 
ENDBRANCH  15  16
ENDBRANCH   7   9
ENDBRANCH   1   7
BRANCH   3  18
HETATM   18  C   UNL     1       5.399  28.554  57.160  1.00  0.00     0.163 C 
BRANCH  18  19
HETATM   19  C   UNL     1       5.340  27.903  55.806  1.00  0.00    -0.035 A 
HETATM   20  C   UNL     1       5.555  26.529  55.666  1.00  0.00     0.066 A 
HETATM   21  C   UNL     1       5.497  25.975  54.397  1.00  0.00     0.164 A 
HETATM   22  N   UNL     1       5.235  26.679  53.277  1.00  0.00    -0.237 NA
HETATM   23  C   UNL     1       5.007  27.998  53.437  1.00  0.00     0.120 A 
HETATM   24  C   UNL     1       5.047  28.649  54.661  1.00  0.00     0.028 A 
BRANCH  21  25
HETATM   25  O   UNL     1       5.736  24.616  54.304  1.00  0.00    -0.329 OA
BRANCH  25  26
HETATM   26  C   UNL     1       7.122  24.220  54.233  1.00  0.00     0.130 C 
HETATM   27  C   UNL     1       7.471  22.790  54.726  1.00  0.00     0.032 C 
HETATM   28  C   UNL     1       8.443  22.682  53.538  1.00  0.00     0.005 C 
HETATM   29  C   UNL     1       7.589  23.748  52.831  1.00  0.00     0.032 C 
ENDBRANCH  25  26
ENDBRANCH  21  25
ENDBRANCH  18  19
ENDBRANCH   3  18
TORSDOF 7
ENDMDL
MODEL 10
REMARK VINA RESULT:      -8.6      4.383      7.574
REMARK  7 active torsions:
REMARK  status: ('A' for Active; 'I' for Inactive)
REMARK    1  A    between atoms: C_4  and  C_5 
REMARK    2  A    between atoms: C_5  and  N_6 
REMARK       I    between atoms: N_6  and  C_7 
REMARK       I    between atoms: C_7  and  N_8 
REMARK    3  A    between atoms: N_8  and  C_9 
REMARK    4  A    between atoms: C_9  and  C_10 
REMARK    5  A    between atoms: C_12  and  O_13 
REMARK    6  A    between atoms: O_13  and  C_14 
REMARK    7  A    between atoms: C_23  and  O_24 
ROOT
HETATM    1  N   UNL     1       6.517  26.251  53.651  1.00  0.00    -0.335 N 
HETATM    2  C   UNL     1       5.211  25.888  53.574  1.00  0.00     0.316 C 
HETATM    3  N   UNL     1       4.302  26.803  53.991  1.00  0.00    -0.339 N 
HETATM    4  O   UNL     1       4.803  24.811  53.152  1.00  0.00    -0.247 OA
HETATM    5  H   UNL     1       6.735  26.933  54.356  1.00  0.00     0.165 HD
HETATM    6  H   UNL     1       3.356  26.482  53.826  1.00  0.00     0.164 HD
ENDROOT
BRANCH   1   7
HETATM    7  C   UNL     1       7.662  25.400  53.310  1.00  0.00     0.118 C 
HETATM    8  C   UNL     1       7.798  25.037  51.831  1.00  0.00     0.037 C 
BRANCH   7   9
HETATM    9  C   UNL     1       7.759  24.174  54.210  1.00  0.00    -0.002 A 
HETATM   10  C   UNL     1       7.841  22.883  53.651  1.00  0.00     0.018 A 
HETATM   11  C   UNL     1       7.914  21.740  54.453  1.00  0.00    -0.061 A 
HETATM   12  C   UNL     1       8.010  20.382  53.825  1.00  0.00     0.048 C 
HETATM   13  C   UNL     1       7.955  21.890  55.839  1.00  0.00     0.009 A 
HETATM   14  C   UNL     1       7.904  23.162  56.414  1.00  0.00     0.038 A 
HETATM   15  C   UNL     1       7.809  24.306  55.614  1.00  0.00     0.076 A 
BRANCH  15  16
HETATM   16  O   UNL     1       7.761  25.587  56.103  1.00  0.00    -0.355 OA
HETATM   17  C   UNL     1       8.245  25.807  57.421  1.00  0.00     0.210 C 
ENDBRANCH  15  16
ENDBRANCH   7   9
ENDBRANCH   1   7
BRANCH   3  18
HETATM   18  C   UNL     1       4.466  28.197  54.338  1.00  0.00     0.163 C 
BRANCH  18  19
HETATM   19  C   UNL     1       3.936  29.095  53.255  1.00  0.00    -0.035 A 
HETATM   20  C   UNL     1       3.712  28.603  51.967  1.00  0.00     0.066 A 
HETATM   21  C   UNL     1       3.229  29.470  50.999  1.00  0.00     0.164 A 
HETATM   22  N   UNL     1       2.949  30.770  51.223  1.00  0.00    -0.237 NA
HETATM   23  C   UNL     1       3.149  31.220  52.479  1.00  0.00     0.120 A 
HETATM   24  C   UNL     1       3.633  30.435  53.514  1.00  0.00     0.028 A 
BRANCH  21  25
HETATM   25  O   UNL     1       3.041  28.943  49.735  1.00  0.00    -0.329 OA
BRANCH  25  26
HETATM   26  C   UNL     1       3.815  27.768  49.417  1.00  0.00     0.130 C 
HETATM   27  C   UNL     1       3.211  26.788  48.374  1.00  0.00     0.032 C 
HETATM   28  C   UNL     1       4.628  26.624  47.797  1.00  0.00     0.005 C 
HETATM   29  C   UNL     1       4.958  28.003  48.394  1.00  0.00     0.032 C 
ENDBRANCH  25  26
ENDBRANCH  21  25
ENDBRANCH  18  19
ENDBRANCH   3  18
TORSDOF 7
ENDMDL
