MODEL 1
REMARK VINA RESULT:      -9.1      0.000      0.000
REMARK  6 active torsions:
REMARK  status: ('A' for Active; 'I' for Inactive)
REMARK    1  A    between atoms: C_2  and  O_3 
REMARK    2  A    between atoms: O_3  and  C_4 
REMARK    3  A    between atoms: C_9  and  S_10 
REMARK    4  A    between atoms: S_10  and  C_11 
REMARK    5  A    between atoms: C_11  and  C_12 
REMARK       I    between atoms: C_12  and  N_13 
REMARK    6  A    between atoms: N_13  and  C_14 
ROOT
HETATM    1  C   UNL     1       8.272  23.050  55.663  1.00  0.00     0.069 A 
HETATM    2  C   UNL     1       7.681  24.089  54.945  1.00  0.00     0.050 A 
HETATM    3  C   UNL     1       7.529  25.362  55.529  1.00  0.00    -0.004 A 
HETATM    4  C   UNL     1       7.984  25.607  56.837  1.00  0.00     0.068 A 
HETATM    5  N   UNL     1       7.842  26.799  57.437  1.00  0.00    -0.241 NA
HETATM    6  C   UNL     1       7.187  27.789  56.786  1.00  0.00     0.100 A 
HETATM    7  C   UNL     1       6.726  27.659  55.476  1.00  0.00    -0.026 A 
HETATM    8  C   UNL     1       6.043  28.771  54.737  1.00  0.00     0.051 C 
HETATM    9  C   UNL     1       6.913  26.421  54.849  1.00  0.00     0.023 A 
HETATM   10  C   UNL     1       8.594  24.568  57.523  1.00  0.00     0.035 A 
HETATM   11  C   UNL     1       8.740  23.302  56.950  1.00  0.00     0.039 A 
ENDROOT
BRANCH   6  12
HETATM   12  S   UNL     1       6.903  29.259  57.752  1.00  0.00    -0.096 SA
BRANCH  12  13
HETATM   13  C   UNL     1       8.612  29.765  58.186  1.00  0.00     0.142 C 
HETATM   14  C   UNL     1       9.540  29.933  56.990  1.00  0.00     0.031 C 
BRANCH  13  15
HETATM   15  C   UNL     1       8.601  30.935  59.177  1.00  0.00     0.236 C 
HETATM   16  N   UNL     1       7.773  30.765  60.273  1.00  0.00    -0.326 N 
HETATM   17  H   UNL     1       7.329  29.858  60.371  1.00  0.00     0.169 HD
HETATM   18  O   UNL     1       9.328  31.908  58.977  1.00  0.00    -0.272 OA
BRANCH  16  19
HETATM   19  C   UNL     1       7.568  31.663  61.341  1.00  0.00     0.034 A 
HETATM   20  C   UNL     1       8.394  31.747  62.463  1.00  0.00     0.029 A 
HETATM   21  C   UNL     1       8.120  32.667  63.480  1.00  0.00     0.002 A 
HETATM   22  C   UNL     1       7.020  33.514  63.383  1.00  0.00     0.000 A 
HETATM   23  C   UNL     1       6.190  33.442  62.266  1.00  0.00     0.002 A 
HETATM   24  C   UNL     1       6.463  32.520  61.251  1.00  0.00     0.029 A 
ENDBRANCH  16  19
ENDBRANCH  13  15
ENDBRANCH  12  13
ENDBRANCH   6  12
BRANCH   1  25
HETATM   25  O   UNL     1       8.451  21.768  55.226  1.00  0.00    -0.351 OA
BRANCH  25  26
HETATM   26  C   UNL     1       9.052  21.598  53.943  1.00  0.00     0.171 C 
HETATM   27  C   UNL     1       8.197  20.626  53.151  1.00  0.00     0.034 C 
ENDBRANCH  25  26
ENDBRANCH   1  25
TORSDOF 6
ENDMDL
MODEL 2
REMARK VINA RESULT:      -9.0      4.330      8.514
REMARK  6 active torsions:
REMARK  status: ('A' for Active; 'I' for Inactive)
REMARK    1  A    between atoms: C_2  and  O_3 
REMARK    2  A    between atoms: O_3  and  C_4 
REMARK    3  A    between atoms: C_9  and  S_10 
REMARK    4  A    between atoms: S_10  and  C_11 
REMARK    5  A    between atoms: C_11  and  C_12 
REMARK       I    between atoms: C_12  and  N_13 
REMARK    6  A    between atoms: N_13  and  C_14 
ROOT
HETATM    1  C   UNL     1       4.801  27.168  50.898  1.00  0.00     0.069 A 
HETATM    2  C   UNL     1       4.696  28.089  51.939  1.00  0.00     0.050 A 
HETATM    3  C   UNL     1       5.458  27.928  53.113  1.00  0.00    -0.004 A 
HETATM    4  C   UNL     1       6.346  26.847  53.245  1.00  0.00     0.068 A 
HETATM    5  N   UNL     1       7.077  26.646  54.353  1.00  0.00    -0.241 NA
HETATM    6  C   UNL     1       6.915  27.480  55.407  1.00  0.00     0.100 A 
HETATM    7  C   UNL     1       6.085  28.600  55.366  1.00  0.00    -0.026 A 
HETATM    8  C   UNL     1       5.942  29.551  56.517  1.00  0.00     0.051 C 
HETATM    9  C   UNL     1       5.356  28.817  54.191  1.00  0.00     0.023 A 
HETATM   10  C   UNL     1       6.457  25.958  52.187  1.00  0.00     0.035 A 
HETATM   11  C   UNL     1       5.697  26.110  51.024  1.00  0.00     0.039 A 
ENDROOT
BRANCH   6  12
HETATM   12  S   UNL     1       7.801  27.005  56.879  1.00  0.00    -0.096 SA
BRANCH  12  13
HETATM   13  C   UNL     1       6.915  25.478  57.379  1.00  0.00     0.142 C 
HETATM   14  C   UNL     1       5.409  25.523  57.154  1.00  0.00     0.031 C 
BRANCH  13  15
HETATM   15  C   UNL     1       7.622  24.232  56.834  1.00  0.00     0.236 C 
HETATM   16  N   UNL     1       7.072  23.707  55.677  1.00  0.00    -0.326 N 
HETATM   17  H   UNL     1       6.323  24.241  55.246  1.00  0.00     0.169 HD
HETATM   18  O   UNL     1       8.623  23.802  57.405  1.00  0.00    -0.272 OA
BRANCH  16  19
HETATM   19  C   UNL     1       7.511  22.580  54.952  1.00  0.00     0.034 A 
HETATM   20  C   UNL     1       7.816  21.346  55.531  1.00  0.00     0.029 A 
HETATM   21  C   UNL     1       8.244  20.276  54.739  1.00  0.00     0.002 A 
HETATM   22  C   UNL     1       8.368  20.428  53.361  1.00  0.00     0.000 A 
HETATM   23  C   UNL     1       8.063  21.653  52.772  1.00  0.00     0.002 A 
HETATM   24  C   UNL     1       7.637  22.723  53.563  1.00  0.00     0.029 A 
ENDBRANCH  16  19
ENDBRANCH  13  15
ENDBRANCH  12  13
ENDBRANCH   6  12
BRANCH   1  25
HETATM   25  O   UNL     1       4.100  27.192  49.726  1.00  0.00    -0.351 OA
BRANCH  25  26
HETATM   26  C   UNL     1       4.582  26.367  48.665  1.00  0.00     0.171 C 
HETATM   27  C   UNL     1       3.395  25.637  48.064  1.00  0.00     0.034 C 
ENDBRANCH  25  26
ENDBRANCH   1  25
TORSDOF 6
ENDMDL
MODEL 3
REMARK VINA RESULT:      -8.8      2.105      9.556
REMARK  6 active torsions:
REMARK  status: ('A' for Active; 'I' for Inactive)
REMARK    1  A    between atoms: C_2  and  O_3 
REMARK    2  A    between atoms: O_3  and  C_4 
REMARK    3  A    between atoms: C_9  and  S_10 
REMARK    4  A    between atoms: S_10  and  C_11 
REMARK    5  A    between atoms: C_11  and  C_12 
REMARK       I    between atoms: C_12  and  N_13 
REMARK    6  A    between atoms: N_13  and  C_14 
ROOT
HETATM    1  C   UNL     1       7.574  31.329  58.927  1.00  0.00     0.069 A 
HETATM    2  C   UNL     1       8.203  30.091  58.805  1.00  0.00     0.050 A 
HETATM    3  C   UNL     1       7.667  29.100  57.959  1.00  0.00    -0.004 A 
HETATM    4  C   UNL     1       6.501  29.350  57.215  1.00  0.00     0.068 A 
HETATM    5  N   UNL     1       5.947  28.429  56.412  1.00  0.00    -0.241 NA
HETATM    6  C   UNL     1       6.495  27.192  56.355  1.00  0.00     0.100 A 
HETATM    7  C   UNL     1       7.668  26.852  57.028  1.00  0.00    -0.026 A 
HETATM    8  C   UNL     1       8.302  25.496  56.928  1.00  0.00     0.051 C 
HETATM    9  C   UNL     1       8.255  27.834  57.834  1.00  0.00     0.023 A 
HETATM   10  C   UNL     1       5.906  30.598  57.329  1.00  0.00     0.035 A 
HETATM   11  C   UNL     1       6.431  31.581  58.174  1.00  0.00     0.039 A 
ENDROOT
BRANCH   6  12
HETATM   12  S   UNL     1       5.568  26.006  55.401  1.00  0.00    -0.096 SA
BRANCH  12  13
HETATM   13  C   UNL     1       6.384  26.117  53.761  1.00  0.00     0.142 C 
HETATM   14  C   UNL     1       7.050  27.458  53.481  1.00  0.00     0.031 C 
BRANCH  13  15
HETATM   15  C   UNL     1       7.257  24.884  53.500  1.00  0.00     0.236 C 
HETATM   16  N   UNL     1       6.929  23.767  54.248  1.00  0.00    -0.326 N 
HETATM   17  H   UNL     1       6.094  23.833  54.822  1.00  0.00     0.169 HD
HETATM   18  O   UNL     1       8.142  24.936  52.647  1.00  0.00    -0.272 OA
BRANCH  16  19
HETATM   19  C   UNL     1       7.547  22.500  54.215  1.00  0.00     0.034 A 
HETATM   20  C   UNL     1       7.788  21.775  53.046  1.00  0.00     0.029 A 
HETATM   21  C   UNL     1       8.408  20.523  53.101  1.00  0.00     0.002 A 
HETATM   22  C   UNL     1       8.797  19.986  54.324  1.00  0.00     0.000 A 
HETATM   23  C   UNL     1       8.566  20.701  55.497  1.00  0.00     0.002 A 
HETATM   24  C   UNL     1       7.944  21.951  55.442  1.00  0.00     0.029 A 
ENDBRANCH  16  19
ENDBRANCH  13  15
ENDBRANCH  12  13
ENDBRANCH   6  12
BRANCH   1  25
HETATM   25  O   UNL     1       7.971  32.359  59.731  1.00  0.00    -0.351 OA
BRANCH  25  26
HETATM   26  C   UNL     1       7.549  32.319  61.094  1.00  0.00     0.171 C 
HETATM   27  C   UNL     1       8.754  31.971  61.947  1.00  0.00     0.034 C 
ENDBRANCH  25  26
ENDBRANCH   1  25
TORSDOF 6
ENDMDL
MODEL 4
REMARK VINA RESULT:      -8.8      1.901      9.765
REMARK  6 active torsions:
REMARK  status: ('A' for Active; 'I' for Inactive)
REMARK    1  A    between atoms: C_2  and  O_3 
REMARK    2  A    between atoms: O_3  and  C_4 
REMARK    3  A    between atoms: C_9  and  S_10 
REMARK    4  A    between atoms: S_10  and  C_11 
REMARK    5  A    between atoms: C_11  and  C_12 
REMARK       I    between atoms: C_12  and  N_13 
REMARK    6  A    between atoms: N_13  and  C_14 
ROOT
HETATM    1  C   UNL     1       7.652  32.287  60.675  1.00  0.00     0.069 A 
HETATM    2  C   UNL     1       6.693  32.044  59.693  1.00  0.00     0.050 A 
HETATM    3  C   UNL     1       6.820  30.936  58.831  1.00  0.00    -0.004 A 
HETATM    4  C   UNL     1       7.907  30.053  58.958  1.00  0.00     0.068 A 
HETATM    5  N   UNL     1       8.076  28.997  58.148  1.00  0.00    -0.241 NA
HETATM    6  C   UNL     1       7.202  28.803  57.131  1.00  0.00     0.100 A 
HETATM    7  C   UNL     1       6.076  29.601  56.938  1.00  0.00    -0.026 A 
HETATM    8  C   UNL     1       5.082  29.358  55.841  1.00  0.00     0.051 C 
HETATM    9  C   UNL     1       5.892  30.678  57.814  1.00  0.00     0.023 A 
HETATM   10  C   UNL     1       8.835  30.297  59.960  1.00  0.00     0.035 A 
HETATM   11  C   UNL     1       8.716  31.399  60.812  1.00  0.00     0.039 A 
ENDROOT
BRANCH   6  12
HETATM   12  S   UNL     1       7.634  27.481  56.017  1.00  0.00    -0.096 SA
BRANCH  12  13
HETATM   13  C   UNL     1       7.071  26.002  56.945  1.00  0.00     0.142 C 
HETATM   14  C   UNL     1       5.557  25.882  57.077  1.00  0.00     0.031 C 
BRANCH  13  15
HETATM   15  C   UNL     1       7.787  24.740  56.452  1.00  0.00     0.236 C 
HETATM   16  N   UNL     1       7.081  23.991  55.527  1.00  0.00    -0.326 N 
HETATM   17  H   UNL     1       6.208  24.388  55.191  1.00  0.00     0.169 HD
HETATM   18  O   UNL     1       8.922  24.488  56.856  1.00  0.00    -0.272 OA
BRANCH  16  19
HETATM   19  C   UNL     1       7.488  22.796  54.899  1.00  0.00     0.034 A 
HETATM   20  C   UNL     1       7.740  22.677  53.531  1.00  0.00     0.029 A 
HETATM   21  C   UNL     1       8.142  21.452  52.986  1.00  0.00     0.002 A 
HETATM   22  C   UNL     1       8.298  20.338  53.805  1.00  0.00     0.000 A 
HETATM   23  C   UNL     1       8.053  20.446  55.172  1.00  0.00     0.002 A 
HETATM   24  C   UNL     1       7.650  21.669  55.715  1.00  0.00     0.029 A 
ENDBRANCH  16  19
ENDBRANCH  13  15
ENDBRANCH  12  13
ENDBRANCH   6  12
BRANCH   1  25
HETATM   25  O   UNL     1       7.663  33.335  61.550  1.00  0.00    -0.351 OA
BRANCH  25  26
HETATM   26  C   UNL     1       6.819  33.232  62.697  1.00  0.00     0.171 C 
HETATM   27  C   UNL     1       7.706  33.056  63.916  1.00  0.00     0.034 C 
ENDBRANCH  25  26
ENDBRANCH   1  25
TORSDOF 6
ENDMDL
MODEL 5
REMARK VINA RESULT:      -8.7      1.853      9.704
REMARK  6 active torsions:
REMARK  status: ('A' for Active; 'I' for Inactive)
REMARK    1  A    between atoms: C_2  and  O_3 
REMARK    2  A    between atoms: O_3  and  C_4 
REMARK    3  A    between atoms: C_9  and  S_10 
REMARK    4  A    between atoms: S_10  and  C_11 
REMARK    5  A    between atoms: C_11  and  C_12 
REMARK       I    between atoms: C_12  and  N_13 
REMARK    6  A    between atoms: N_13  and  C_14 
ROOT
HETATM    1  C   UNL     1       7.336  32.695  60.953  1.00  0.00     0.069 A 
HETATM    2  C   UNL     1       8.529  32.226  60.406  1.00  0.00     0.050 A 
HETATM    3  C   UNL     1       8.516  31.430  59.243  1.00  0.00    -0.004 A 
HETATM    4  C   UNL     1       7.302  31.111  58.610  1.00  0.00     0.068 A 
HETATM    5  N   UNL     1       7.242  30.341  57.512  1.00  0.00    -0.241 NA
HETATM    6  C   UNL     1       8.385  29.803  57.024  1.00  0.00     0.100 A 
HETATM    7  C   UNL     1       9.643  30.083  57.559  1.00  0.00    -0.026 A 
HETATM    8  C   UNL     1      10.913  29.525  56.989  1.00  0.00     0.051 C 
HETATM    9  C   UNL     1       9.693  30.916  58.683  1.00  0.00     0.023 A 
HETATM   10  C   UNL     1       6.129  31.611  59.154  1.00  0.00     0.035 A 
HETATM   11  C   UNL     1       6.138  32.394  60.312  1.00  0.00     0.039 A 
ENDROOT
BRANCH   6  12
HETATM   12  S   UNL     1       8.157  28.657  55.679  1.00  0.00    -0.096 SA
BRANCH  12  13
HETATM   13  C   UNL     1       7.035  27.413  56.426  1.00  0.00     0.142 C 
HETATM   14  C   UNL     1       5.566  27.595  56.066  1.00  0.00     0.031 C 
BRANCH  13  15
HETATM   15  C   UNL     1       7.585  25.994  56.236  1.00  0.00     0.236 C 
HETATM   16  N   UNL     1       7.058  25.304  55.158  1.00  0.00    -0.326 N 
HETATM   17  H   UNL     1       6.437  25.822  54.544  1.00  0.00     0.169 HD
HETATM   18  O   UNL     1       8.458  25.574  56.994  1.00  0.00    -0.272 OA
BRANCH  16  19
HETATM   19  C   UNL     1       7.377  23.996  54.738  1.00  0.00     0.034 A 
HETATM   20  C   UNL     1       7.433  22.891  55.590  1.00  0.00     0.029 A 
HETATM   21  C   UNL     1       7.757  21.625  55.092  1.00  0.00     0.002 A 
HETATM   22  C   UNL     1       8.022  21.451  53.737  1.00  0.00     0.000 A 
HETATM   23  C   UNL     1       7.965  22.545  52.876  1.00  0.00     0.002 A 
HETATM   24  C   UNL     1       7.644  23.811  53.375  1.00  0.00     0.029 A 
ENDBRANCH  16  19
ENDBRANCH  13  15
ENDBRANCH  12  13
ENDBRANCH   6  12
BRANCH   1  25
HETATM   25  O   UNL     1       7.209  33.445  62.087  1.00  0.00    -0.351 OA
BRANCH  25  26
HETATM   26  C   UNL     1       6.817  32.762  63.277  1.00  0.00     0.171 C 
HETATM   27  C   UNL     1       7.622  33.331  64.431  1.00  0.00     0.034 C 
ENDBRANCH  25  26
ENDBRANCH   1  25
TORSDOF 6
ENDMDL
MODEL 6
REMARK VINA RESULT:      -8.7      1.575      2.399
REMARK  6 active torsions:
REMARK  status: ('A' for Active; 'I' for Inactive)
REMARK    1  A    between atoms: C_2  and  O_3 
REMARK    2  A    between atoms: O_3  and  C_4 
REMARK    3  A    between atoms: C_9  and  S_10 
REMARK    4  A    between atoms: S_10  and  C_11 
REMARK    5  A    between atoms: C_11  and  C_12 
REMARK       I    between atoms: C_12  and  N_13 
REMARK    6  A    between atoms: N_13  and  C_14 
ROOT
HETATM    1  C   UNL     1       7.739  23.179  53.117  1.00  0.00     0.069 A 
HETATM    2  C   UNL     1       7.632  23.456  54.479  1.00  0.00     0.050 A 
HETATM    3  C   UNL     1       7.535  24.787  54.931  1.00  0.00    -0.004 A 
HETATM    4  C   UNL     1       7.530  25.854  54.014  1.00  0.00     0.068 A 
HETATM    5  N   UNL     1       7.458  27.136  54.402  1.00  0.00    -0.241 NA
HETATM    6  C   UNL     1       7.448  27.423  55.725  1.00  0.00     0.100 A 
HETATM    7  C   UNL     1       7.418  26.440  56.713  1.00  0.00    -0.026 A 
HETATM    8  C   UNL     1       7.358  26.757  58.178  1.00  0.00     0.051 C 
HETATM    9  C   UNL     1       7.457  25.105  56.293  1.00  0.00     0.023 A 
HETATM   10  C   UNL     1       7.608  25.555  52.662  1.00  0.00     0.035 A 
HETATM   11  C   UNL     1       7.712  24.236  52.211  1.00  0.00     0.039 A 
ENDROOT
BRANCH   6  12
HETATM   12  S   UNL     1       7.536  29.160  56.114  1.00  0.00    -0.096 SA
BRANCH  12  13
HETATM   13  C   UNL     1       9.278  29.340  56.659  1.00  0.00     0.142 C 
HETATM   14  C   UNL     1      10.266  29.598  55.528  1.00  0.00     0.031 C 
BRANCH  13  15
HETATM   15  C   UNL     1       9.383  30.296  57.852  1.00  0.00     0.236 C 
HETATM   16  N   UNL     1       8.465  30.072  58.863  1.00  0.00    -0.326 N 
HETATM   17  H   UNL     1       7.877  29.249  58.770  1.00  0.00     0.169 HD
HETATM   18  O   UNL     1      10.266  31.153  57.869  1.00  0.00    -0.272 OA
BRANCH  16  19
HETATM   19  C   UNL     1       8.329  30.783  60.073  1.00  0.00     0.034 A 
HETATM   20  C   UNL     1       9.099  30.544  61.213  1.00  0.00     0.029 A 
HETATM   21  C   UNL     1       8.901  31.296  62.375  1.00  0.00     0.002 A 
HETATM   22  C   UNL     1       7.935  32.297  62.407  1.00  0.00     0.000 A 
HETATM   23  C   UNL     1       7.163  32.547  61.275  1.00  0.00     0.002 A 
HETATM   24  C   UNL     1       7.359  31.794  60.114  1.00  0.00     0.029 A 
ENDBRANCH  16  19
ENDBRANCH  13  15
ENDBRANCH  12  13
ENDBRANCH   6  12
BRANCH   1  25
HETATM   25  O   UNL     1       7.868  21.942  52.554  1.00  0.00    -0.351 OA
BRANCH  25  26
HETATM   26  C   UNL     1       7.806  20.819  53.432  1.00  0.00     0.171 C 
HETATM   27  C   UNL     1       9.203  20.234  53.543  1.00  0.00     0.034 C 
ENDBRANCH  25  26
ENDBRANCH   1  25
TORSDOF 6
ENDMDL
MODEL 7
REMARK VINA RESULT:      -8.4      1.636      2.215
REMARK  6 active torsions:
REMARK  status: ('A' for Active; 'I' for Inactive)
REMARK    1  A    between atoms: C_2  and  O_3 
REMARK    2  A    between atoms: O_3  and  C_4 
REMARK    3  A    between atoms: C_9  and  S_10 
REMARK    4  A    between atoms: S_10  and  C_11 
REMARK    5  A    between atoms: C_11  and  C_12 
REMARK       I    between atoms: C_12  and  N_13 
REMARK    6  A    between atoms: N_13  and  C_14 
ROOT
HETATM    1  C   UNL     1       8.619  22.950  54.885  1.00  0.00     0.069 A 
HETATM    2  C   UNL     1       8.166  23.960  54.037  1.00  0.00     0.050 A 
HETATM    3  C   UNL     1       7.468  25.068  54.557  1.00  0.00    -0.004 A 
HETATM    4  C   UNL     1       7.235  25.180  55.939  1.00  0.00     0.068 A 
HETATM    5  N   UNL     1       6.560  26.209  56.475  1.00  0.00    -0.241 NA
HETATM    6  C   UNL     1       6.034  27.148  55.653  1.00  0.00     0.100 A 
HETATM    7  C   UNL     1       6.236  27.147  54.273  1.00  0.00    -0.026 A 
HETATM    8  C   UNL     1       5.693  28.213  53.368  1.00  0.00     0.051 C 
HETATM    9  C   UNL     1       6.972  26.086  53.733  1.00  0.00     0.023 A 
HETATM   10  C   UNL     1       7.719  24.179  56.768  1.00  0.00     0.035 A 
HETATM   11  C   UNL     1       8.404  23.074  56.254  1.00  0.00     0.039 A 
ENDROOT
BRANCH   6  12
HETATM   12  S   UNL     1       5.009  28.360  56.463  1.00  0.00    -0.096 SA
BRANCH  12  13
HETATM   13  C   UNL     1       6.104  29.832  56.485  1.00  0.00     0.142 C 
HETATM   14  C   UNL     1       5.417  31.132  56.085  1.00  0.00     0.031 C 
BRANCH  13  15
HETATM   15  C   UNL     1       6.914  29.892  57.784  1.00  0.00     0.236 C 
HETATM   16  N   UNL     1       7.022  31.151  58.348  1.00  0.00    -0.326 N 
HETATM   17  H   UNL     1       6.484  31.894  57.910  1.00  0.00     0.169 HD
HETATM   18  O   UNL     1       7.375  28.856  58.262  1.00  0.00    -0.272 OA
BRANCH  16  19
HETATM   19  C   UNL     1       7.696  31.507  59.535  1.00  0.00     0.034 A 
HETATM   20  C   UNL     1       7.074  31.642  60.778  1.00  0.00     0.029 A 
HETATM   21  C   UNL     1       7.816  31.998  61.908  1.00  0.00     0.002 A 
HETATM   22  C   UNL     1       9.186  32.217  61.808  1.00  0.00     0.000 A 
HETATM   23  C   UNL     1       9.818  32.081  60.575  1.00  0.00     0.002 A 
HETATM   24  C   UNL     1       9.076  31.728  59.444  1.00  0.00     0.029 A 
ENDBRANCH  16  19
ENDBRANCH  13  15
ENDBRANCH  12  13
ENDBRANCH   6  12
BRANCH   1  25
HETATM   25  O   UNL     1       9.277  21.815  54.507  1.00  0.00    -0.351 OA
BRANCH  25  26
HETATM   26  C   UNL     1       8.486  20.644  54.303  1.00  0.00     0.171 C 
HETATM   27  C   UNL     1       8.292  20.464  52.809  1.00  0.00     0.034 C 
ENDBRANCH  25  26
ENDBRANCH   1  25
TORSDOF 6
ENDMDL
MODEL 8
REMARK VINA RESULT:      -8.3      4.553      8.113
REMARK  6 active torsions:
REMARK  status: ('A' for Active; 'I' for Inactive)
REMARK    1  A    between atoms: C_2  and  O_3 
REMARK    2  A    between atoms: O_3  and  C_4 
REMARK    3  A    between atoms: C_9  and  S_10 
REMARK    4  A    between atoms: S_10  and  C_11 
REMARK    5  A    between atoms: C_11  and  C_12 
REMARK       I    between atoms: C_12  and  N_13 
REMARK    6  A    between atoms: N_13  and  C_14 
ROOT
HETATM    1  C   UNL     1       8.799  22.305  54.638  1.00  0.00     0.069 A 
HETATM    2  C   UNL     1       8.654  23.218  55.681  1.00  0.00     0.050 A 
HETATM    3  C   UNL     1       8.079  24.484  55.446  1.00  0.00    -0.004 A 
HETATM    4  C   UNL     1       7.630  24.836  54.161  1.00  0.00     0.068 A 
HETATM    5  N   UNL     1       7.094  26.036  53.890  1.00  0.00    -0.241 NA
HETATM    6  C   UNL     1       7.033  26.966  54.872  1.00  0.00     0.100 A 
HETATM    7  C   UNL     1       7.421  26.706  56.186  1.00  0.00    -0.026 A 
HETATM    8  C   UNL     1       7.309  27.720  57.286  1.00  0.00     0.051 C 
HETATM    9  C   UNL     1       7.945  25.437  56.463  1.00  0.00     0.023 A 
HETATM   10  C   UNL     1       7.758  23.903  53.144  1.00  0.00     0.035 A 
HETATM   11  C   UNL     1       8.335  22.650  53.371  1.00  0.00     0.039 A 
ENDROOT
BRANCH   6  12
HETATM   12  S   UNL     1       6.472  28.574  54.347  1.00  0.00    -0.096 SA
BRANCH  12  13
HETATM   13  C   UNL     1       4.666  28.307  54.168  1.00  0.00     0.142 C 
HETATM   14  C   UNL     1       3.809  29.176  55.080  1.00  0.00     0.031 C 
BRANCH  13  15
HETATM   15  C   UNL     1       4.256  28.306  52.691  1.00  0.00     0.236 C 
HETATM   16  N   UNL     1       5.177  27.735  51.829  1.00  0.00    -0.326 N 
HETATM   17  H   UNL     1       5.983  27.289  52.256  1.00  0.00     0.169 HD
HETATM   18  O   UNL     1       3.160  28.758  52.363  1.00  0.00    -0.272 OA
BRANCH  16  19
HETATM   19  C   UNL     1       5.069  27.589  50.431  1.00  0.00     0.034 A 
HETATM   20  C   UNL     1       4.659  26.415  49.795  1.00  0.00     0.029 A 
HETATM   21  C   UNL     1       4.579  26.354  48.400  1.00  0.00     0.002 A 
HETATM   22  C   UNL     1       4.902  27.466  47.629  1.00  0.00     0.000 A 
HETATM   23  C   UNL     1       5.309  28.643  48.252  1.00  0.00     0.002 A 
HETATM   24  C   UNL     1       5.392  28.704  49.646  1.00  0.00     0.029 A 
ENDBRANCH  16  19
ENDBRANCH  13  15
ENDBRANCH  12  13
ENDBRANCH   6  12
BRANCH   1  25
HETATM   25  O   UNL     1       9.364  21.065  54.725  1.00  0.00    -0.351 OA
BRANCH  25  26
HETATM   26  C   UNL     1       9.167  20.346  55.942  1.00  0.00     0.171 C 
HETATM   27  C   UNL     1       7.678  20.111  56.112  1.00  0.00     0.034 C 
ENDBRANCH  25  26
ENDBRANCH   1  25
TORSDOF 6
ENDMDL
MODEL 9
REMARK VINA RESULT:      -8.1      2.999      4.180
REMARK  6 active torsions:
REMARK  status: ('A' for Active; 'I' for Inactive)
REMARK    1  A    between atoms: C_2  and  O_3 
REMARK    2  A    between atoms: O_3  and  C_4 
REMARK    3  A    between atoms: C_9  and  S_10 
REMARK    4  A    between atoms: S_10  and  C_11 
REMARK    5  A    between atoms: C_11  and  C_12 
REMARK       I    between atoms: C_12  and  N_13 
REMARK    6  A    between atoms: N_13  and  C_14 
ROOT
HETATM    1  C   UNL     1       5.903  26.943  55.478  1.00  0.00     0.069 A 
HETATM    2  C   UNL     1       7.254  27.286  55.483  1.00  0.00     0.050 A 
HETATM    3  C   UNL     1       7.746  28.233  56.403  1.00  0.00    -0.004 A 
HETATM    4  C   UNL     1       6.885  28.834  57.338  1.00  0.00     0.068 A 
HETATM    5  N   UNL     1       7.308  29.754  58.219  1.00  0.00    -0.241 NA
HETATM    6  C   UNL     1       8.598  30.163  58.173  1.00  0.00     0.100 A 
HETATM    7  C   UNL     1       9.539  29.608  57.306  1.00  0.00    -0.026 A 
HETATM    8  C   UNL     1      10.978  30.028  57.288  1.00  0.00     0.051 C 
HETATM    9  C   UNL     1       9.091  28.624  56.417  1.00  0.00     0.023 A 
HETATM   10  C   UNL     1       5.550  28.458  57.335  1.00  0.00     0.035 A 
HETATM   11  C   UNL     1       5.057  27.525  56.418  1.00  0.00     0.039 A 
ENDROOT
BRANCH   6  12
HETATM   12  S   UNL     1       8.992  31.514  59.266  1.00  0.00    -0.096 SA
BRANCH  12  13
HETATM   13  C   UNL     1       8.419  30.872  60.886  1.00  0.00     0.142 C 
HETATM   14  C   UNL     1       9.533  30.348  61.784  1.00  0.00     0.031 C 
BRANCH  13  15
HETATM   15  C   UNL     1       7.448  31.854  61.552  1.00  0.00     0.236 C 
HETATM   16  N   UNL     1       7.470  31.849  62.936  1.00  0.00    -0.326 N 
HETATM   17  H   UNL     1       8.182  31.275  63.378  1.00  0.00     0.169 HD
HETATM   18  O   UNL     1       6.757  32.594  60.854  1.00  0.00    -0.272 OA
BRANCH  16  19
HETATM   19  C   UNL     1       6.698  32.642  63.810  1.00  0.00     0.034 A 
HETATM   20  C   UNL     1       5.314  32.800  63.710  1.00  0.00     0.029 A 
HETATM   21  C   UNL     1       4.623  33.606  64.620  1.00  0.00     0.002 A 
HETATM   22  C   UNL     1       5.308  34.259  65.640  1.00  0.00     0.000 A 
HETATM   23  C   UNL     1       6.688  34.106  65.753  1.00  0.00     0.002 A 
HETATM   24  C   UNL     1       7.379  33.302  64.842  1.00  0.00     0.029 A 
ENDBRANCH  16  19
ENDBRANCH  13  15
ENDBRANCH  12  13
ENDBRANCH   6  12
BRANCH   1  25
HETATM   25  O   UNL     1       5.296  26.067  54.623  1.00  0.00    -0.351 OA
BRANCH  25  26
HETATM   26  C   UNL     1       5.381  26.357  53.228  1.00  0.00     0.171 C 
HETATM   27  C   UNL     1       4.383  27.458  52.917  1.00  0.00     0.034 C 
ENDBRANCH  25  26
ENDBRANCH   1  25
TORSDOF 6
ENDMDL
MODEL 10
REMARK VINA RESULT:      -8.0      4.441      9.971
REMARK  6 active torsions:
REMARK  status: ('A' for Active; 'I' for Inactive)
REMARK    1  A    between atoms: C_2  and  O_3 
REMARK    2  A    between atoms: O_3  and  C_4 
REMARK    3  A    between atoms: C_9  and  S_10 
REMARK    4  A    between atoms: S_10  and  C_11 
REMARK    5  A    between atoms: C_11  and  C_12 
REMARK       I    between atoms: C_12  and  N_13 
REMARK    6  A    between atoms: N_13  and  C_14 
ROOT
HETATM    1  C   UNL     1       7.304  30.176  58.396  1.00  0.00     0.069 A 
HETATM    2  C   UNL     1       7.896  28.917  58.304  1.00  0.00     0.050 A 
HETATM    3  C   UNL     1       7.508  28.020  57.290  1.00  0.00    -0.004 A 
HETATM    4  C   UNL     1       6.532  28.386  56.347  1.00  0.00     0.068 A 
HETATM    5  N   UNL     1       6.120  27.557  55.376  1.00  0.00    -0.241 NA
HETATM    6  C   UNL     1       6.619  26.298  55.332  1.00  0.00     0.100 A 
HETATM    7  C   UNL     1       7.613  25.847  56.200  1.00  0.00    -0.026 A 
HETATM    8  C   UNL     1       8.200  24.469  56.121  1.00  0.00     0.051 C 
HETATM    9  C   UNL     1       8.058  26.736  57.185  1.00  0.00     0.023 A 
HETATM   10  C   UNL     1       5.976  29.654  56.439  1.00  0.00     0.035 A 
HETATM   11  C   UNL     1       6.353  30.544  57.449  1.00  0.00     0.039 A 
ENDROOT
BRANCH   6  12
HETATM   12  S   UNL     1       5.864  25.237  54.116  1.00  0.00    -0.096 SA
BRANCH  12  13
HETATM   13  C   UNL     1       6.570  25.887  52.553  1.00  0.00     0.142 C 
HETATM   14  C   UNL     1       7.532  24.935  51.854  1.00  0.00     0.031 C 
BRANCH  13  15
HETATM   15  C   UNL     1       5.473  26.480  51.661  1.00  0.00     0.236 C 
HETATM   16  N   UNL     1       5.613  26.219  50.310  1.00  0.00    -0.326 N 
HETATM   17  H   UNL     1       6.364  25.588  50.043  1.00  0.00     0.169 HD
HETATM   18  O   UNL     1       4.541  27.099  52.174  1.00  0.00    -0.272 OA
BRANCH  16  19
HETATM   19  C   UNL     1       4.761  26.627  49.262  1.00  0.00     0.034 A 
HETATM   20  C   UNL     1       4.823  27.878  48.645  1.00  0.00     0.029 A 
HETATM   21  C   UNL     1       3.940  28.204  47.611  1.00  0.00     0.002 A 
HETATM   22  C   UNL     1       2.990  27.282  47.182  1.00  0.00     0.000 A 
HETATM   23  C   UNL     1       2.922  26.029  47.788  1.00  0.00     0.002 A 
HETATM   24  C   UNL     1       3.803  25.704  48.823  1.00  0.00     0.029 A 
ENDBRANCH  16  19
ENDBRANCH  13  15
ENDBRANCH  12  13
ENDBRANCH   6  12
BRANCH   1  25
HETATM   25  O   UNL     1       7.566  31.123  59.345  1.00  0.00    -0.351 OA
BRANCH  25  26
HETATM   26  C   UNL     1       8.756  30.957  60.116  1.00  0.00     0.171 C 
HETATM   27  C   UNL     1       9.807  31.903  59.565  1.00  0.00     0.034 C 
ENDBRANCH  25  26
ENDBRANCH   1  25
TORSDOF 6
ENDMDL
