MODEL 1
REMARK VINA RESULT:     -10.3      0.000      0.000
REMARK  4 active torsions:
REMARK  status: ('A' for Active; 'I' for Inactive)
REMARK    1  A    between atoms: N_4  and  C_5 
REMARK    2  A    between atoms: C_15  and  C_16 
REMARK       I    between atoms: C_16  and  N_17 
REMARK    3  A    between atoms: N_17  and  C_18 
REMARK    4  A    between atoms: C_19  and  C_20 
REMARK       I    between atoms: C_20  and  N_21 
ROOT
HETATM    1  C   UNL     1       3.831  29.671  54.843  1.00  0.00     0.073 C 
HETATM    2  C   UNL     1       4.976  28.874  55.347  1.00  0.00     0.069 A 
HETATM    3  N   UNL     1       5.147  27.610  54.938  1.00  0.00    -0.170 NA
HETATM    4  N   UNL     1       6.295  27.179  55.547  1.00  0.00    -0.216 N 
HETATM    5  C   UNL     1       6.755  28.145  56.430  1.00  0.00     0.145 A 
HETATM    6  C   UNL     1       5.943  29.247  56.296  1.00  0.00     0.087 A 
HETATM    7  N   UNL     1       7.753  28.085  57.346  1.00  0.00    -0.349 N 
HETATM    8  C   UNL     1       7.943  29.176  58.177  1.00  0.00     0.111 A 
HETATM    9  C   UNL     1       7.237  30.327  58.117  1.00  0.00     0.098 A 
HETATM   10  C   UNL     1       6.139  30.438  57.094  1.00  0.00     0.205 A 
HETATM   11  O   UNL     1       5.452  31.450  56.988  1.00  0.00    -0.286 OA
HETATM   12  H   UNL     1       8.190  27.213  57.645  1.00  0.00     0.167 HD
ENDROOT
BRANCH   9  13
HETATM   13  C   UNL     1       7.542  31.396  59.117  1.00  0.00     0.261 C 
HETATM   14  N   UNL     1       6.695  31.426  60.210  1.00  0.00    -0.322 N 
HETATM   15  H   UNL     1       6.078  30.617  60.311  1.00  0.00     0.169 HD
HETATM   16  O   UNL     1       8.525  32.114  58.966  1.00  0.00    -0.267 OA
BRANCH  14  17
HETATM   17  C   UNL     1       6.914  32.175  61.393  1.00  0.00     0.050 A 
HETATM   18  C   UNL     1       7.863  31.905  62.397  1.00  0.00     0.058 A 
HETATM   19  C   UNL     1       7.844  32.655  63.588  1.00  0.00     0.019 A 
HETATM   20  C   UNL     1       6.936  33.699  63.763  1.00  0.00     0.001 A 
HETATM   21  C   UNL     1       6.054  34.022  62.740  1.00  0.00     0.002 A 
HETATM   22  C   UNL     1       6.049  33.272  61.562  1.00  0.00     0.030 A 
BRANCH  18  23
HETATM   23  C   UNL     1       9.027  30.988  62.262  1.00  0.00     0.251 C 
HETATM   24  N   UNL     1       8.846  29.697  62.677  1.00  0.00    -0.366 N 
HETATM   25  H   UNL     1       8.013  29.394  63.159  1.00  0.00     0.159 HD
HETATM   26  H   UNL     1       9.642  29.078  62.616  1.00  0.00     0.159 HD
HETATM   27  O   UNL     1      10.060  31.329  61.697  1.00  0.00    -0.268 OA
ENDBRANCH  18  23
ENDBRANCH  14  17
ENDBRANCH   9  13
BRANCH   4  28
HETATM   28  C   UNL     1       6.834  25.901  55.224  1.00  0.00     0.060 A 
HETATM   29  C   UNL     1       6.865  24.856  56.153  1.00  0.00     0.031 A 
HETATM   30  C   UNL     1       7.398  23.613  55.794  1.00  0.00     0.002 A 
HETATM   31  C   UNL     1       7.906  23.409  54.513  1.00  0.00     0.000 A 
HETATM   32  C   UNL     1       7.901  24.452  53.589  1.00  0.00     0.002 A 
HETATM   33  C   UNL     1       7.376  25.697  53.943  1.00  0.00     0.031 A 
ENDBRANCH   4  28
TORSDOF 4
ENDMDL
MODEL 2
REMARK VINA RESULT:     -10.1      2.558      8.532
REMARK  4 active torsions:
REMARK  status: ('A' for Active; 'I' for Inactive)
REMARK    1  A    between atoms: N_4  and  C_5 
REMARK    2  A    between atoms: C_15  and  C_16 
REMARK       I    between atoms: C_16  and  N_17 
REMARK    3  A    between atoms: N_17  and  C_18 
REMARK    4  A    between atoms: C_19  and  C_20 
REMARK       I    between atoms: C_20  and  N_21 
ROOT
HETATM    1  C   UNL     1       4.748  31.992  55.912  1.00  0.00     0.073 C 
HETATM    2  C   UNL     1       5.616  31.333  56.918  1.00  0.00     0.069 A 
HETATM    3  N   UNL     1       6.222  32.062  57.865  1.00  0.00    -0.170 NA
HETATM    4  N   UNL     1       6.901  31.163  58.642  1.00  0.00    -0.216 N 
HETATM    5  C   UNL     1       6.810  29.894  58.090  1.00  0.00     0.145 A 
HETATM    6  C   UNL     1       5.969  29.975  57.005  1.00  0.00     0.087 A 
HETATM    7  N   UNL     1       7.448  28.746  58.430  1.00  0.00    -0.349 N 
HETATM    8  C   UNL     1       7.243  27.627  57.641  1.00  0.00     0.111 A 
HETATM    9  C   UNL     1       6.413  27.572  56.576  1.00  0.00     0.098 A 
HETATM   10  C   UNL     1       5.670  28.820  56.185  1.00  0.00     0.205 A 
HETATM   11  O   UNL     1       4.906  28.847  55.224  1.00  0.00    -0.286 OA
HETATM   12  H   UNL     1       8.258  28.716  59.049  1.00  0.00     0.167 HD
ENDROOT
BRANCH   9  13
HETATM   13  C   UNL     1       6.339  26.293  55.804  1.00  0.00     0.261 C 
HETATM   14  N   UNL     1       7.527  25.901  55.214  1.00  0.00    -0.322 N 
HETATM   15  H   UNL     1       8.357  26.416  55.514  1.00  0.00     0.169 HD
HETATM   16  O   UNL     1       5.297  25.646  55.792  1.00  0.00    -0.267 OA
BRANCH  14  17
HETATM   17  C   UNL     1       7.773  24.629  54.641  1.00  0.00     0.050 A 
HETATM   18  C   UNL     1       8.338  23.511  55.283  1.00  0.00     0.058 A 
HETATM   19  C   UNL     1       8.665  22.370  54.527  1.00  0.00     0.019 A 
HETATM   20  C   UNL     1       8.382  22.308  53.163  1.00  0.00     0.001 A 
HETATM   21  C   UNL     1       7.748  23.378  52.544  1.00  0.00     0.002 A 
HETATM   22  C   UNL     1       7.439  24.525  53.278  1.00  0.00     0.030 A 
BRANCH  18  23
HETATM   23  C   UNL     1       8.483  23.341  56.755  1.00  0.00     0.251 C 
HETATM   24  N   UNL     1       8.366  22.068  57.242  1.00  0.00    -0.366 N 
HETATM   25  H   UNL     1       8.082  21.291  56.665  1.00  0.00     0.159 HD
HETATM   26  H   UNL     1       8.432  21.950  58.243  1.00  0.00     0.159 HD
HETATM   27  O   UNL     1       8.810  24.268  57.487  1.00  0.00    -0.268 OA
ENDBRANCH  18  23
ENDBRANCH  14  17
ENDBRANCH   9  13
BRANCH   4  28
HETATM   28  C   UNL     1       7.560  31.603  59.825  1.00  0.00     0.060 A 
HETATM   29  C   UNL     1       6.850  32.040  60.948  1.00  0.00     0.031 A 
HETATM   30  C   UNL     1       7.535  32.458  62.094  1.00  0.00     0.002 A 
HETATM   31  C   UNL     1       8.928  32.448  62.123  1.00  0.00     0.000 A 
HETATM   32  C   UNL     1       9.644  32.038  61.001  1.00  0.00     0.002 A 
HETATM   33  C   UNL     1       8.965  31.626  59.851  1.00  0.00     0.031 A 
ENDBRANCH   4  28
TORSDOF 4
ENDMDL
MODEL 3
REMARK VINA RESULT:     -10.0      2.230      3.258
REMARK  4 active torsions:
REMARK  status: ('A' for Active; 'I' for Inactive)
REMARK    1  A    between atoms: N_4  and  C_5 
REMARK    2  A    between atoms: C_15  and  C_16 
REMARK       I    between atoms: C_16  and  N_17 
REMARK    3  A    between atoms: N_17  and  C_18 
REMARK    4  A    between atoms: C_19  and  C_20 
REMARK       I    between atoms: C_20  and  N_21 
ROOT
HETATM    1  C   UNL     1       4.601  27.159  53.415  1.00  0.00     0.073 C 
HETATM    2  C   UNL     1       5.655  26.387  54.117  1.00  0.00     0.069 A 
HETATM    3  N   UNL     1       5.724  25.057  53.973  1.00  0.00    -0.170 NA
HETATM    4  N   UNL     1       6.811  24.663  54.705  1.00  0.00    -0.216 N 
HETATM    5  C   UNL     1       7.332  25.745  55.400  1.00  0.00     0.145 A 
HETATM    6  C   UNL     1       6.626  26.861  55.015  1.00  0.00     0.087 A 
HETATM    7  N   UNL     1       8.295  25.787  56.353  1.00  0.00    -0.349 N 
HETATM    8  C   UNL     1       8.560  27.003  56.961  1.00  0.00     0.111 A 
HETATM    9  C   UNL     1       7.963  28.173  56.643  1.00  0.00     0.098 A 
HETATM   10  C   UNL     1       6.908  28.167  55.571  1.00  0.00     0.205 A 
HETATM   11  O   UNL     1       6.317  29.191  55.237  1.00  0.00    -0.286 OA
HETATM   12  H   UNL     1       8.643  24.960  56.838  1.00  0.00     0.167 HD
ENDROOT
BRANCH   9  13
HETATM   13  C   UNL     1       8.336  29.391  57.426  1.00  0.00     0.261 C 
HETATM   14  N   UNL     1       7.564  29.616  58.552  1.00  0.00    -0.322 N 
HETATM   15  H   UNL     1       6.954  28.843  58.828  1.00  0.00     0.169 HD
HETATM   16  O   UNL     1       9.307  30.061  57.091  1.00  0.00    -0.267 OA
BRANCH  14  17
HETATM   17  C   UNL     1       7.863  30.551  59.574  1.00  0.00     0.050 A 
HETATM   18  C   UNL     1       7.237  31.794  59.787  1.00  0.00     0.058 A 
HETATM   19  C   UNL     1       7.762  32.677  60.749  1.00  0.00     0.019 A 
HETATM   20  C   UNL     1       8.857  32.315  61.533  1.00  0.00     0.001 A 
HETATM   21  C   UNL     1       9.425  31.056  61.382  1.00  0.00     0.002 A 
HETATM   22  C   UNL     1       8.927  30.179  60.416  1.00  0.00     0.030 A 
BRANCH  18  23
HETATM   23  C   UNL     1       5.938  32.220  59.199  1.00  0.00     0.251 C 
HETATM   24  N   UNL     1       4.809  31.902  59.903  1.00  0.00    -0.366 N 
HETATM   25  H   UNL     1       4.828  31.309  60.720  1.00  0.00     0.159 HD
HETATM   26  H   UNL     1       3.923  32.161  59.494  1.00  0.00     0.159 HD
HETATM   27  O   UNL     1       5.879  32.924  58.198  1.00  0.00    -0.268 OA
ENDBRANCH  18  23
ENDBRANCH  14  17
ENDBRANCH   9  13
BRANCH   4  28
HETATM   28  C   UNL     1       7.241  23.306  54.664  1.00  0.00     0.060 A 
HETATM   29  C   UNL     1       7.392  22.543  55.827  1.00  0.00     0.031 A 
HETATM   30  C   UNL     1       7.811  21.211  55.744  1.00  0.00     0.002 A 
HETATM   31  C   UNL     1       8.087  20.637  54.505  1.00  0.00     0.000 A 
HETATM   32  C   UNL     1       7.964  21.397  53.344  1.00  0.00     0.002 A 
HETATM   33  C   UNL     1       7.552  22.729  53.421  1.00  0.00     0.031 A 
ENDBRANCH   4  28
TORSDOF 4
ENDMDL
MODEL 4
REMARK VINA RESULT:     -10.0      2.768      8.797
REMARK  4 active torsions:
REMARK  status: ('A' for Active; 'I' for Inactive)
REMARK    1  A    between atoms: N_4  and  C_5 
REMARK    2  A    between atoms: C_15  and  C_16 
REMARK       I    between atoms: C_16  and  N_17 
REMARK    3  A    between atoms: N_17  and  C_18 
REMARK    4  A    between atoms: C_19  and  C_20 
REMARK       I    between atoms: C_20  and  N_21 
ROOT
HETATM    1  C   UNL     1      10.090  30.651  58.313  1.00  0.00     0.073 C 
HETATM    2  C   UNL     1       8.610  30.763  58.316  1.00  0.00     0.069 A 
HETATM    3  N   UNL     1       8.014  31.784  58.945  1.00  0.00    -0.170 NA
HETATM    4  N   UNL     1       6.673  31.617  58.728  1.00  0.00    -0.216 N 
HETATM    5  C   UNL     1       6.444  30.418  58.069  1.00  0.00     0.145 A 
HETATM    6  C   UNL     1       7.671  29.871  57.771  1.00  0.00     0.087 A 
HETATM    7  N   UNL     1       5.279  29.782  57.794  1.00  0.00    -0.349 N 
HETATM    8  C   UNL     1       5.341  28.532  57.201  1.00  0.00     0.111 A 
HETATM    9  C   UNL     1       6.481  27.909  56.826  1.00  0.00     0.098 A 
HETATM   10  C   UNL     1       7.791  28.598  57.093  1.00  0.00     0.205 A 
HETATM   11  O   UNL     1       8.866  28.088  56.788  1.00  0.00    -0.286 OA
HETATM   12  H   UNL     1       4.389  30.028  58.226  1.00  0.00     0.167 HD
ENDROOT
BRANCH   9  13
HETATM   13  C   UNL     1       6.375  26.540  56.235  1.00  0.00     0.261 C 
HETATM   14  N   UNL     1       7.361  26.227  55.316  1.00  0.00    -0.322 N 
HETATM   15  H   UNL     1       8.147  26.878  55.277  1.00  0.00     0.169 HD
HETATM   16  O   UNL     1       5.504  25.770  56.625  1.00  0.00    -0.267 OA
BRANCH  14  17
HETATM   17  C   UNL     1       7.616  24.931  54.803  1.00  0.00     0.050 A 
HETATM   18  C   UNL     1       8.273  23.877  55.465  1.00  0.00     0.058 A 
HETATM   19  C   UNL     1       8.590  22.703  54.756  1.00  0.00     0.019 A 
HETATM   20  C   UNL     1       8.211  22.547  53.423  1.00  0.00     0.001 A 
HETATM   21  C   UNL     1       7.489  23.552  52.791  1.00  0.00     0.002 A 
HETATM   22  C   UNL     1       7.188  24.730  53.478  1.00  0.00     0.030 A 
BRANCH  18  23
HETATM   23  C   UNL     1       8.532  23.805  56.929  1.00  0.00     0.251 C 
HETATM   24  N   UNL     1       8.316  22.597  57.534  1.00  0.00    -0.366 N 
HETATM   25  H   UNL     1       7.892  21.817  57.053  1.00  0.00     0.159 HD
HETATM   26  H   UNL     1       8.460  22.549  58.532  1.00  0.00     0.159 HD
HETATM   27  O   UNL     1       9.029  24.738  57.548  1.00  0.00    -0.268 OA
ENDBRANCH  18  23
ENDBRANCH  14  17
ENDBRANCH   9  13
BRANCH   4  28
HETATM   28  C   UNL     1       5.754  32.613  59.164  1.00  0.00     0.060 A 
HETATM   29  C   UNL     1       4.995  33.365  58.261  1.00  0.00     0.031 A 
HETATM   30  C   UNL     1       4.097  34.330  58.730  1.00  0.00     0.002 A 
HETATM   31  C   UNL     1       3.957  34.554  60.098  1.00  0.00     0.000 A 
HETATM   32  C   UNL     1       4.727  33.827  61.003  1.00  0.00     0.002 A 
HETATM   33  C   UNL     1       5.629  32.867  60.541  1.00  0.00     0.031 A 
ENDBRANCH   4  28
TORSDOF 4
ENDMDL
MODEL 5
REMARK VINA RESULT:      -9.9      2.655      8.900
REMARK  4 active torsions:
REMARK  status: ('A' for Active; 'I' for Inactive)
REMARK    1  A    between atoms: N_4  and  C_5 
REMARK    2  A    between atoms: C_15  and  C_16 
REMARK       I    between atoms: C_16  and  N_17 
REMARK    3  A    between atoms: N_17  and  C_18 
REMARK    4  A    between atoms: C_19  and  C_20 
REMARK       I    between atoms: C_20  and  N_21 
ROOT
HETATM    1  C   UNL     1       4.750  31.797  55.864  1.00  0.00     0.073 C 
HETATM    2  C   UNL     1       5.634  31.160  56.871  1.00  0.00     0.069 A 
HETATM    3  N   UNL     1       6.238  31.906  57.805  1.00  0.00    -0.170 NA
HETATM    4  N   UNL     1       6.935  31.026  58.586  1.00  0.00    -0.216 N 
HETATM    5  C   UNL     1       6.856  29.749  58.049  1.00  0.00     0.145 A 
HETATM    6  C   UNL     1       6.005  29.808  56.969  1.00  0.00     0.087 A 
HETATM    7  N   UNL     1       7.511  28.614  58.397  1.00  0.00    -0.349 N 
HETATM    8  C   UNL     1       7.315  27.483  57.622  1.00  0.00     0.111 A 
HETATM    9  C   UNL     1       6.478  27.406  56.563  1.00  0.00     0.098 A 
HETATM   10  C   UNL     1       5.715  28.640  56.165  1.00  0.00     0.205 A 
HETATM   11  O   UNL     1       4.944  28.646  55.209  1.00  0.00    -0.286 OA
HETATM   12  H   UNL     1       8.326  28.600  59.009  1.00  0.00     0.167 HD
ENDROOT
BRANCH   9  13
HETATM   13  C   UNL     1       6.413  26.117  55.807  1.00  0.00     0.261 C 
HETATM   14  N   UNL     1       7.614  25.709  55.255  1.00  0.00    -0.322 N 
HETATM   15  H   UNL     1       8.440  26.220  55.571  1.00  0.00     0.169 HD
HETATM   16  O   UNL     1       5.367  25.478  55.773  1.00  0.00    -0.267 OA
BRANCH  14  17
HETATM   17  C   UNL     1       7.865  24.426  54.705  1.00  0.00     0.050 A 
HETATM   18  C   UNL     1       7.287  23.880  53.544  1.00  0.00     0.058 A 
HETATM   19  C   UNL     1       7.522  22.530  53.223  1.00  0.00     0.019 A 
HETATM   20  C   UNL     1       8.365  21.743  54.006  1.00  0.00     0.001 A 
HETATM   21  C   UNL     1       9.002  22.303  55.106  1.00  0.00     0.002 A 
HETATM   22  C   UNL     1       8.761  23.635  55.448  1.00  0.00     0.030 A 
BRANCH  18  23
HETATM   23  C   UNL     1       6.562  24.649  52.496  1.00  0.00     0.251 C 
HETATM   24  N   UNL     1       5.208  24.773  52.649  1.00  0.00    -0.366 N 
HETATM   25  H   UNL     1       4.695  24.278  53.364  1.00  0.00     0.159 HD
HETATM   26  H   UNL     1       4.706  25.266  51.926  1.00  0.00     0.159 HD
HETATM   27  O   UNL     1       7.151  25.246  51.604  1.00  0.00    -0.268 OA
ENDBRANCH  18  23
ENDBRANCH  14  17
ENDBRANCH   9  13
BRANCH   4  28
HETATM   28  C   UNL     1       7.597  31.486  59.759  1.00  0.00     0.060 A 
HETATM   29  C   UNL     1       6.890  31.933  60.881  1.00  0.00     0.031 A 
HETATM   30  C   UNL     1       7.578  32.372  62.017  1.00  0.00     0.002 A 
HETATM   31  C   UNL     1       8.971  32.374  62.037  1.00  0.00     0.000 A 
HETATM   32  C   UNL     1       9.684  31.955  60.916  1.00  0.00     0.002 A 
HETATM   33  C   UNL     1       9.002  31.521  59.777  1.00  0.00     0.031 A 
ENDBRANCH   4  28
TORSDOF 4
ENDMDL
MODEL 6
REMARK VINA RESULT:      -9.9      6.147      9.769
REMARK  4 active torsions:
REMARK  status: ('A' for Active; 'I' for Inactive)
REMARK    1  A    between atoms: N_4  and  C_5 
REMARK    2  A    between atoms: C_15  and  C_16 
REMARK       I    between atoms: C_16  and  N_17 
REMARK    3  A    between atoms: N_17  and  C_18 
REMARK    4  A    between atoms: C_19  and  C_20 
REMARK       I    between atoms: C_20  and  N_21 
ROOT
HETATM    1  C   UNL     1       5.306  26.007  57.021  1.00  0.00     0.073 C 
HETATM    2  C   UNL     1       5.873  25.213  55.904  1.00  0.00     0.069 A 
HETATM    3  N   UNL     1       6.602  24.118  56.158  1.00  0.00    -0.170 NA
HETATM    4  N   UNL     1       6.935  23.605  54.934  1.00  0.00    -0.216 N 
HETATM    5  C   UNL     1       6.513  24.463  53.929  1.00  0.00     0.145 A 
HETATM    6  C   UNL     1       5.807  25.481  54.526  1.00  0.00     0.087 A 
HETATM    7  N   UNL     1       6.761  24.435  52.596  1.00  0.00    -0.349 N 
HETATM    8  C   UNL     1       6.291  25.482  51.822  1.00  0.00     0.111 A 
HETATM    9  C   UNL     1       5.555  26.517  52.285  1.00  0.00     0.098 A 
HETATM   10  C   UNL     1       5.238  26.566  53.754  1.00  0.00     0.205 A 
HETATM   11  O   UNL     1       4.581  27.480  54.247  1.00  0.00    -0.286 OA
HETATM   12  H   UNL     1       7.484  23.854  52.171  1.00  0.00     0.167 HD
ENDROOT
BRANCH   9  13
HETATM   13  C   UNL     1       5.160  27.590  51.320  1.00  0.00     0.261 C 
HETATM   14  N   UNL     1       4.055  27.293  50.543  1.00  0.00    -0.322 N 
HETATM   15  H   UNL     1       3.523  26.469  50.831  1.00  0.00     0.169 HD
HETATM   16  O   UNL     1       5.760  28.659  51.315  1.00  0.00    -0.267 OA
BRANCH  14  17
HETATM   17  C   UNL     1       3.350  28.222  49.737  1.00  0.00     0.050 A 
HETATM   18  C   UNL     1       3.544  28.462  48.364  1.00  0.00     0.058 A 
HETATM   19  C   UNL     1       2.871  29.534  47.748  1.00  0.00     0.019 A 
HETATM   20  C   UNL     1       1.973  30.324  48.464  1.00  0.00     0.001 A 
HETATM   21  C   UNL     1       1.717  30.037  49.799  1.00  0.00     0.002 A 
HETATM   22  C   UNL     1       2.394  28.989  50.428  1.00  0.00     0.030 A 
BRANCH  18  23
HETATM   23  C   UNL     1       4.283  27.574  47.427  1.00  0.00     0.251 C 
HETATM   24  N   UNL     1       5.620  27.820  47.270  1.00  0.00    -0.366 N 
HETATM   25  H   UNL     1       6.073  28.628  47.670  1.00  0.00     0.159 HD
HETATM   26  H   UNL     1       6.120  27.241  46.612  1.00  0.00     0.159 HD
HETATM   27  O   UNL     1       3.758  26.595  46.910  1.00  0.00    -0.268 OA
ENDBRANCH  18  23
ENDBRANCH  14  17
ENDBRANCH   9  13
BRANCH   4  28
HETATM   28  C   UNL     1       7.613  22.356  54.848  1.00  0.00     0.060 A 
HETATM   29  C   UNL     1       7.879  21.742  53.619  1.00  0.00     0.031 A 
HETATM   30  C   UNL     1       8.553  20.518  53.576  1.00  0.00     0.002 A 
HETATM   31  C   UNL     1       8.959  19.897  54.756  1.00  0.00     0.000 A 
HETATM   32  C   UNL     1       8.677  20.489  55.985  1.00  0.00     0.002 A 
HETATM   33  C   UNL     1       7.998  21.709  56.034  1.00  0.00     0.031 A 
ENDBRANCH   4  28
TORSDOF 4
ENDMDL
MODEL 7
REMARK VINA RESULT:      -9.8      1.189      2.211
REMARK  4 active torsions:
REMARK  status: ('A' for Active; 'I' for Inactive)
REMARK    1  A    between atoms: N_4  and  C_5 
REMARK    2  A    between atoms: C_15  and  C_16 
REMARK       I    between atoms: C_16  and  N_17 
REMARK    3  A    between atoms: N_17  and  C_18 
REMARK    4  A    between atoms: C_19  and  C_20 
REMARK       I    between atoms: C_20  and  N_21 
ROOT
HETATM    1  C   UNL     1       3.891  29.628  54.349  1.00  0.00     0.073 C 
HETATM    2  C   UNL     1       5.061  28.821  54.776  1.00  0.00     0.069 A 
HETATM    3  N   UNL     1       5.254  27.596  54.269  1.00  0.00    -0.170 NA
HETATM    4  N   UNL     1       6.419  27.146  54.828  1.00  0.00    -0.216 N 
HETATM    5  C   UNL     1       6.871  28.051  55.777  1.00  0.00     0.145 A 
HETATM    6  C   UNL     1       6.034  29.142  55.738  1.00  0.00     0.087 A 
HETATM    7  N   UNL     1       7.883  27.944  56.672  1.00  0.00    -0.349 N 
HETATM    8  C   UNL     1       8.062  28.973  57.583  1.00  0.00     0.111 A 
HETATM    9  C   UNL     1       7.331  30.109  57.619  1.00  0.00     0.098 A 
HETATM   10  C   UNL     1       6.216  30.273  56.623  1.00  0.00     0.205 A 
HETATM   11  O   UNL     1       5.505  31.274  56.603  1.00  0.00    -0.286 OA
HETATM   12  H   UNL     1       8.343  27.063  56.899  1.00  0.00     0.167 HD
ENDROOT
BRANCH   9  13
HETATM   13  C   UNL     1       7.627  31.105  58.695  1.00  0.00     0.261 C 
HETATM   14  N   UNL     1       6.707  31.135  59.727  1.00  0.00    -0.322 N 
HETATM   15  H   UNL     1       6.037  30.363  59.742  1.00  0.00     0.169 HD
HETATM   16  O   UNL     1       8.660  31.765  58.650  1.00  0.00    -0.267 OA
BRANCH  14  17
HETATM   17  C   UNL     1       6.886  31.809  60.961  1.00  0.00     0.050 A 
HETATM   18  C   UNL     1       6.260  33.002  61.367  1.00  0.00     0.058 A 
HETATM   19  C   UNL     1       6.670  33.628  62.560  1.00  0.00     0.019 A 
HETATM   20  C   UNL     1       7.645  33.052  63.373  1.00  0.00     0.001 A 
HETATM   21  C   UNL     1       8.206  31.832  63.016  1.00  0.00     0.002 A 
HETATM   22  C   UNL     1       7.823  31.212  61.825  1.00  0.00     0.030 A 
BRANCH  18  23
HETATM   23  C   UNL     1       5.058  33.607  60.732  1.00  0.00     0.251 C 
HETATM   24  N   UNL     1       4.148  34.192  61.570  1.00  0.00    -0.366 N 
HETATM   25  H   UNL     1       4.213  34.125  62.575  1.00  0.00     0.159 HD
HETATM   26  H   UNL     1       3.315  34.577  61.148  1.00  0.00     0.159 HD
HETATM   27  O   UNL     1       4.937  33.689  59.516  1.00  0.00    -0.268 OA
ENDBRANCH  18  23
ENDBRANCH  14  17
ENDBRANCH   9  13
BRANCH   4  28
HETATM   28  C   UNL     1       6.981  25.909  54.401  1.00  0.00     0.060 A 
HETATM   29  C   UNL     1       7.095  24.812  55.262  1.00  0.00     0.031 A 
HETATM   30  C   UNL     1       7.647  23.612  54.802  1.00  0.00     0.002 A 
HETATM   31  C   UNL     1       8.093  23.503  53.487  1.00  0.00     0.000 A 
HETATM   32  C   UNL     1       8.005  24.597  52.629  1.00  0.00     0.002 A 
HETATM   33  C   UNL     1       7.461  25.800  53.085  1.00  0.00     0.031 A 
ENDBRANCH   4  28
TORSDOF 4
ENDMDL
MODEL 8
REMARK VINA RESULT:      -9.7      2.258      8.779
REMARK  4 active torsions:
REMARK  status: ('A' for Active; 'I' for Inactive)
REMARK    1  A    between atoms: N_4  and  C_5 
REMARK    2  A    between atoms: C_15  and  C_16 
REMARK       I    between atoms: C_16  and  N_17 
REMARK    3  A    between atoms: N_17  and  C_18 
REMARK    4  A    between atoms: C_19  and  C_20 
REMARK       I    between atoms: C_20  and  N_21 
ROOT
HETATM    1  C   UNL     1       4.474  33.017  56.773  1.00  0.00     0.073 C 
HETATM    2  C   UNL     1       5.402  32.330  57.705  1.00  0.00     0.069 A 
HETATM    3  N   UNL     1       5.718  32.894  58.878  1.00  0.00    -0.170 NA
HETATM    4  N   UNL     1       6.546  32.002  59.504  1.00  0.00    -0.216 N 
HETATM    5  C   UNL     1       6.836  30.945  58.652  1.00  0.00     0.145 A 
HETATM    6  C   UNL     1       6.091  31.121  57.509  1.00  0.00     0.087 A 
HETATM    7  N   UNL     1       7.723  29.930  58.793  1.00  0.00    -0.349 N 
HETATM    8  C   UNL     1       7.884  29.052  57.734  1.00  0.00     0.111 A 
HETATM    9  C   UNL     1       7.185  29.097  56.578  1.00  0.00     0.098 A 
HETATM   10  C   UNL     1       6.173  30.196  56.399  1.00  0.00     0.205 A 
HETATM   11  O   UNL     1       5.508  30.304  55.372  1.00  0.00    -0.286 OA
HETATM   12  H   UNL     1       8.461  29.922  59.497  1.00  0.00     0.167 HD
ENDROOT
BRANCH   9  13
HETATM   13  C   UNL     1       7.510  28.096  55.516  1.00  0.00     0.261 C 
HETATM   14  N   UNL     1       6.949  26.846  55.707  1.00  0.00    -0.322 N 
HETATM   15  H   UNL     1       6.235  26.791  56.436  1.00  0.00     0.169 HD
HETATM   16  O   UNL     1       8.168  28.433  54.538  1.00  0.00    -0.267 OA
BRANCH  14  17
HETATM   17  C   UNL     1       6.910  25.812  54.738  1.00  0.00     0.050 A 
HETATM   18  C   UNL     1       5.934  25.629  53.741  1.00  0.00     0.058 A 
HETATM   19  C   UNL     1       5.953  24.459  52.959  1.00  0.00     0.019 A 
HETATM   20  C   UNL     1       6.960  23.507  53.118  1.00  0.00     0.001 A 
HETATM   21  C   UNL     1       7.972  23.725  54.044  1.00  0.00     0.002 A 
HETATM   22  C   UNL     1       7.951  24.872  54.841  1.00  0.00     0.030 A 
BRANCH  18  23
HETATM   23  C   UNL     1       4.945  26.651  53.301  1.00  0.00     0.251 C 
HETATM   24  N   UNL     1       4.499  26.561  52.011  1.00  0.00    -0.366 N 
HETATM   25  H   UNL     1       4.894  25.915  51.344  1.00  0.00     0.159 HD
HETATM   26  H   UNL     1       3.852  27.270  51.696  1.00  0.00     0.159 HD
HETATM   27  O   UNL     1       4.459  27.462  54.080  1.00  0.00    -0.268 OA
ENDBRANCH  18  23
ENDBRANCH  14  17
ENDBRANCH   9  13
BRANCH   4  28
HETATM   28  C   UNL     1       6.970  32.244  60.841  1.00  0.00     0.060 A 
HETATM   29  C   UNL     1       8.229  31.844  61.301  1.00  0.00     0.031 A 
HETATM   30  C   UNL     1       8.611  32.106  62.621  1.00  0.00     0.002 A 
HETATM   31  C   UNL     1       7.738  32.760  63.489  1.00  0.00     0.000 A 
HETATM   32  C   UNL     1       6.473  33.140  63.046  1.00  0.00     0.002 A 
HETATM   33  C   UNL     1       6.084  32.875  61.731  1.00  0.00     0.031 A 
ENDBRANCH   4  28
TORSDOF 4
ENDMDL
MODEL 9
REMARK VINA RESULT:      -9.6      2.727      9.071
REMARK  4 active torsions:
REMARK  status: ('A' for Active; 'I' for Inactive)
REMARK    1  A    between atoms: N_4  and  C_5 
REMARK    2  A    between atoms: C_15  and  C_16 
REMARK       I    between atoms: C_16  and  N_17 
REMARK    3  A    between atoms: N_17  and  C_18 
REMARK    4  A    between atoms: C_19  and  C_20 
REMARK       I    between atoms: C_20  and  N_21 
ROOT
HETATM    1  C   UNL     1      10.041  30.758  58.508  1.00  0.00     0.073 C 
HETATM    2  C   UNL     1       8.562  30.858  58.455  1.00  0.00     0.069 A 
HETATM    3  N   UNL     1       7.937  31.898  59.024  1.00  0.00    -0.170 NA
HETATM    4  N   UNL     1       6.606  31.713  58.767  1.00  0.00    -0.216 N 
HETATM    5  C   UNL     1       6.408  30.487  58.148  1.00  0.00     0.145 A 
HETATM    6  C   UNL     1       7.648  29.939  57.913  1.00  0.00     0.087 A 
HETATM    7  N   UNL     1       5.257  29.833  57.857  1.00  0.00    -0.349 N 
HETATM    8  C   UNL     1       5.347  28.561  57.316  1.00  0.00     0.111 A 
HETATM    9  C   UNL     1       6.504  27.933  57.005  1.00  0.00     0.098 A 
HETATM   10  C   UNL     1       7.799  28.642  57.290  1.00  0.00     0.205 A 
HETATM   11  O   UNL     1       8.888  28.129  57.042  1.00  0.00    -0.286 OA
HETATM   12  H   UNL     1       4.351  30.088  58.249  1.00  0.00     0.167 HD
ENDROOT
BRANCH   9  13
HETATM   13  C   UNL     1       6.427  26.541  56.463  1.00  0.00     0.261 C 
HETATM   14  N   UNL     1       7.438  26.206  55.581  1.00  0.00    -0.322 N 
HETATM   15  H   UNL     1       8.218  26.864  55.535  1.00  0.00     0.169 HD
HETATM   16  O   UNL     1       5.556  25.776  56.863  1.00  0.00    -0.267 OA
BRANCH  14  17
HETATM   17  C   UNL     1       7.720  24.895  55.123  1.00  0.00     0.050 A 
HETATM   18  C   UNL     1       7.348  24.336  53.886  1.00  0.00     0.058 A 
HETATM   19  C   UNL     1       7.566  22.966  53.651  1.00  0.00     0.019 A 
HETATM   20  C   UNL     1       8.198  22.167  54.603  1.00  0.00     0.001 A 
HETATM   21  C   UNL     1       8.641  22.733  55.791  1.00  0.00     0.002 A 
HETATM   22  C   UNL     1       8.411  24.087  56.046  1.00  0.00     0.030 A 
BRANCH  18  23
HETATM   23  C   UNL     1       6.881  25.102  52.698  1.00  0.00     0.251 C 
HETATM   24  N   UNL     1       7.555  24.890  51.526  1.00  0.00    -0.366 N 
HETATM   25  H   UNL     1       8.398  24.338  51.476  1.00  0.00     0.159 HD
HETATM   26  H   UNL     1       7.263  25.429  50.723  1.00  0.00     0.159 HD
HETATM   27  O   UNL     1       5.872  25.796  52.728  1.00  0.00    -0.268 OA
ENDBRANCH  18  23
ENDBRANCH  14  17
ENDBRANCH   9  13
BRANCH   4  28
HETATM   28  C   UNL     1       5.666  32.718  59.132  1.00  0.00     0.060 A 
HETATM   29  C   UNL     1       5.371  33.004  60.470  1.00  0.00     0.031 A 
HETATM   30  C   UNL     1       4.445  34.003  60.787  1.00  0.00     0.002 A 
HETATM   31  C   UNL     1       3.806  34.716  59.775  1.00  0.00     0.000 A 
HETATM   32  C   UNL     1       4.075  34.421  58.440  1.00  0.00     0.002 A 
HETATM   33  C   UNL     1       4.994  33.420  58.117  1.00  0.00     0.031 A 
ENDBRANCH   4  28
TORSDOF 4
ENDMDL
MODEL 10
REMARK VINA RESULT:      -9.5      6.465      9.519
REMARK  4 active torsions:
REMARK  status: ('A' for Active; 'I' for Inactive)
REMARK    1  A    between atoms: N_4  and  C_5 
REMARK    2  A    between atoms: C_15  and  C_16 
REMARK       I    between atoms: C_16  and  N_17 
REMARK    3  A    between atoms: N_17  and  C_18 
REMARK    4  A    between atoms: C_19  and  C_20 
REMARK       I    between atoms: C_20  and  N_21 
ROOT
HETATM    1  C   UNL     1       3.565  30.073  53.455  1.00  0.00     0.073 C 
HETATM    2  C   UNL     1       3.601  29.271  52.208  1.00  0.00     0.069 A 
HETATM    3  N   UNL     1       2.694  29.482  51.245  1.00  0.00    -0.170 NA
HETATM    4  N   UNL     1       3.023  28.623  50.233  1.00  0.00    -0.216 N 
HETATM    5  C   UNL     1       4.062  27.794  50.633  1.00  0.00     0.145 A 
HETATM    6  C   UNL     1       4.465  28.211  51.881  1.00  0.00     0.087 A 
HETATM    7  N   UNL     1       4.597  26.708  50.023  1.00  0.00    -0.349 N 
HETATM    8  C   UNL     1       5.575  25.996  50.696  1.00  0.00     0.111 A 
HETATM    9  C   UNL     1       6.080  26.328  51.905  1.00  0.00     0.098 A 
HETATM   10  C   UNL     1       5.528  27.542  52.600  1.00  0.00     0.205 A 
HETATM   11  O   UNL     1       5.932  27.898  53.704  1.00  0.00    -0.286 OA
HETATM   12  H   UNL     1       4.153  26.228  49.240  1.00  0.00     0.167 HD
ENDROOT
BRANCH   9  13
HETATM   13  C   UNL     1       7.107  25.426  52.513  1.00  0.00     0.261 C 
HETATM   14  N   UNL     1       6.613  24.527  53.440  1.00  0.00    -0.322 N 
HETATM   15  H   UNL     1       5.595  24.447  53.476  1.00  0.00     0.169 HD
HETATM   16  O   UNL     1       8.270  25.475  52.127  1.00  0.00    -0.267 OA
BRANCH  14  17
HETATM   17  C   UNL     1       7.329  23.425  53.971  1.00  0.00     0.050 A 
HETATM   18  C   UNL     1       7.792  23.279  55.292  1.00  0.00     0.058 A 
HETATM   19  C   UNL     1       8.629  22.195  55.617  1.00  0.00     0.019 A 
HETATM   20  C   UNL     1       8.959  21.233  54.663  1.00  0.00     0.001 A 
HETATM   21  C   UNL     1       8.436  21.330  53.380  1.00  0.00     0.002 A 
HETATM   22  C   UNL     1       7.622  22.412  53.039  1.00  0.00     0.030 A 
BRANCH  18  23
HETATM   23  C   UNL     1       7.343  24.086  56.459  1.00  0.00     0.251 C 
HETATM   24  N   UNL     1       8.182  24.127  57.539  1.00  0.00    -0.366 N 
HETATM   25  H   UNL     1       9.010  23.553  57.605  1.00  0.00     0.159 HD
HETATM   26  H   UNL     1       7.869  24.646  58.346  1.00  0.00     0.159 HD
HETATM   27  O   UNL     1       6.334  24.779  56.420  1.00  0.00    -0.268 OA
ENDBRANCH  18  23
ENDBRANCH  14  17
ENDBRANCH   9  13
BRANCH   4  28
HETATM   28  C   UNL     1       2.323  28.680  48.995  1.00  0.00     0.060 A 
HETATM   29  C   UNL     1       2.460  29.762  48.117  1.00  0.00     0.031 A 
HETATM   30  C   UNL     1       1.759  29.778  46.907  1.00  0.00     0.002 A 
HETATM   31  C   UNL     1       0.915  28.722  46.570  1.00  0.00     0.000 A 
HETATM   32  C   UNL     1       0.753  27.653  47.448  1.00  0.00     0.002 A 
HETATM   33  C   UNL     1       1.446  27.634  48.661  1.00  0.00     0.031 A 
ENDBRANCH   4  28
TORSDOF 4
ENDMDL
