MODEL 1
REMARK VINA RESULT:     -10.1      0.000      0.000
REMARK  5 active torsions:
REMARK  status: ('A' for Active; 'I' for Inactive)
REMARK    1  A    between atoms: C_3  and  N_4 
REMARK       I    between atoms: N_4  and  C_5 
REMARK       I    between atoms: C_5  and  N_6 
REMARK    2  A    between atoms: N_6  and  C_7 
REMARK    3  A    between atoms: C_7  and  C_8 
REMARK    4  A    between atoms: C_11  and  N_12 
REMARK       I    between atoms: N_12  and  C_13 
REMARK    5  A    between atoms: C_13  and  C_14 
ROOT
HETATM    1  C   UNL     1       5.732  32.964  63.347  1.00  0.00    -0.040 A 
HETATM    2  C   UNL     1       4.682  33.414  64.154  1.00  0.00     0.011 A 
HETATM    3  C   UNL     1       4.929  33.924  65.434  1.00  0.00     0.030 A 
HETATM    4  C   UNL     1       6.230  33.997  65.932  1.00  0.00     0.035 A 
HETATM    5  C   UNL     1       7.284  33.566  65.115  1.00  0.00     0.030 A 
HETATM    6  C   UNL     1       7.041  33.059  63.835  1.00  0.00     0.011 A 
ENDROOT
BRANCH   1   7
HETATM    7  C   UNL     1       5.459  32.418  61.972  1.00  0.00     0.162 C 
BRANCH   7   8
HETATM    8  N   UNL     1       6.477  31.471  61.578  1.00  0.00    -0.339 N 
HETATM    9  C   UNL     1       7.116  31.645  60.368  1.00  0.00     0.321 C 
HETATM   10  N   UNL     1       8.004  30.617  60.142  1.00  0.00    -0.307 N 
HETATM   11  O   UNL     1       6.920  32.615  59.651  1.00  0.00    -0.247 OA
HETATM   12  H   UNL     1       8.410  30.271  61.001  1.00  0.00     0.170 HD
HETATM   13  H   UNL     1       6.327  30.511  61.852  1.00  0.00     0.164 HD
BRANCH  10  14
HETATM   14  C   UNL     1       8.772  30.420  58.970  1.00  0.00     0.059 A 
HETATM   15  C   UNL     1       8.543  29.446  57.985  1.00  0.00    -0.032 A 
HETATM   16  C   UNL     1       7.472  28.396  58.052  1.00  0.00     0.050 C 
HETATM   17  C   UNL     1       9.389  29.427  56.861  1.00  0.00     0.028 A 
HETATM   18  C   UNL     1      10.452  30.312  56.786  1.00  0.00     0.117 A 
HETATM   19  N   UNL     1      10.739  31.210  57.746  1.00  0.00    -0.271 NA
HETATM   20  C   UNL     1       9.897  31.238  58.805  1.00  0.00     0.146 A 
ENDBRANCH  10  14
ENDBRANCH   7   8
ENDBRANCH   1   7
BRANCH   4  21
HETATM   21  N   UNL     1       6.565  34.484  67.215  1.00  0.00    -0.323 N 
HETATM   22  C   UNL     1       5.833  34.345  68.382  1.00  0.00     0.257 C 
HETATM   23  O   UNL     1       4.779  33.732  68.510  1.00  0.00    -0.267 OA
HETATM   24  H   UNL     1       7.469  34.928  67.279  1.00  0.00     0.169 HD
BRANCH  22  25
HETATM   25  C   UNL     1       6.412  34.989  69.591  1.00  0.00     0.049 A 
HETATM   26  C   UNL     1       5.822  34.733  70.824  1.00  0.00     0.133 A 
HETATM   27  N   UNL     1       6.255  35.260  71.998  1.00  0.00    -0.272 NA
HETATM   28  C   UNL     1       7.313  36.093  71.937  1.00  0.00     0.116 A 
HETATM   29  C   UNL     1       7.961  36.424  70.758  1.00  0.00     0.020 A 
HETATM   30  C   UNL     1       7.499  35.868  69.564  1.00  0.00     0.020 A 
ENDBRANCH  22  25
ENDBRANCH   4  21
TORSDOF 5
ENDMDL
MODEL 2
REMARK VINA RESULT:     -10.0      1.396     11.091
REMARK  5 active torsions:
REMARK  status: ('A' for Active; 'I' for Inactive)
REMARK    1  A    between atoms: C_3  and  N_4 
REMARK       I    between atoms: N_4  and  C_5 
REMARK       I    between atoms: C_5  and  N_6 
REMARK    2  A    between atoms: N_6  and  C_7 
REMARK    3  A    between atoms: C_7  and  C_8 
REMARK    4  A    between atoms: C_11  and  N_12 
REMARK       I    between atoms: N_12  and  C_13 
REMARK    5  A    between atoms: C_13  and  C_14 
ROOT
HETATM    1  C   UNL     1       6.371  33.154  64.313  1.00  0.00    -0.040 A 
HETATM    2  C   UNL     1       7.751  32.995  64.143  1.00  0.00     0.011 A 
HETATM    3  C   UNL     1       8.261  32.291  63.045  1.00  0.00     0.030 A 
HETATM    4  C   UNL     1       7.404  31.736  62.096  1.00  0.00     0.035 A 
HETATM    5  C   UNL     1       6.023  31.914  62.255  1.00  0.00     0.030 A 
HETATM    6  C   UNL     1       5.510  32.619  63.349  1.00  0.00     0.011 A 
ENDROOT
BRANCH   1   7
HETATM    7  C   UNL     1       5.830  33.912  65.496  1.00  0.00     0.162 C 
BRANCH   7   8
HETATM    8  N   UNL     1       6.873  34.183  66.459  1.00  0.00    -0.339 N 
HETATM    9  C   UNL     1       6.518  34.476  67.759  1.00  0.00     0.321 C 
HETATM   10  N   UNL     1       7.636  34.761  68.510  1.00  0.00    -0.307 N 
HETATM   11  O   UNL     1       5.361  34.432  68.154  1.00  0.00    -0.247 OA
HETATM   12  H   UNL     1       8.443  34.234  68.203  1.00  0.00     0.170 HD
HETATM   13  H   UNL     1       7.687  34.669  66.115  1.00  0.00     0.164 HD
BRANCH  10  14
HETATM   14  C   UNL     1       7.649  35.186  69.860  1.00  0.00     0.059 A 
HETATM   15  C   UNL     1       7.496  34.362  70.986  1.00  0.00    -0.032 A 
HETATM   16  C   UNL     1       7.219  32.888  70.938  1.00  0.00     0.050 C 
HETATM   17  C   UNL     1       7.579  34.956  72.259  1.00  0.00     0.028 A 
HETATM   18  C   UNL     1       7.742  36.328  72.368  1.00  0.00     0.117 A 
HETATM   19  N   UNL     1       7.822  37.152  71.308  1.00  0.00    -0.271 NA
HETATM   20  C   UNL     1       7.773  36.562  70.090  1.00  0.00     0.146 A 
ENDBRANCH  10  14
ENDBRANCH   7   8
ENDBRANCH   1   7
BRANCH   4  21
HETATM   21  N   UNL     1       7.834  31.002  60.968  1.00  0.00    -0.323 N 
HETATM   22  C   UNL     1       8.513  31.485  59.863  1.00  0.00     0.257 C 
HETATM   23  O   UNL     1       8.899  32.636  59.693  1.00  0.00    -0.267 OA
HETATM   24  H   UNL     1       7.672  30.007  61.019  1.00  0.00     0.169 HD
BRANCH  22  25
HETATM   25  C   UNL     1       8.817  30.489  58.802  1.00  0.00     0.049 A 
HETATM   26  C   UNL     1       7.878  29.499  58.533  1.00  0.00     0.133 A 
HETATM   27  N   UNL     1       8.038  28.534  57.592  1.00  0.00    -0.272 NA
HETATM   28  C   UNL     1       9.194  28.546  56.898  1.00  0.00     0.116 A 
HETATM   29  C   UNL     1      10.200  29.478  57.101  1.00  0.00     0.020 A 
HETATM   30  C   UNL     1      10.011  30.463  58.073  1.00  0.00     0.020 A 
ENDBRANCH  22  25
ENDBRANCH   4  21
TORSDOF 5
ENDMDL
MODEL 3
REMARK VINA RESULT:      -9.9      4.843     13.004
REMARK  5 active torsions:
REMARK  status: ('A' for Active; 'I' for Inactive)
REMARK    1  A    between atoms: C_3  and  N_4 
REMARK       I    between atoms: N_4  and  C_5 
REMARK       I    between atoms: C_5  and  N_6 
REMARK    2  A    between atoms: N_6  and  C_7 
REMARK    3  A    between atoms: C_7  and  C_8 
REMARK    4  A    between atoms: C_11  and  N_12 
REMARK       I    between atoms: N_12  and  C_13 
REMARK    5  A    between atoms: C_13  and  C_14 
ROOT
HETATM    1  C   UNL     1       6.966  29.280  56.890  1.00  0.00    -0.040 A 
HETATM    2  C   UNL     1       8.090  28.580  57.342  1.00  0.00     0.011 A 
HETATM    3  C   UNL     1       8.291  27.241  56.986  1.00  0.00     0.030 A 
HETATM    4  C   UNL     1       7.375  26.577  56.172  1.00  0.00     0.035 A 
HETATM    5  C   UNL     1       6.260  27.284  55.702  1.00  0.00     0.030 A 
HETATM    6  C   UNL     1       6.058  28.623  56.053  1.00  0.00     0.011 A 
ENDROOT
BRANCH   1   7
HETATM    7  C   UNL     1       6.757  30.720  57.276  1.00  0.00     0.162 C 
BRANCH   7   8
HETATM    8  N   UNL     1       6.195  30.825  58.603  1.00  0.00    -0.339 N 
HETATM    9  C   UNL     1       6.785  31.680  59.510  1.00  0.00     0.321 C 
HETATM   10  N   UNL     1       6.149  31.600  60.729  1.00  0.00    -0.307 N 
HETATM   11  O   UNL     1       7.713  32.419  59.215  1.00  0.00    -0.247 OA
HETATM   12  H   UNL     1       5.162  31.404  60.629  1.00  0.00     0.170 HD
HETATM   13  H   UNL     1       5.810  29.979  58.995  1.00  0.00     0.164 HD
BRANCH  10  14
HETATM   14  C   UNL     1       6.532  32.269  61.916  1.00  0.00     0.059 A 
HETATM   15  C   UNL     1       7.685  32.013  62.674  1.00  0.00    -0.032 A 
HETATM   16  C   UNL     1       8.678  30.925  62.381  1.00  0.00     0.050 C 
HETATM   17  C   UNL     1       7.926  32.811  63.807  1.00  0.00     0.028 A 
HETATM   18  C   UNL     1       6.999  33.771  64.180  1.00  0.00     0.117 A 
HETATM   19  N   UNL     1       5.851  33.992  63.516  1.00  0.00    -0.271 NA
HETATM   20  C   UNL     1       5.650  33.239  62.409  1.00  0.00     0.146 A 
ENDBRANCH  10  14
ENDBRANCH   7   8
ENDBRANCH   1   7
BRANCH   4  21
HETATM   21  N   UNL     1       7.494  25.226  55.777  1.00  0.00    -0.323 N 
HETATM   22  C   UNL     1       7.724  24.742  54.501  1.00  0.00     0.257 C 
HETATM   23  O   UNL     1       7.907  25.414  53.492  1.00  0.00    -0.267 OA
HETATM   24  H   UNL     1       7.466  24.557  56.533  1.00  0.00     0.169 HD
BRANCH  22  25
HETATM   25  C   UNL     1       7.775  23.262  54.367  1.00  0.00     0.049 A 
HETATM   26  C   UNL     1       7.652  22.488  55.516  1.00  0.00     0.133 A 
HETATM   27  N   UNL     1       7.684  21.130  55.525  1.00  0.00    -0.272 NA
HETATM   28  C   UNL     1       7.863  20.518  54.337  1.00  0.00     0.116 A 
HETATM   29  C   UNL     1       8.011  21.198  53.139  1.00  0.00     0.020 A 
HETATM   30  C   UNL     1       7.973  22.593  53.155  1.00  0.00     0.020 A 
ENDBRANCH  22  25
ENDBRANCH   4  21
TORSDOF 5
ENDMDL
MODEL 4
REMARK VINA RESULT:      -9.4      5.378      9.657
REMARK  5 active torsions:
REMARK  status: ('A' for Active; 'I' for Inactive)
REMARK    1  A    between atoms: C_3  and  N_4 
REMARK       I    between atoms: N_4  and  C_5 
REMARK       I    between atoms: C_5  and  N_6 
REMARK    2  A    between atoms: N_6  and  C_7 
REMARK    3  A    between atoms: C_7  and  C_8 
REMARK    4  A    between atoms: C_11  and  N_12 
REMARK       I    between atoms: N_12  and  C_13 
REMARK    5  A    between atoms: C_13  and  C_14 
ROOT
HETATM    1  C   UNL     1       6.803  27.925  55.116  1.00  0.00    -0.040 A 
HETATM    2  C   UNL     1       8.009  28.593  55.354  1.00  0.00     0.011 A 
HETATM    3  C   UNL     1       8.230  29.261  56.564  1.00  0.00     0.030 A 
HETATM    4  C   UNL     1       7.253  29.272  57.560  1.00  0.00     0.035 A 
HETATM    5  C   UNL     1       6.054  28.585  57.329  1.00  0.00     0.030 A 
HETATM    6  C   UNL     1       5.831  27.914  56.123  1.00  0.00     0.011 A 
ENDROOT
BRANCH   1   7
HETATM    7  C   UNL     1       6.572  27.208  53.813  1.00  0.00     0.162 C 
BRANCH   7   8
HETATM    8  N   UNL     1       7.517  26.128  53.641  1.00  0.00    -0.339 N 
HETATM    9  C   UNL     1       7.207  24.885  54.153  1.00  0.00     0.321 C 
HETATM   10  N   UNL     1       8.247  24.007  53.945  1.00  0.00    -0.307 N 
HETATM   11  O   UNL     1       6.129  24.634  54.672  1.00  0.00    -0.247 OA
HETATM   12  H   UNL     1       8.745  24.206  53.087  1.00  0.00     0.170 HD
HETATM   13  H   UNL     1       8.494  26.377  53.675  1.00  0.00     0.164 HD
BRANCH  10  14
HETATM   14  C   UNL     1       8.318  22.671  54.408  1.00  0.00     0.059 A 
HETATM   15  C   UNL     1       8.407  22.265  55.748  1.00  0.00    -0.032 A 
HETATM   16  C   UNL     1       8.514  23.197  56.920  1.00  0.00     0.050 C 
HETATM   17  C   UNL     1       8.425  20.886  56.024  1.00  0.00     0.028 A 
HETATM   18  C   UNL     1       8.421  19.976  54.978  1.00  0.00     0.117 A 
HETATM   19  N   UNL     1       8.407  20.335  53.682  1.00  0.00    -0.271 NA
HETATM   20  C   UNL     1       8.357  21.665  53.434  1.00  0.00     0.146 A 
ENDBRANCH  10  14
ENDBRANCH   7   8
ENDBRANCH   1   7
BRANCH   4  21
HETATM   21  N   UNL     1       7.390  29.932  58.801  1.00  0.00    -0.323 N 
HETATM   22  C   UNL     1       7.167  31.272  59.068  1.00  0.00     0.257 C 
HETATM   23  O   UNL     1       6.766  32.114  58.273  1.00  0.00    -0.267 OA
HETATM   24  H   UNL     1       7.620  29.332  59.580  1.00  0.00     0.169 HD
BRANCH  22  25
HETATM   25  C   UNL     1       7.419  31.706  60.468  1.00  0.00     0.049 A 
HETATM   26  C   UNL     1       6.663  32.753  60.984  1.00  0.00     0.133 A 
HETATM   27  N   UNL     1       6.799  33.241  62.243  1.00  0.00    -0.272 NA
HETATM   28  C   UNL     1       7.743  32.670  63.018  1.00  0.00     0.116 A 
HETATM   29  C   UNL     1       8.559  31.634  62.594  1.00  0.00     0.020 A 
HETATM   30  C   UNL     1       8.398  31.147  61.295  1.00  0.00     0.020 A 
ENDBRANCH  22  25
ENDBRANCH   4  21
TORSDOF 5
ENDMDL
MODEL 5
REMARK VINA RESULT:      -9.0      3.274      5.278
REMARK  5 active torsions:
REMARK  status: ('A' for Active; 'I' for Inactive)
REMARK    1  A    between atoms: C_3  and  N_4 
REMARK       I    between atoms: N_4  and  C_5 
REMARK       I    between atoms: C_5  and  N_6 
REMARK    2  A    between atoms: N_6  and  C_7 
REMARK    3  A    between atoms: C_7  and  C_8 
REMARK    4  A    between atoms: C_11  and  N_12 
REMARK       I    between atoms: N_12  and  C_13 
REMARK    5  A    between atoms: C_13  and  C_14 
ROOT
HETATM    1  C   UNL     1       7.933  31.118  59.819  1.00  0.00    -0.040 A 
HETATM    2  C   UNL     1       6.762  31.847  59.586  1.00  0.00     0.011 A 
HETATM    3  C   UNL     1       6.214  32.662  60.584  1.00  0.00     0.030 A 
HETATM    4  C   UNL     1       6.826  32.766  61.833  1.00  0.00     0.035 A 
HETATM    5  C   UNL     1       8.010  32.052  62.060  1.00  0.00     0.030 A 
HETATM    6  C   UNL     1       8.562  31.240  61.063  1.00  0.00     0.011 A 
ENDROOT
BRANCH   1   7
HETATM    7  C   UNL     1       8.516  30.245  58.741  1.00  0.00     0.162 C 
BRANCH   7   8
HETATM    8  N   UNL     1       7.798  28.995  58.641  1.00  0.00    -0.339 N 
HETATM    9  C   UNL     1       7.972  28.216  57.516  1.00  0.00     0.321 C 
HETATM   10  N   UNL     1       7.165  27.102  57.574  1.00  0.00    -0.307 N 
HETATM   11  O   UNL     1       8.774  28.495  56.637  1.00  0.00    -0.247 OA
HETATM   12  H   UNL     1       7.032  26.780  58.524  1.00  0.00     0.170 HD
HETATM   13  H   UNL     1       6.870  28.977  59.038  1.00  0.00     0.164 HD
BRANCH  10  14
HETATM   14  C   UNL     1       7.017  26.124  56.561  1.00  0.00     0.059 A 
HETATM   15  C   UNL     1       7.745  24.929  56.453  1.00  0.00    -0.032 A 
HETATM   16  C   UNL     1       8.863  24.522  57.369  1.00  0.00     0.050 C 
HETATM   17  C   UNL     1       7.431  24.053  55.398  1.00  0.00     0.028 A 
HETATM   18  C   UNL     1       6.471  24.416  54.467  1.00  0.00     0.117 A 
HETATM   19  N   UNL     1       5.806  25.585  54.503  1.00  0.00    -0.271 NA
HETATM   20  C   UNL     1       6.096  26.402  55.543  1.00  0.00     0.146 A 
ENDBRANCH  10  14
ENDBRANCH   7   8
ENDBRANCH   1   7
BRANCH   4  21
HETATM   21  N   UNL     1       6.333  33.553  62.897  1.00  0.00    -0.323 N 
HETATM   22  C   UNL     1       5.366  33.200  63.823  1.00  0.00     0.257 C 
HETATM   23  O   UNL     1       4.797  32.117  63.902  1.00  0.00    -0.267 OA
HETATM   24  H   UNL     1       6.791  34.445  63.016  1.00  0.00     0.169 HD
BRANCH  22  25
HETATM   25  C   UNL     1       5.015  34.242  64.824  1.00  0.00     0.049 A 
HETATM   26  C   UNL     1       4.608  33.834  66.090  1.00  0.00     0.133 A 
HETATM   27  N   UNL     1       4.261  34.687  67.088  1.00  0.00    -0.272 NA
HETATM   28  C   UNL     1       4.306  36.005  66.806  1.00  0.00     0.116 A 
HETATM   29  C   UNL     1       4.681  36.512  65.572  1.00  0.00     0.020 A 
HETATM   30  C   UNL     1       5.036  35.616  64.562  1.00  0.00     0.020 A 
ENDBRANCH  22  25
ENDBRANCH   4  21
TORSDOF 5
ENDMDL
MODEL 6
REMARK VINA RESULT:      -9.0      5.174      9.314
REMARK  5 active torsions:
REMARK  status: ('A' for Active; 'I' for Inactive)
REMARK    1  A    between atoms: C_3  and  N_4 
REMARK       I    between atoms: N_4  and  C_5 
REMARK       I    between atoms: C_5  and  N_6 
REMARK    2  A    between atoms: N_6  and  C_7 
REMARK    3  A    between atoms: C_7  and  C_8 
REMARK    4  A    between atoms: C_11  and  N_12 
REMARK       I    between atoms: N_12  and  C_13 
REMARK    5  A    between atoms: C_13  and  C_14 
ROOT
HETATM    1  C   UNL     1       6.501  28.216  55.301  1.00  0.00    -0.040 A 
HETATM    2  C   UNL     1       5.286  28.549  55.909  1.00  0.00     0.011 A 
HETATM    3  C   UNL     1       5.257  29.308  57.086  1.00  0.00     0.030 A 
HETATM    4  C   UNL     1       6.441  29.750  57.675  1.00  0.00     0.035 A 
HETATM    5  C   UNL     1       7.658  29.435  57.055  1.00  0.00     0.030 A 
HETATM    6  C   UNL     1       7.689  28.680  55.878  1.00  0.00     0.011 A 
ENDROOT
BRANCH   1   7
HETATM    7  C   UNL     1       6.524  27.401  54.036  1.00  0.00     0.162 C 
BRANCH   7   8
HETATM    8  N   UNL     1       7.510  26.348  54.116  1.00  0.00    -0.339 N 
HETATM    9  C   UNL     1       7.123  25.107  54.578  1.00  0.00     0.321 C 
HETATM   10  N   UNL     1       8.206  24.258  54.639  1.00  0.00    -0.307 N 
HETATM   11  O   UNL     1       5.962  24.834  54.843  1.00  0.00    -0.247 OA
HETATM   12  H   UNL     1       8.881  24.454  53.912  1.00  0.00     0.170 HD
HETATM   13  H   UNL     1       8.447  26.628  54.366  1.00  0.00     0.164 HD
BRANCH  10  14
HETATM   14  C   UNL     1       8.202  22.936  55.143  1.00  0.00     0.059 A 
HETATM   15  C   UNL     1       8.044  21.764  54.387  1.00  0.00    -0.032 A 
HETATM   16  C   UNL     1       7.779  21.727  52.909  1.00  0.00     0.050 C 
HETATM   17  C   UNL     1       8.110  20.528  55.055  1.00  0.00     0.028 A 
HETATM   18  C   UNL     1       8.261  20.500  56.433  1.00  0.00     0.117 A 
HETATM   19  N   UNL     1       8.345  21.606  57.193  1.00  0.00    -0.271 NA
HETATM   20  C   UNL     1       8.313  22.787  56.531  1.00  0.00     0.146 A 
ENDBRANCH  10  14
ENDBRANCH   7   8
ENDBRANCH   1   7
BRANCH   4  21
HETATM   21  N   UNL     1       6.502  30.507  58.867  1.00  0.00    -0.323 N 
HETATM   22  C   UNL     1       6.414  31.883  58.991  1.00  0.00     0.257 C 
HETATM   23  O   UNL     1       6.222  32.684  58.083  1.00  0.00    -0.267 OA
HETATM   24  H   UNL     1       6.557  29.963  59.715  1.00  0.00     0.169 HD
BRANCH  22  25
HETATM   25  C   UNL     1       6.540  32.419  60.372  1.00  0.00     0.049 A 
HETATM   26  C   UNL     1       5.465  33.116  60.913  1.00  0.00     0.133 A 
HETATM   27  N   UNL     1       5.458  33.655  62.160  1.00  0.00    -0.272 NA
HETATM   28  C   UNL     1       6.580  33.505  62.893  1.00  0.00     0.116 A 
HETATM   29  C   UNL     1       7.710  32.843  62.440  1.00  0.00     0.020 A 
HETATM   30  C   UNL     1       7.692  32.296  61.156  1.00  0.00     0.020 A 
ENDBRANCH  22  25
ENDBRANCH   4  21
TORSDOF 5
ENDMDL
MODEL 7
REMARK VINA RESULT:      -8.8      3.933     12.187
REMARK  5 active torsions:
REMARK  status: ('A' for Active; 'I' for Inactive)
REMARK    1  A    between atoms: C_3  and  N_4 
REMARK       I    between atoms: N_4  and  C_5 
REMARK       I    between atoms: C_5  and  N_6 
REMARK    2  A    between atoms: N_6  and  C_7 
REMARK    3  A    between atoms: C_7  and  C_8 
REMARK    4  A    between atoms: C_11  and  N_12 
REMARK       I    between atoms: N_12  and  C_13 
REMARK    5  A    between atoms: C_13  and  C_14 
ROOT
HETATM    1  C   UNL     1       8.730  30.454  58.508  1.00  0.00    -0.040 A 
HETATM    2  C   UNL     1       7.469  29.849  58.564  1.00  0.00     0.011 A 
HETATM    3  C   UNL     1       7.218  28.653  57.881  1.00  0.00     0.030 A 
HETATM    4  C   UNL     1       8.220  28.037  57.133  1.00  0.00     0.035 A 
HETATM    5  C   UNL     1       9.489  28.631  57.094  1.00  0.00     0.030 A 
HETATM    6  C   UNL     1       9.744  29.825  57.777  1.00  0.00     0.011 A 
ENDROOT
BRANCH   1   7
HETATM    7  C   UNL     1       8.993  31.740  59.244  1.00  0.00     0.162 C 
BRANCH   7   8
HETATM    8  N   UNL     1       7.757  32.368  59.649  1.00  0.00    -0.339 N 
HETATM    9  C   UNL     1       7.559  32.648  60.986  1.00  0.00     0.321 C 
HETATM   10  N   UNL     1       6.307  33.186  61.183  1.00  0.00    -0.307 N 
HETATM   11  O   UNL     1       8.420  32.465  61.833  1.00  0.00    -0.247 OA
HETATM   12  H   UNL     1       6.005  33.741  60.393  1.00  0.00     0.170 HD
HETATM   13  H   UNL     1       6.929  32.101  59.138  1.00  0.00     0.164 HD
BRANCH  10  14
HETATM   14  C   UNL     1       5.728  33.517  62.431  1.00  0.00     0.059 A 
HETATM   15  C   UNL     1       5.467  34.813  62.904  1.00  0.00    -0.032 A 
HETATM   16  C   UNL     1       5.830  36.077  62.180  1.00  0.00     0.050 C 
HETATM   17  C   UNL     1       4.845  34.950  64.158  1.00  0.00     0.028 A 
HETATM   18  C   UNL     1       4.568  33.821  64.914  1.00  0.00     0.117 A 
HETATM   19  N   UNL     1       4.869  32.572  64.520  1.00  0.00    -0.271 NA
HETATM   20  C   UNL     1       5.438  32.454  63.297  1.00  0.00     0.146 A 
ENDBRANCH  10  14
ENDBRANCH   7   8
ENDBRANCH   1   7
BRANCH   4  21
HETATM   21  N   UNL     1       8.046  26.838  56.405  1.00  0.00    -0.323 N 
HETATM   22  C   UNL     1       8.183  25.544  56.877  1.00  0.00     0.257 C 
HETATM   23  O   UNL     1       8.439  25.214  58.029  1.00  0.00    -0.267 OA
HETATM   24  H   UNL     1       7.731  26.959  55.454  1.00  0.00     0.169 HD
BRANCH  22  25
HETATM   25  C   UNL     1       7.970  24.463  55.878  1.00  0.00     0.049 A 
HETATM   26  C   UNL     1       8.335  23.165  56.219  1.00  0.00     0.133 A 
HETATM   27  N   UNL     1       8.192  22.094  55.395  1.00  0.00    -0.272 NA
HETATM   28  C   UNL     1       7.679  22.332  54.171  1.00  0.00     0.116 A 
HETATM   29  C   UNL     1       7.301  23.590  53.730  1.00  0.00     0.020 A 
HETATM   30  C   UNL     1       7.454  24.675  54.596  1.00  0.00     0.020 A 
ENDBRANCH  22  25
ENDBRANCH   4  21
TORSDOF 5
ENDMDL
MODEL 8
REMARK VINA RESULT:      -8.8      5.162     13.291
REMARK  5 active torsions:
REMARK  status: ('A' for Active; 'I' for Inactive)
REMARK    1  A    between atoms: C_3  and  N_4 
REMARK       I    between atoms: N_4  and  C_5 
REMARK       I    between atoms: C_5  and  N_6 
REMARK    2  A    between atoms: N_6  and  C_7 
REMARK    3  A    between atoms: C_7  and  C_8 
REMARK    4  A    between atoms: C_11  and  N_12 
REMARK       I    between atoms: N_12  and  C_13 
REMARK    5  A    between atoms: C_13  and  C_14 
ROOT
HETATM    1  C   UNL     1       5.976  28.967  56.220  1.00  0.00    -0.040 A 
HETATM    2  C   UNL     1       7.326  28.727  55.942  1.00  0.00     0.011 A 
HETATM    3  C   UNL     1       7.780  27.434  55.656  1.00  0.00     0.030 A 
HETATM    4  C   UNL     1       6.894  26.357  55.641  1.00  0.00     0.035 A 
HETATM    5  C   UNL     1       5.538  26.600  55.899  1.00  0.00     0.030 A 
HETATM    6  C   UNL     1       5.081  27.891  56.181  1.00  0.00     0.011 A 
ENDROOT
BRANCH   1   7
HETATM    7  C   UNL     1       5.495  30.360  56.525  1.00  0.00     0.162 C 
BRANCH   7   8
HETATM    8  N   UNL     1       5.191  30.507  57.930  1.00  0.00    -0.339 N 
HETATM    9  C   UNL     1       5.541  31.680  58.568  1.00  0.00     0.321 C 
HETATM   10  N   UNL     1       5.227  31.611  59.906  1.00  0.00    -0.307 N 
HETATM   11  O   UNL     1       6.020  32.636  57.975  1.00  0.00    -0.247 OA
HETATM   12  H   UNL     1       4.403  31.049  60.073  1.00  0.00     0.170 HD
HETATM   13  H   UNL     1       5.260  29.674  58.494  1.00  0.00     0.164 HD
BRANCH  10  14
HETATM   14  C   UNL     1       5.518  32.593  60.884  1.00  0.00     0.059 A 
HETATM   15  C   UNL     1       4.784  33.765  61.120  1.00  0.00    -0.032 A 
HETATM   16  C   UNL     1       3.595  34.208  60.317  1.00  0.00     0.050 C 
HETATM   17  C   UNL     1       5.198  34.608  62.167  1.00  0.00     0.028 A 
HETATM   18  C   UNL     1       6.343  34.299  62.885  1.00  0.00     0.117 A 
HETATM   19  N   UNL     1       7.106  33.221  62.637  1.00  0.00    -0.271 NA
HETATM   20  C   UNL     1       6.676  32.402  61.648  1.00  0.00     0.146 A 
ENDBRANCH  10  14
ENDBRANCH   7   8
ENDBRANCH   1   7
BRANCH   4  21
HETATM   21  N   UNL     1       7.271  25.021  55.376  1.00  0.00    -0.323 N 
HETATM   22  C   UNL     1       7.704  24.495  54.171  1.00  0.00     0.257 C 
HETATM   23  O   UNL     1       7.876  25.116  53.128  1.00  0.00    -0.267 OA
HETATM   24  H   UNL     1       7.275  24.411  56.181  1.00  0.00     0.169 HD
BRANCH  22  25
HETATM   25  C   UNL     1       8.007  23.040  54.169  1.00  0.00     0.049 A 
HETATM   26  C   UNL     1       8.568  22.478  55.312  1.00  0.00     0.133 A 
HETATM   27  N   UNL     1       8.891  21.165  55.434  1.00  0.00    -0.272 NA
HETATM   28  C   UNL     1       8.660  20.380  54.362  1.00  0.00     0.116 A 
HETATM   29  C   UNL     1       8.120  20.844  53.173  1.00  0.00     0.020 A 
HETATM   30  C   UNL     1       7.794  22.198  53.073  1.00  0.00     0.020 A 
ENDBRANCH  22  25
ENDBRANCH   4  21
TORSDOF 5
ENDMDL
MODEL 9
REMARK VINA RESULT:      -8.6      6.343     10.716
REMARK  5 active torsions:
REMARK  status: ('A' for Active; 'I' for Inactive)
REMARK    1  A    between atoms: C_3  and  N_4 
REMARK       I    between atoms: N_4  and  C_5 
REMARK       I    between atoms: C_5  and  N_6 
REMARK    2  A    between atoms: N_6  and  C_7 
REMARK    3  A    between atoms: C_7  and  C_8 
REMARK    4  A    between atoms: C_11  and  N_12 
REMARK       I    between atoms: N_12  and  C_13 
REMARK    5  A    between atoms: C_13  and  C_14 
ROOT
HETATM    1  C   UNL     1       6.059  25.974  55.451  1.00  0.00    -0.040 A 
HETATM    2  C   UNL     1       7.416  26.062  55.779  1.00  0.00     0.011 A 
HETATM    3  C   UNL     1       7.862  26.968  56.749  1.00  0.00     0.030 A 
HETATM    4  C   UNL     1       6.960  27.802  57.411  1.00  0.00     0.035 A 
HETATM    5  C   UNL     1       5.598  27.699  57.098  1.00  0.00     0.030 A 
HETATM    6  C   UNL     1       5.150  26.792  56.132  1.00  0.00     0.011 A 
ENDROOT
BRANCH   1   7
HETATM    7  C   UNL     1       5.587  24.997  54.408  1.00  0.00     0.162 C 
BRANCH   7   8
HETATM    8  N   UNL     1       4.798  25.660  53.396  1.00  0.00    -0.339 N 
HETATM    9  C   UNL     1       5.374  25.924  52.170  1.00  0.00     0.321 C 
HETATM   10  N   UNL     1       4.494  26.609  51.363  1.00  0.00    -0.307 N 
HETATM   11  O   UNL     1       6.497  25.543  51.873  1.00  0.00    -0.247 OA
HETATM   12  H   UNL     1       3.534  26.346  51.541  1.00  0.00     0.170 HD
HETATM   13  H   UNL     1       4.142  26.354  53.721  1.00  0.00     0.164 HD
BRANCH  10  14
HETATM   14  C   UNL     1       4.769  27.118  50.071  1.00  0.00     0.059 A 
HETATM   15  C   UNL     1       5.289  28.388  49.777  1.00  0.00    -0.032 A 
HETATM   16  C   UNL     1       5.577  29.453  50.795  1.00  0.00     0.050 C 
HETATM   17  C   UNL     1       5.538  28.707  48.430  1.00  0.00     0.028 A 
HETATM   18  C   UNL     1       5.207  27.799  47.436  1.00  0.00     0.117 A 
HETATM   19  N   UNL     1       4.644  26.604  47.681  1.00  0.00    -0.271 NA
HETATM   20  C   UNL     1       4.440  26.298  48.984  1.00  0.00     0.146 A 
ENDBRANCH  10  14
ENDBRANCH   7   8
ENDBRANCH   1   7
BRANCH   4  21
HETATM   21  N   UNL     1       7.327  28.751  58.391  1.00  0.00    -0.323 N 
HETATM   22  C   UNL     1       7.265  30.130  58.286  1.00  0.00     0.257 C 
HETATM   23  O   UNL     1       6.837  30.768  57.331  1.00  0.00    -0.267 OA
HETATM   24  H   UNL     1       7.607  28.361  59.279  1.00  0.00     0.169 HD
BRANCH  22  25
HETATM   25  C   UNL     1       7.747  30.893  59.468  1.00  0.00     0.049 A 
HETATM   26  C   UNL     1       8.845  30.405  60.169  1.00  0.00     0.133 A 
HETATM   27  N   UNL     1       9.378  31.008  61.263  1.00  0.00    -0.272 NA
HETATM   28  C   UNL     1       8.779  32.139  61.687  1.00  0.00     0.116 A 
HETATM   29  C   UNL     1       7.671  32.697  61.069  1.00  0.00     0.020 A 
HETATM   30  C   UNL     1       7.143  32.060  59.944  1.00  0.00     0.020 A 
ENDBRANCH  22  25
ENDBRANCH   4  21
TORSDOF 5
ENDMDL
MODEL 10
REMARK VINA RESULT:      -8.6     12.731     15.652
REMARK  5 active torsions:
REMARK  status: ('A' for Active; 'I' for Inactive)
REMARK    1  A    between atoms: C_3  and  N_4 
REMARK       I    between atoms: N_4  and  C_5 
REMARK       I    between atoms: C_5  and  N_6 
REMARK    2  A    between atoms: N_6  and  C_7 
REMARK    3  A    between atoms: C_7  and  C_8 
REMARK    4  A    between atoms: C_11  and  N_12 
REMARK       I    between atoms: N_12  and  C_13 
REMARK    5  A    between atoms: C_13  and  C_14 
ROOT
HETATM    1  C   UNL     1       4.568  27.673  53.559  1.00  0.00    -0.040 A 
HETATM    2  C   UNL     1       5.513  27.683  54.591  1.00  0.00     0.011 A 
HETATM    3  C   UNL     1       6.192  26.513  54.952  1.00  0.00     0.030 A 
HETATM    4  C   UNL     1       5.941  25.312  54.288  1.00  0.00     0.035 A 
HETATM    5  C   UNL     1       5.010  25.307  53.241  1.00  0.00     0.030 A 
HETATM    6  C   UNL     1       4.333  26.475  52.876  1.00  0.00     0.011 A 
ENDROOT
BRANCH   1   7
HETATM    7  C   UNL     1       3.843  28.935  53.176  1.00  0.00     0.162 C 
BRANCH   7   8
HETATM    8  N   UNL     1       2.719  28.646  52.314  1.00  0.00    -0.339 N 
HETATM    9  C   UNL     1       2.823  28.929  50.968  1.00  0.00     0.321 C 
HETATM   10  N   UNL     1       1.640  28.643  50.325  1.00  0.00    -0.307 N 
HETATM   11  O   UNL     1       3.856  29.335  50.456  1.00  0.00    -0.247 OA
HETATM   12  H   UNL     1       1.158  27.861  50.748  1.00  0.00     0.170 HD
HETATM   13  H   UNL     1       1.802  28.779  52.713  1.00  0.00     0.164 HD
BRANCH  10  14
HETATM   14  C   UNL     1       1.352  28.885  48.960  1.00  0.00     0.059 A 
HETATM   15  C   UNL     1       1.577  27.996  47.898  1.00  0.00    -0.032 A 
HETATM   16  C   UNL     1       2.233  26.653  48.030  1.00  0.00     0.050 C 
HETATM   17  C   UNL     1       1.187  28.393  46.606  1.00  0.00     0.028 A 
HETATM   18  C   UNL     1       0.659  29.659  46.406  1.00  0.00     0.117 A 
HETATM   19  N   UNL     1       0.496  30.559  47.392  1.00  0.00    -0.271 NA
HETATM   20  C   UNL     1       0.845  30.150  48.635  1.00  0.00     0.146 A 
ENDBRANCH  10  14
ENDBRANCH   7   8
ENDBRANCH   1   7
BRANCH   4  21
HETATM   21  N   UNL     1       6.571  24.086  54.598  1.00  0.00    -0.323 N 
HETATM   22  C   UNL     1       7.508  23.409  53.835  1.00  0.00     0.257 C 
HETATM   23  O   UNL     1       7.986  23.783  52.771  1.00  0.00    -0.267 OA
HETATM   24  H   UNL     1       6.345  23.707  55.505  1.00  0.00     0.169 HD
BRANCH  22  25
HETATM   25  C   UNL     1       7.985  22.115  54.392  1.00  0.00     0.049 A 
HETATM   26  C   UNL     1       8.320  21.096  53.507  1.00  0.00     0.133 A 
HETATM   27  N   UNL     1       8.766  19.872  53.890  1.00  0.00    -0.272 NA
HETATM   28  C   UNL     1       8.866  19.649  55.216  1.00  0.00     0.116 A 
HETATM   29  C   UNL     1       8.542  20.591  56.178  1.00  0.00     0.020 A 
HETATM   30  C   UNL     1       8.088  21.843  55.760  1.00  0.00     0.020 A 
ENDBRANCH  22  25
ENDBRANCH   4  21
TORSDOF 5
ENDMDL
