MODEL 1
REMARK VINA RESULT:      -9.2      0.000      0.000
REMARK  5 active torsions:
REMARK  status: ('A' for Active; 'I' for Inactive)
REMARK    1  A    between atoms: C_8  and  C_9 
REMARK    2  A    between atoms: C_9  and  N_10 
REMARK    3  A    between atoms: N_13  and  C_15 
REMARK    4  A    between atoms: C_15  and  C_16 
REMARK    5  A    between atoms: C_19  and  C_20 
ROOT
HETATM    1  N   UNL     1       6.476  28.425  54.540  1.00  0.00    -0.405 N 
HETATM    2  C   UNL     1       6.484  29.463  55.579  1.00  0.00     0.150 C 
HETATM    3  C   UNL     1       6.458  29.070  57.086  1.00  0.00     0.206 C 
HETATM    4  N   UNL     1       7.836  28.691  57.627  1.00  0.00    -0.059 N 
HETATM    5  H   UNL     1       7.670  28.518  58.629  1.00  0.00     0.280 HD
HETATM    6  C   UNL     1       8.384  27.397  57.082  1.00  0.00     0.242 C 
HETATM    7  C   UNL     1       7.366  26.653  56.215  1.00  0.00     0.029 C 
HETATM    8  C   UNL     1       7.295  27.237  54.790  1.00  0.00     0.123 C 
HETATM    9  C   UNL     1       5.505  27.916  57.413  1.00  0.00     0.035 C 
HETATM   10  C   UNL     1       6.001  26.564  56.901  1.00  0.00     0.010 C 
ENDROOT
BRANCH   4  11
HETATM   11  C   UNL     1       8.890  29.800  57.635  1.00  0.00     0.302 C 
BRANCH  11  12
HETATM   12  C   UNL     1       8.757  30.735  58.768  1.00  0.00     0.107 A 
HETATM   13  O   UNL     1       9.457  31.891  58.652  1.00  0.00    -0.216 OA
HETATM   14  N   UNL     1       9.150  32.724  59.694  1.00  0.00    -0.128 NA
HETATM   15  C   UNL     1       8.311  32.049  60.499  1.00  0.00     0.097 A 
HETATM   16  C   UNL     1       8.041  30.765  59.939  1.00  0.00     0.071 A 
BRANCH  15  17
HETATM   17  C   UNL     1       7.767  32.638  61.722  1.00  0.00    -0.005 A 
HETATM   18  C   UNL     1       6.674  33.519  61.660  1.00  0.00     0.014 A 
HETATM   19  C   UNL     1       6.130  34.064  62.824  1.00  0.00     0.001 A 
HETATM   20  C   UNL     1       6.675  33.741  64.065  1.00  0.00     0.000 A 
HETATM   21  C   UNL     1       7.765  32.877  64.142  1.00  0.00     0.001 A 
HETATM   22  C   UNL     1       8.308  32.327  62.978  1.00  0.00     0.014 A 
ENDBRANCH  15  17
ENDBRANCH  11  12
ENDBRANCH   4  11
BRANCH   1  23
HETATM   23  C   UNL     1       5.140  28.126  53.981  1.00  0.00     0.176 C 
BRANCH  23  24
HETATM   24  C   UNL     1       5.197  27.519  52.612  1.00  0.00     0.050 A 
HETATM   25  C   UNL     1       5.130  26.206  52.176  1.00  0.00     0.030 A 
HETATM   26  C   UNL     1       4.972  24.935  52.905  1.00  0.00     0.070 C 
HETATM   27  N   UNL     1       5.264  26.263  50.794  1.00  0.00    -0.354 N 
HETATM   28  H   UNL     1       5.268  25.454  50.174  1.00  0.00     0.166 HD
HETATM   29  C   UNL     1       5.418  27.519  50.371  1.00  0.00     0.180 A 
HETATM   30  N   UNL     1       5.365  28.284  51.461  1.00  0.00    -0.353 N 
HETATM   31  H   UNL     1       5.457  29.298  51.471  1.00  0.00     0.166 HD
ENDBRANCH  23  24
ENDBRANCH   1  23
TORSDOF 5
ENDMDL
MODEL 2
REMARK VINA RESULT:      -9.2      3.296      9.325
REMARK  5 active torsions:
REMARK  status: ('A' for Active; 'I' for Inactive)
REMARK    1  A    between atoms: C_8  and  C_9 
REMARK    2  A    between atoms: C_9  and  N_10 
REMARK    3  A    between atoms: N_13  and  C_15 
REMARK    4  A    between atoms: C_15  and  C_16 
REMARK    5  A    between atoms: C_19  and  C_20 
ROOT
HETATM    1  N   UNL     1       7.509  28.582  56.285  1.00  0.00    -0.405 N 
HETATM    2  C   UNL     1       7.130  27.270  55.743  1.00  0.00     0.150 C 
HETATM    3  C   UNL     1       5.633  26.842  55.690  1.00  0.00     0.206 C 
HETATM    4  N   UNL     1       4.892  27.418  54.485  1.00  0.00    -0.059 N 
HETATM    5  H   UNL     1       3.950  27.006  54.553  1.00  0.00     0.280 HD
HETATM    6  C   UNL     1       4.681  28.910  54.538  1.00  0.00     0.242 C 
HETATM    7  C   UNL     1       5.122  29.512  55.874  1.00  0.00     0.029 C 
HETATM    8  C   UNL     1       6.649  29.713  55.934  1.00  0.00     0.123 C 
HETATM    9  C   UNL     1       4.834  27.217  56.941  1.00  0.00     0.035 C 
HETATM   10  C   UNL     1       4.569  28.717  57.059  1.00  0.00     0.010 C 
ENDROOT
BRANCH   4  11
HETATM   11  C   UNL     1       5.373  26.958  53.108  1.00  0.00     0.302 C 
BRANCH  11  12
HETATM   12  C   UNL     1       6.189  25.729  53.146  1.00  0.00     0.107 A 
HETATM   13  O   UNL     1       7.393  25.812  52.528  1.00  0.00    -0.216 OA
HETATM   14  N   UNL     1       8.104  24.662  52.744  1.00  0.00    -0.128 NA
HETATM   15  C   UNL     1       7.304  23.834  53.439  1.00  0.00     0.097 A 
HETATM   16  C   UNL     1       6.063  24.483  53.709  1.00  0.00     0.071 A 
BRANCH  15  17
HETATM   17  C   UNL     1       7.741  22.501  53.855  1.00  0.00    -0.005 A 
HETATM   18  C   UNL     1       7.688  22.128  55.208  1.00  0.00     0.014 A 
HETATM   19  C   UNL     1       8.076  20.848  55.610  1.00  0.00     0.001 A 
HETATM   20  C   UNL     1       8.527  19.928  54.666  1.00  0.00     0.000 A 
HETATM   21  C   UNL     1       8.595  20.288  53.322  1.00  0.00     0.001 A 
HETATM   22  C   UNL     1       8.204  21.567  52.917  1.00  0.00     0.014 A 
ENDBRANCH  15  17
ENDBRANCH  11  12
ENDBRANCH   4  11
BRANCH   1  23
HETATM   23  C   UNL     1       7.926  28.562  57.704  1.00  0.00     0.176 C 
BRANCH  23  24
HETATM   24  C   UNL     1       8.684  29.788  58.112  1.00  0.00     0.050 A 
HETATM   25  C   UNL     1       9.942  30.258  57.772  1.00  0.00     0.030 A 
HETATM   26  C   UNL     1      10.983  29.720  56.877  1.00  0.00     0.070 C 
HETATM   27  N   UNL     1      10.109  31.436  58.488  1.00  0.00    -0.354 N 
HETATM   28  H   UNL     1      10.943  32.022  58.463  1.00  0.00     0.166 HD
HETATM   29  C   UNL     1       9.042  31.702  59.244  1.00  0.00     0.180 A 
HETATM   30  N   UNL     1       8.173  30.719  59.013  1.00  0.00    -0.353 N 
HETATM   31  H   UNL     1       7.256  30.631  59.449  1.00  0.00     0.166 HD
ENDBRANCH  23  24
ENDBRANCH   1  23
TORSDOF 5
ENDMDL
MODEL 3
REMARK VINA RESULT:      -9.2      2.254      3.059
REMARK  5 active torsions:
REMARK  status: ('A' for Active; 'I' for Inactive)
REMARK    1  A    between atoms: C_8  and  C_9 
REMARK    2  A    between atoms: C_9  and  N_10 
REMARK    3  A    between atoms: N_13  and  C_15 
REMARK    4  A    between atoms: C_15  and  C_16 
REMARK    5  A    between atoms: C_19  and  C_20 
ROOT
HETATM    1  N   UNL     1       6.306  25.918  55.971  1.00  0.00    -0.405 N 
HETATM    2  C   UNL     1       7.408  26.845  55.678  1.00  0.00     0.150 C 
HETATM    3  C   UNL     1       7.110  28.325  55.295  1.00  0.00     0.206 C 
HETATM    4  N   UNL     1       6.847  29.214  56.510  1.00  0.00    -0.059 N 
HETATM    5  H   UNL     1       6.730  30.155  56.108  1.00  0.00     0.280 HD
HETATM    6  C   UNL     1       5.554  28.920  57.227  1.00  0.00     0.242 C 
HETATM    7  C   UNL     1       4.699  27.890  56.487  1.00  0.00     0.029 C 
HETATM    8  C   UNL     1       5.186  26.450  56.749  1.00  0.00     0.123 C 
HETATM    9  C   UNL     1       5.927  28.495  54.338  1.00  0.00     0.035 C 
HETATM   10  C   UNL     1       4.576  28.225  54.999  1.00  0.00     0.010 C 
ENDROOT
BRANCH   4  11
HETATM   11  C   UNL     1       8.013  29.395  57.484  1.00  0.00     0.302 C 
BRANCH  11  12
HETATM   12  C   UNL     1       7.790  30.456  58.484  1.00  0.00     0.107 A 
HETATM   13  O   UNL     1       7.208  31.586  58.012  1.00  0.00    -0.216 OA
HETATM   14  N   UNL     1       6.936  32.435  59.052  1.00  0.00    -0.128 NA
HETATM   15  C   UNL     1       7.420  31.856  60.165  1.00  0.00     0.097 A 
HETATM   16  C   UNL     1       7.982  30.587  59.838  1.00  0.00     0.071 A 
BRANCH  15  17
HETATM   17  C   UNL     1       7.302  32.485  61.480  1.00  0.00    -0.005 A 
HETATM   18  C   UNL     1       6.278  33.413  61.733  1.00  0.00     0.014 A 
HETATM   19  C   UNL     1       6.141  33.996  62.994  1.00  0.00     0.001 A 
HETATM   20  C   UNL     1       7.028  33.665  64.016  1.00  0.00     0.000 A 
HETATM   21  C   UNL     1       8.054  32.754  63.777  1.00  0.00     0.001 A 
HETATM   22  C   UNL     1       8.191  32.166  62.516  1.00  0.00     0.014 A 
ENDBRANCH  15  17
ENDBRANCH  11  12
ENDBRANCH   4  11
BRANCH   1  23
HETATM   23  C   UNL     1       5.896  25.073  54.828  1.00  0.00     0.176 C 
BRANCH  23  24
HETATM   24  C   UNL     1       6.958  24.107  54.399  1.00  0.00     0.050 A 
HETATM   25  C   UNL     1       7.763  24.053  53.273  1.00  0.00     0.030 A 
HETATM   26  C   UNL     1       7.867  24.935  52.095  1.00  0.00     0.070 C 
HETATM   27  N   UNL     1       8.538  22.910  53.420  1.00  0.00    -0.354 N 
HETATM   28  H   UNL     1       9.230  22.582  52.747  1.00  0.00     0.166 HD
HETATM   29  C   UNL     1       8.247  22.267  54.552  1.00  0.00     0.180 A 
HETATM   30  N   UNL     1       7.304  22.990  55.155  1.00  0.00    -0.353 N 
HETATM   31  H   UNL     1       6.864  22.758  56.044  1.00  0.00     0.166 HD
ENDBRANCH  23  24
ENDBRANCH   1  23
TORSDOF 5
ENDMDL
MODEL 4
REMARK VINA RESULT:      -9.1      4.392      7.638
REMARK  5 active torsions:
REMARK  status: ('A' for Active; 'I' for Inactive)
REMARK    1  A    between atoms: C_8  and  C_9 
REMARK    2  A    between atoms: C_9  and  N_10 
REMARK    3  A    between atoms: N_13  and  C_15 
REMARK    4  A    between atoms: C_15  and  C_16 
REMARK    5  A    between atoms: C_19  and  C_20 
ROOT
HETATM    1  N   UNL     1       6.082  27.842  53.788  1.00  0.00    -0.405 N 
HETATM    2  C   UNL     1       7.143  28.540  54.528  1.00  0.00     0.150 C 
HETATM    3  C   UNL     1       6.838  29.197  55.907  1.00  0.00     0.206 C 
HETATM    4  N   UNL     1       6.860  28.196  57.062  1.00  0.00    -0.059 N 
HETATM    5  H   UNL     1       6.705  28.778  57.897  1.00  0.00     0.280 HD
HETATM    6  C   UNL     1       5.724  27.205  57.047  1.00  0.00     0.242 C 
HETATM    7  C   UNL     1       4.696  27.514  55.957  1.00  0.00     0.029 C 
HETATM    8  C   UNL     1       5.163  27.018  54.574  1.00  0.00     0.123 C 
HETATM    9  C   UNL     1       5.497  29.933  55.965  1.00  0.00     0.035 C 
HETATM   10  C   UNL     1       4.294  28.991  55.965  1.00  0.00     0.010 C 
ENDROOT
BRANCH   4  11
HETATM   11  C   UNL     1       8.203  27.523  57.352  1.00  0.00     0.302 C 
BRANCH  11  12
HETATM   12  C   UNL     1       8.261  26.111  56.928  1.00  0.00     0.107 A 
HETATM   13  O   UNL     1       8.421  25.210  57.929  1.00  0.00    -0.216 OA
HETATM   14  N   UNL     1       8.328  23.940  57.426  1.00  0.00    -0.128 NA
HETATM   15  C   UNL     1       8.184  24.056  56.095  1.00  0.00     0.097 A 
HETATM   16  C   UNL     1       8.143  25.437  55.737  1.00  0.00     0.071 A 
BRANCH  15  17
HETATM   17  C   UNL     1       8.048  22.889  55.224  1.00  0.00    -0.005 A 
HETATM   18  C   UNL     1       8.009  23.045  53.829  1.00  0.00     0.014 A 
HETATM   19  C   UNL     1       7.908  21.934  52.989  1.00  0.00     0.001 A 
HETATM   20  C   UNL     1       7.838  20.654  53.534  1.00  0.00     0.000 A 
HETATM   21  C   UNL     1       7.865  20.484  54.916  1.00  0.00     0.001 A 
HETATM   22  C   UNL     1       7.970  21.594  55.757  1.00  0.00     0.014 A 
ENDBRANCH  15  17
ENDBRANCH  11  12
ENDBRANCH   4  11
BRANCH   1  23
HETATM   23  C   UNL     1       5.418  28.661  52.751  1.00  0.00     0.176 C 
BRANCH  23  24
HETATM   24  C   UNL     1       5.294  27.956  51.434  1.00  0.00     0.050 A 
HETATM   25  C   UNL     1       5.473  28.387  50.130  1.00  0.00     0.030 A 
HETATM   26  C   UNL     1       5.858  29.696  49.572  1.00  0.00     0.070 C 
HETATM   27  N   UNL     1       5.190  27.287  49.330  1.00  0.00    -0.354 N 
HETATM   28  H   UNL     1       5.220  27.284  48.311  1.00  0.00     0.166 HD
HETATM   29  C   UNL     1       4.843  26.228  50.062  1.00  0.00     0.180 A 
HETATM   30  N   UNL     1       4.915  26.619  51.334  1.00  0.00    -0.353 N 
HETATM   31  H   UNL     1       4.703  26.036  52.141  1.00  0.00     0.166 HD
ENDBRANCH  23  24
ENDBRANCH   1  23
TORSDOF 5
ENDMDL
MODEL 5
REMARK VINA RESULT:      -9.0      1.256      1.483
REMARK  5 active torsions:
REMARK  status: ('A' for Active; 'I' for Inactive)
REMARK    1  A    between atoms: C_8  and  C_9 
REMARK    2  A    between atoms: C_9  and  N_10 
REMARK    3  A    between atoms: N_13  and  C_15 
REMARK    4  A    between atoms: C_15  and  C_16 
REMARK    5  A    between atoms: C_19  and  C_20 
ROOT
HETATM    1  N   UNL     1       5.386  28.261  54.291  1.00  0.00    -0.405 N 
HETATM    2  C   UNL     1       4.822  28.683  55.580  1.00  0.00     0.150 C 
HETATM    3  C   UNL     1       5.597  28.415  56.905  1.00  0.00     0.206 C 
HETATM    4  N   UNL     1       6.685  29.453  57.179  1.00  0.00    -0.059 N 
HETATM    5  H   UNL     1       7.059  29.182  58.100  1.00  0.00     0.280 HD
HETATM    6  C   UNL     1       7.858  29.389  56.235  1.00  0.00     0.242 C 
HETATM    7  C   UNL     1       7.780  28.188  55.291  1.00  0.00     0.029 C 
HETATM    8  C   UNL     1       6.826  28.451  54.108  1.00  0.00     0.123 C 
HETATM    9  C   UNL     1       6.254  27.034  56.973  1.00  0.00     0.035 C 
HETATM   10  C   UNL     1       7.463  26.897  56.048  1.00  0.00     0.010 C 
ENDROOT
BRANCH   4  11
HETATM   11  C   UNL     1       6.210  30.890  57.407  1.00  0.00     0.302 C 
BRANCH  11  12
HETATM   12  C   UNL     1       6.680  31.474  58.677  1.00  0.00     0.107 A 
HETATM   13  O   UNL     1       7.978  31.867  58.690  1.00  0.00    -0.216 OA
HETATM   14  N   UNL     1       8.255  32.508  59.868  1.00  0.00    -0.128 NA
HETATM   15  C   UNL     1       7.141  32.446  60.618  1.00  0.00     0.097 A 
HETATM   16  C   UNL     1       6.110  31.783  59.887  1.00  0.00     0.071 A 
BRANCH  15  17
HETATM   17  C   UNL     1       7.070  33.039  61.953  1.00  0.00    -0.005 A 
HETATM   18  C   UNL     1       6.240  34.146  62.194  1.00  0.00     0.014 A 
HETATM   19  C   UNL     1       6.144  34.701  63.472  1.00  0.00     0.001 A 
HETATM   20  C   UNL     1       6.881  34.159  64.523  1.00  0.00     0.000 A 
HETATM   21  C   UNL     1       7.716  33.068  64.297  1.00  0.00     0.001 A 
HETATM   22  C   UNL     1       7.810  32.509  63.019  1.00  0.00     0.014 A 
ENDBRANCH  15  17
ENDBRANCH  11  12
ENDBRANCH   4  11
BRANCH   1  23
HETATM   23  C   UNL     1       4.885  26.959  53.800  1.00  0.00     0.176 C 
BRANCH  23  24
HETATM   24  C   UNL     1       5.109  26.758  52.331  1.00  0.00     0.050 A 
HETATM   25  C   UNL     1       6.081  26.068  51.627  1.00  0.00     0.030 A 
HETATM   26  C   UNL     1       7.242  25.276  52.072  1.00  0.00     0.070 C 
HETATM   27  N   UNL     1       5.780  26.263  50.285  1.00  0.00    -0.354 N 
HETATM   28  H   UNL     1       6.320  25.889  49.505  1.00  0.00     0.166 HD
HETATM   29  C   UNL     1       4.701  27.033  50.134  1.00  0.00     0.180 A 
HETATM   30  N   UNL     1       4.282  27.325  51.364  1.00  0.00    -0.353 N 
HETATM   31  H   UNL     1       3.476  27.906  51.588  1.00  0.00     0.166 HD
ENDBRANCH  23  24
ENDBRANCH   1  23
TORSDOF 5
ENDMDL
MODEL 6
REMARK VINA RESULT:      -8.9      3.459      4.413
REMARK  5 active torsions:
REMARK  status: ('A' for Active; 'I' for Inactive)
REMARK    1  A    between atoms: C_8  and  C_9 
REMARK    2  A    between atoms: C_9  and  N_10 
REMARK    3  A    between atoms: N_13  and  C_15 
REMARK    4  A    between atoms: C_15  and  C_16 
REMARK    5  A    between atoms: C_19  and  C_20 
ROOT
HETATM    1  N   UNL     1       7.989  24.337  55.200  1.00  0.00    -0.405 N 
HETATM    2  C   UNL     1       7.789  25.613  54.500  1.00  0.00     0.150 C 
HETATM    3  C   UNL     1       6.592  26.536  54.873  1.00  0.00     0.206 C 
HETATM    4  N   UNL     1       6.866  27.397  56.106  1.00  0.00    -0.059 N 
HETATM    5  H   UNL     1       6.024  27.985  56.190  1.00  0.00     0.280 HD
HETATM    6  C   UNL     1       6.945  26.625  57.398  1.00  0.00     0.242 C 
HETATM    7  C   UNL     1       6.577  25.151  57.220  1.00  0.00     0.029 C 
HETATM    8  C   UNL     1       7.752  24.334  56.645  1.00  0.00     0.123 C 
HETATM    9  C   UNL     1       5.280  25.787  55.121  1.00  0.00     0.035 C 
HETATM   10  C   UNL     1       5.280  24.988  56.423  1.00  0.00     0.010 C 
ENDROOT
BRANCH   4  11
HETATM   11  C   UNL     1       7.995  28.422  55.982  1.00  0.00     0.302 C 
BRANCH  11  12
HETATM   12  C   UNL     1       8.242  29.185  57.219  1.00  0.00     0.107 A 
HETATM   13  O   UNL     1       9.546  29.434  57.497  1.00  0.00    -0.216 OA
HETATM   14  N   UNL     1       9.636  30.255  58.590  1.00  0.00    -0.128 NA
HETATM   15  C   UNL     1       8.383  30.454  59.034  1.00  0.00     0.097 A 
HETATM   16  C   UNL     1       7.461  29.776  58.181  1.00  0.00     0.071 A 
BRANCH  15  17
HETATM   17  C   UNL     1       8.095  31.294  60.196  1.00  0.00    -0.005 A 
HETATM   18  C   UNL     1       6.945  32.100  60.222  1.00  0.00     0.014 A 
HETATM   19  C   UNL     1       6.648  32.883  61.339  1.00  0.00     0.001 A 
HETATM   20  C   UNL     1       7.500  32.876  62.441  1.00  0.00     0.000 A 
HETATM   21  C   UNL     1       8.650  32.090  62.425  1.00  0.00     0.001 A 
HETATM   22  C   UNL     1       8.947  31.302  61.310  1.00  0.00     0.014 A 
ENDBRANCH  15  17
ENDBRANCH  11  12
ENDBRANCH   4  11
BRANCH   1  23
HETATM   23  C   UNL     1       7.437  23.159  54.498  1.00  0.00     0.176 C 
BRANCH  23  24
HETATM   24  C   UNL     1       8.117  21.877  54.875  1.00  0.00     0.050 A 
HETATM   25  C   UNL     1       8.471  20.762  54.133  1.00  0.00     0.030 A 
HETATM   26  C   UNL     1       8.311  20.441  52.703  1.00  0.00     0.070 C 
HETATM   27  N   UNL     1       9.051  19.880  55.037  1.00  0.00    -0.354 N 
HETATM   28  H   UNL     1       9.409  18.955  54.802  1.00  0.00     0.166 HD
HETATM   29  C   UNL     1       9.061  20.384  56.272  1.00  0.00     0.180 A 
HETATM   30  N   UNL     1       8.511  21.594  56.181  1.00  0.00    -0.353 N 
HETATM   31  H   UNL     1       8.367  22.234  56.959  1.00  0.00     0.166 HD
ENDBRANCH  23  24
ENDBRANCH   1  23
TORSDOF 5
ENDMDL
MODEL 7
REMARK VINA RESULT:      -8.8      6.093      8.498
REMARK  5 active torsions:
REMARK  status: ('A' for Active; 'I' for Inactive)
REMARK    1  A    between atoms: C_8  and  C_9 
REMARK    2  A    between atoms: C_9  and  N_10 
REMARK    3  A    between atoms: N_13  and  C_15 
REMARK    4  A    between atoms: C_15  and  C_16 
REMARK    5  A    between atoms: C_19  and  C_20 
ROOT
HETATM    1  N   UNL     1       2.749  28.993  50.544  1.00  0.00    -0.405 N 
HETATM    2  C   UNL     1       3.786  28.141  51.141  1.00  0.00     0.150 C 
HETATM    3  C   UNL     1       5.130  28.761  51.627  1.00  0.00     0.206 C 
HETATM    4  N   UNL     1       5.027  29.396  53.013  1.00  0.00    -0.059 N 
HETATM    5  H   UNL     1       5.989  29.702  53.218  1.00  0.00     0.280 HD
HETATM    6  C   UNL     1       4.190  30.648  53.062  1.00  0.00     0.242 C 
HETATM    7  C   UNL     1       3.746  31.107  51.672  1.00  0.00     0.029 C 
HETATM    8  C   UNL     1       2.533  30.301  51.165  1.00  0.00     0.123 C 
HETATM    9  C   UNL     1       5.707  29.818  50.681  1.00  0.00     0.035 C 
HETATM   10  C   UNL     1       4.916  31.125  50.685  1.00  0.00     0.010 C 
ENDROOT
BRANCH   4  11
HETATM   11  C   UNL     1       4.709  28.449  54.172  1.00  0.00     0.302 C 
BRANCH  11  12
HETATM   12  C   UNL     1       5.612  27.286  54.251  1.00  0.00     0.107 A 
HETATM   13  O   UNL     1       6.788  27.506  54.889  1.00  0.00    -0.216 OA
HETATM   14  N   UNL     1       7.475  26.328  55.012  1.00  0.00    -0.128 NA
HETATM   15  C   UNL     1       6.752  25.387  54.380  1.00  0.00     0.097 A 
HETATM   16  C   UNL     1       5.551  25.967  53.874  1.00  0.00     0.071 A 
BRANCH  15  17
HETATM   17  C   UNL     1       7.184  23.991  54.314  1.00  0.00    -0.005 A 
HETATM   18  C   UNL     1       7.326  23.236  55.490  1.00  0.00     0.014 A 
HETATM   19  C   UNL     1       7.710  21.894  55.433  1.00  0.00     0.001 A 
HETATM   20  C   UNL     1       7.964  21.294  54.202  1.00  0.00     0.000 A 
HETATM   21  C   UNL     1       7.839  22.033  53.029  1.00  0.00     0.001 A 
HETATM   22  C   UNL     1       7.450  23.374  53.083  1.00  0.00     0.014 A 
ENDBRANCH  15  17
ENDBRANCH  11  12
ENDBRANCH   4  11
BRANCH   1  23
HETATM   23  C   UNL     1       2.756  29.023  49.066  1.00  0.00     0.176 C 
BRANCH  23  24
HETATM   24  C   UNL     1       3.080  27.695  48.451  1.00  0.00     0.050 A 
HETATM   25  C   UNL     1       4.191  27.239  47.761  1.00  0.00     0.030 A 
HETATM   26  C   UNL     1       5.457  27.897  47.389  1.00  0.00     0.070 C 
HETATM   27  N   UNL     1       3.903  25.925  47.414  1.00  0.00    -0.354 N 
HETATM   28  H   UNL     1       4.522  25.311  46.884  1.00  0.00     0.166 HD
HETATM   29  C   UNL     1       2.691  25.563  47.839  1.00  0.00     0.180 A 
HETATM   30  N   UNL     1       2.193  26.622  48.477  1.00  0.00    -0.353 N 
HETATM   31  H   UNL     1       1.275  26.666  48.914  1.00  0.00     0.166 HD
ENDBRANCH  23  24
ENDBRANCH   1  23
TORSDOF 5
ENDMDL
MODEL 8
REMARK VINA RESULT:      -8.7      6.844      9.160
REMARK  5 active torsions:
REMARK  status: ('A' for Active; 'I' for Inactive)
REMARK    1  A    between atoms: C_8  and  C_9 
REMARK    2  A    between atoms: C_9  and  N_10 
REMARK    3  A    between atoms: N_13  and  C_15 
REMARK    4  A    between atoms: C_15  and  C_16 
REMARK    5  A    between atoms: C_19  and  C_20 
ROOT
HETATM    1  N   UNL     1       2.813  28.752  49.693  1.00  0.00    -0.405 N 
HETATM    2  C   UNL     1       3.766  27.766  50.220  1.00  0.00     0.150 C 
HETATM    3  C   UNL     1       5.068  28.234  50.935  1.00  0.00     0.206 C 
HETATM    4  N   UNL     1       4.840  28.614  52.398  1.00  0.00    -0.059 N 
HETATM    5  H   UNL     1       5.783  28.839  52.745  1.00  0.00     0.280 HD
HETATM    6  C   UNL     1       4.030  29.870  52.595  1.00  0.00     0.242 C 
HETATM    7  C   UNL     1       3.739  30.588  51.276  1.00  0.00     0.029 C 
HETATM    8  C   UNL     1       2.565  29.935  50.518  1.00  0.00     0.123 C 
HETATM    9  C   UNL     1       5.760  29.419  50.257  1.00  0.00     0.035 C 
HETATM   10  C   UNL     1       5.002  30.735  50.425  1.00  0.00     0.010 C 
ENDROOT
BRANCH   4  11
HETATM   11  C   UNL     1       4.386  27.488  53.329  1.00  0.00     0.302 C 
BRANCH  11  12
HETATM   12  C   UNL     1       5.389  26.420  53.500  1.00  0.00     0.107 A 
HETATM   13  O   UNL     1       6.640  26.843  53.810  1.00  0.00    -0.216 OA
HETATM   14  N   UNL     1       7.441  25.763  54.070  1.00  0.00    -0.128 NA
HETATM   15  C   UNL     1       6.699  24.664  53.848  1.00  0.00     0.097 A 
HETATM   16  C   UNL     1       5.377  25.047  53.474  1.00  0.00     0.071 A 
BRANCH  15  17
HETATM   17  C   UNL     1       7.235  23.316  54.034  1.00  0.00    -0.005 A 
HETATM   18  C   UNL     1       7.675  22.568  52.928  1.00  0.00     0.014 A 
HETATM   19  C   UNL     1       8.214  21.292  53.100  1.00  0.00     0.001 A 
HETATM   20  C   UNL     1       8.314  20.744  54.377  1.00  0.00     0.000 A 
HETATM   21  C   UNL     1       7.873  21.468  55.481  1.00  0.00     0.001 A 
HETATM   22  C   UNL     1       7.337  22.748  55.312  1.00  0.00     0.014 A 
ENDBRANCH  15  17
ENDBRANCH  11  12
ENDBRANCH   4  11
BRANCH   1  23
HETATM   23  C   UNL     1       2.969  29.046  48.252  1.00  0.00     0.176 C 
BRANCH  23  24
HETATM   24  C   UNL     1       1.974  28.326  47.393  1.00  0.00     0.050 A 
HETATM   25  C   UNL     1       1.902  27.013  46.957  1.00  0.00     0.030 A 
HETATM   26  C   UNL     1       2.779  25.850  47.191  1.00  0.00     0.070 C 
HETATM   27  N   UNL     1       0.763  26.943  46.165  1.00  0.00    -0.354 N 
HETATM   28  H   UNL     1       0.438  26.105  45.683  1.00  0.00     0.166 HD
HETATM   29  C   UNL     1       0.151  28.126  46.085  1.00  0.00     0.180 A 
HETATM   30  N   UNL     1       0.868  28.963  46.834  1.00  0.00    -0.353 N 
HETATM   31  H   UNL     1       0.662  29.950  46.972  1.00  0.00     0.166 HD
ENDBRANCH  23  24
ENDBRANCH   1  23
TORSDOF 5
ENDMDL
MODEL 9
REMARK VINA RESULT:      -8.5      5.283      9.566
REMARK  5 active torsions:
REMARK  status: ('A' for Active; 'I' for Inactive)
REMARK    1  A    between atoms: C_8  and  C_9 
REMARK    2  A    between atoms: C_9  and  N_10 
REMARK    3  A    between atoms: N_13  and  C_15 
REMARK    4  A    between atoms: C_15  and  C_16 
REMARK    5  A    between atoms: C_19  and  C_20 
ROOT
HETATM    1  N   UNL     1       7.763  24.178  55.094  1.00  0.00    -0.405 N 
HETATM    2  C   UNL     1       6.801  24.839  54.201  1.00  0.00     0.150 C 
HETATM    3  C   UNL     1       5.791  25.882  54.764  1.00  0.00     0.206 C 
HETATM    4  N   UNL     1       6.403  27.272  54.935  1.00  0.00    -0.059 N 
HETATM    5  H   UNL     1       5.613  27.853  55.251  1.00  0.00     0.280 HD
HETATM    6  C   UNL     1       7.435  27.368  56.029  1.00  0.00     0.242 C 
HETATM    7  C   UNL     1       7.538  26.079  56.846  1.00  0.00     0.029 C 
HETATM    8  C   UNL     1       8.384  25.011  56.125  1.00  0.00     0.123 C 
HETATM    9  C   UNL     1       5.172  25.487  56.108  1.00  0.00     0.035 C 
HETATM   10  C   UNL     1       6.158  25.571  57.272  1.00  0.00     0.010 C 
ENDROOT
BRANCH   4  11
HETATM   11  C   UNL     1       6.860  27.974  53.654  1.00  0.00     0.302 C 
BRANCH  11  12
HETATM   12  C   UNL     1       5.860  27.938  52.570  1.00  0.00     0.107 A 
HETATM   13  O   UNL     1       4.905  28.899  52.628  1.00  0.00    -0.216 OA
HETATM   14  N   UNL     1       4.123  28.841  51.506  1.00  0.00    -0.128 NA
HETATM   15  C   UNL     1       4.551  27.791  50.784  1.00  0.00     0.097 A 
HETATM   16  C   UNL     1       5.663  27.182  51.440  1.00  0.00     0.071 A 
BRANCH  15  17
HETATM   17  C   UNL     1       3.942  27.427  49.506  1.00  0.00    -0.005 A 
HETATM   18  C   UNL     1       4.121  26.139  48.975  1.00  0.00     0.014 A 
HETATM   19  C   UNL     1       3.519  25.775  47.769  1.00  0.00     0.001 A 
HETATM   20  C   UNL     1       2.737  26.695  47.075  1.00  0.00     0.000 A 
HETATM   21  C   UNL     1       2.559  27.979  47.583  1.00  0.00     0.001 A 
HETATM   22  C   UNL     1       3.157  28.345  48.792  1.00  0.00     0.014 A 
ENDBRANCH  15  17
ENDBRANCH  11  12
ENDBRANCH   4  11
BRANCH   1  23
HETATM   23  C   UNL     1       7.338  22.846  55.574  1.00  0.00     0.176 C 
BRANCH  23  24
HETATM   24  C   UNL     1       7.894  21.720  54.755  1.00  0.00     0.050 A 
HETATM   25  C   UNL     1       8.691  20.637  55.087  1.00  0.00     0.030 A 
HETATM   26  C   UNL     1       9.272  20.200  56.371  1.00  0.00     0.070 C 
HETATM   27  N   UNL     1       8.903  19.949  53.899  1.00  0.00    -0.354 N 
HETATM   28  H   UNL     1       9.465  19.104  53.806  1.00  0.00     0.166 HD
HETATM   29  C   UNL     1       8.297  20.550  52.873  1.00  0.00     0.180 A 
HETATM   30  N   UNL     1       7.676  21.612  53.384  1.00  0.00    -0.353 N 
HETATM   31  H   UNL     1       7.126  22.283  52.851  1.00  0.00     0.166 HD
ENDBRANCH  23  24
ENDBRANCH   1  23
TORSDOF 5
ENDMDL
MODEL 10
REMARK VINA RESULT:      -8.3      7.623      9.843
REMARK  5 active torsions:
REMARK  status: ('A' for Active; 'I' for Inactive)
REMARK    1  A    between atoms: C_8  and  C_9 
REMARK    2  A    between atoms: C_9  and  N_10 
REMARK    3  A    between atoms: N_13  and  C_15 
REMARK    4  A    between atoms: C_15  and  C_16 
REMARK    5  A    between atoms: C_19  and  C_20 
ROOT
HETATM    1  N   UNL     1       4.780  29.228  47.832  1.00  0.00    -0.405 N 
HETATM    2  C   UNL     1       4.576  29.548  49.252  1.00  0.00     0.150 C 
HETATM    3  C   UNL     1       3.667  28.648  50.139  1.00  0.00     0.206 C 
HETATM    4  N   UNL     1       4.382  27.398  50.650  1.00  0.00    -0.059 N 
HETATM    5  H   UNL     1       3.686  26.945  51.259  1.00  0.00     0.280 HD
HETATM    6  C   UNL     1       4.702  26.384  49.582  1.00  0.00     0.242 C 
HETATM    7  C   UNL     1       4.097  26.755  48.226  1.00  0.00     0.029 C 
HETATM    8  C   UNL     1       4.946  27.814  47.493  1.00  0.00     0.123 C 
HETATM    9  C   UNL     1       2.380  28.188  49.448  1.00  0.00     0.035 C 
HETATM   10  C   UNL     1       2.623  27.146  48.357  1.00  0.00     0.010 C 
ENDROOT
BRANCH   4  11
HETATM   11  C   UNL     1       5.567  27.630  51.590  1.00  0.00     0.302 C 
BRANCH  11  12
HETATM   12  C   UNL     1       5.908  26.456  52.415  1.00  0.00     0.107 A 
HETATM   13  O   UNL     1       5.051  26.193  53.433  1.00  0.00    -0.216 OA
HETATM   14  N   UNL     1       5.399  25.014  54.037  1.00  0.00    -0.128 NA
HETATM   15  C   UNL     1       6.522  24.584  53.435  1.00  0.00     0.097 A 
HETATM   16  C   UNL     1       6.881  25.488  52.392  1.00  0.00     0.071 A 
BRANCH  15  17
HETATM   17  C   UNL     1       7.181  23.338  53.823  1.00  0.00    -0.005 A 
HETATM   18  C   UNL     1       7.293  22.987  55.179  1.00  0.00     0.014 A 
HETATM   19  C   UNL     1       7.896  21.785  55.557  1.00  0.00     0.001 A 
HETATM   20  C   UNL     1       8.400  20.923  54.586  1.00  0.00     0.000 A 
HETATM   21  C   UNL     1       8.306  21.262  53.239  1.00  0.00     0.001 A 
HETATM   22  C   UNL     1       7.699  22.462  52.858  1.00  0.00     0.014 A 
ENDBRANCH  15  17
ENDBRANCH  11  12
ENDBRANCH   4  11
BRANCH   1  23
HETATM   23  C   UNL     1       3.899  29.969  46.904  1.00  0.00     0.176 C 
BRANCH  23  24
HETATM   24  C   UNL     1       4.224  31.430  46.823  1.00  0.00     0.050 A 
HETATM   25  C   UNL     1       3.653  32.542  47.417  1.00  0.00     0.030 A 
HETATM   26  C   UNL     1       2.521  32.686  48.351  1.00  0.00     0.070 C 
HETATM   27  N   UNL     1       4.371  33.632  46.942  1.00  0.00    -0.354 N 
HETATM   28  H   UNL     1       4.186  34.605  47.185  1.00  0.00     0.166 HD
HETATM   29  C   UNL     1       5.328  33.252  46.093  1.00  0.00     0.180 A 
HETATM   30  N   UNL     1       5.255  31.923  46.026  1.00  0.00    -0.353 N 
HETATM   31  H   UNL     1       5.852  31.330  45.453  1.00  0.00     0.166 HD
ENDBRANCH  23  24
ENDBRANCH   1  23
TORSDOF 5
ENDMDL
