MODEL 1
REMARK VINA RESULT:      -9.4      0.000      0.000
REMARK  3 active torsions:
REMARK  status: ('A' for Active; 'I' for Inactive)
REMARK    1  A    between atoms: C_7  and  C_10 
REMARK    2  A    between atoms: C_10  and  N_11 
REMARK    3  A    between atoms: N_11  and  C_12 
ROOT
HETATM    1  C   UNL     1       8.662  20.342  55.057  1.00  0.00     0.002 A 
HETATM    2  C   UNL     1       8.062  21.376  55.783  1.00  0.00     0.033 A 
HETATM    3  C   UNL     1       7.508  22.478  55.102  1.00  0.00     0.075 A 
HETATM    4  C   UNL     1       7.573  22.512  53.712  1.00  0.00     0.035 A 
HETATM    5  S   UNL     1       6.829  23.955  53.155  1.00  0.00    -0.067 SA
HETATM    6  C   UNL     1       6.471  24.438  54.786  1.00  0.00     0.121 A 
HETATM    7  C   UNL     1       5.787  25.674  55.062  1.00  0.00     0.095 C 
HETATM    8  C   UNL     1       5.373  26.556  54.020  1.00  0.00     0.103 C 
HETATM    9  N   UNL     1       5.022  27.297  53.197  1.00  0.00    -0.191 NA
HETATM   10  N   UNL     1       6.887  23.566  55.690  1.00  0.00    -0.239 NA
HETATM   11  C   UNL     1       8.173  21.480  52.971  1.00  0.00     0.021 A 
HETATM   12  C   UNL     1       8.716  20.396  53.668  1.00  0.00     0.002 A 
ENDROOT
BRANCH   7  13
HETATM   13  C   UNL     1       5.537  25.997  56.349  1.00  0.00     0.114 C 
BRANCH  13  14
HETATM   14  N   UNL     1       5.005  27.159  56.870  1.00  0.00    -0.364 N 
HETATM   15  H   UNL     1       3.993  27.193  56.966  1.00  0.00     0.165 HD
BRANCH  14  16
HETATM   16  C   UNL     1       5.671  28.320  57.309  1.00  0.00     0.034 A 
HETATM   17  C   UNL     1       7.008  28.342  57.726  1.00  0.00     0.069 A 
HETATM   18  C   UNL     1       7.610  29.533  58.142  1.00  0.00     0.104 A 
HETATM   19  C   UNL     1       6.876  30.720  58.177  1.00  0.00     0.102 A 
HETATM   20  O   UNL     1       8.930  29.458  58.512  1.00  0.00    -0.346 OA
HETATM   21  O   UNL     1       7.392  31.915  58.605  1.00  0.00    -0.346 OA
HETATM   22  C   UNL     1       5.553  30.722  57.753  1.00  0.00     0.042 A 
HETATM   23  C   UNL     1       8.619  31.725  59.321  1.00  0.00     0.202 C 
HETATM   24  C   UNL     1       9.527  30.758  58.582  1.00  0.00     0.202 C 
HETATM   25  C   UNL     1       4.958  29.532  57.324  1.00  0.00     0.032 A 
ENDBRANCH  14  16
ENDBRANCH  13  14
ENDBRANCH   7  13
TORSDOF 3
ENDMDL
MODEL 2
REMARK VINA RESULT:      -9.3      3.965      6.203
REMARK  3 active torsions:
REMARK  status: ('A' for Active; 'I' for Inactive)
REMARK    1  A    between atoms: C_7  and  C_10 
REMARK    2  A    between atoms: C_10  and  N_11 
REMARK    3  A    between atoms: N_11  and  C_12 
ROOT
HETATM    1  C   UNL     1       8.317  20.540  53.104  1.00  0.00     0.002 A 
HETATM    2  C   UNL     1       7.959  21.887  52.994  1.00  0.00     0.033 A 
HETATM    3  C   UNL     1       8.000  22.717  54.133  1.00  0.00     0.075 A 
HETATM    4  C   UNL     1       8.399  22.170  55.349  1.00  0.00     0.035 A 
HETATM    5  S   UNL     1       8.355  23.395  56.551  1.00  0.00    -0.067 SA
HETATM    6  C   UNL     1       7.813  24.564  55.385  1.00  0.00     0.121 A 
HETATM    7  C   UNL     1       7.557  25.928  55.765  1.00  0.00     0.095 C 
HETATM    8  C   UNL     1       7.735  26.385  57.104  1.00  0.00     0.103 C 
HETATM    9  N   UNL     1       7.869  26.790  58.185  1.00  0.00    -0.191 NA
HETATM   10  N   UNL     1       7.674  24.061  54.169  1.00  0.00    -0.239 NA
HETATM   11  C   UNL     1       8.761  20.819  55.473  1.00  0.00     0.021 A 
HETATM   12  C   UNL     1       8.714  20.014  54.330  1.00  0.00     0.002 A 
ENDROOT
BRANCH   7  13
HETATM   13  C   UNL     1       7.136  26.793  54.815  1.00  0.00     0.114 C 
BRANCH  13  14
HETATM   14  N   UNL     1       5.898  26.895  54.215  1.00  0.00    -0.364 N 
HETATM   15  H   UNL     1       5.097  26.986  54.836  1.00  0.00     0.165 HD
BRANCH  14  16
HETATM   16  C   UNL     1       5.576  26.906  52.844  1.00  0.00     0.034 A 
HETATM   17  C   UNL     1       5.616  28.054  52.042  1.00  0.00     0.069 A 
HETATM   18  C   UNL     1       5.291  27.992  50.683  1.00  0.00     0.104 A 
HETATM   19  C   UNL     1       4.891  26.785  50.108  1.00  0.00     0.102 A 
HETATM   20  O   UNL     1       5.381  29.166  49.976  1.00  0.00    -0.346 OA
HETATM   21  O   UNL     1       4.526  26.659  48.794  1.00  0.00    -0.346 OA
HETATM   22  C   UNL     1       4.859  25.632  50.883  1.00  0.00     0.042 A 
HETATM   23  C   UNL     1       4.272  27.938  48.199  1.00  0.00     0.202 C 
HETATM   24  C   UNL     1       5.367  28.926  48.564  1.00  0.00     0.202 C 
HETATM   25  C   UNL     1       5.198  25.695  52.238  1.00  0.00     0.032 A 
ENDBRANCH  14  16
ENDBRANCH  13  14
ENDBRANCH   7  13
TORSDOF 3
ENDMDL
MODEL 3
REMARK VINA RESULT:      -9.2      1.797      2.265
REMARK  3 active torsions:
REMARK  status: ('A' for Active; 'I' for Inactive)
REMARK    1  A    between atoms: C_7  and  C_10 
REMARK    2  A    between atoms: C_10  and  N_11 
REMARK    3  A    between atoms: N_11  and  C_12 
ROOT
HETATM    1  C   UNL     1       8.534  21.105  56.612  1.00  0.00     0.002 A 
HETATM    2  C   UNL     1       8.381  22.485  56.783  1.00  0.00     0.033 A 
HETATM    3  C   UNL     1       7.908  23.274  55.715  1.00  0.00     0.075 A 
HETATM    4  C   UNL     1       7.602  22.655  54.506  1.00  0.00     0.035 A 
HETATM    5  S   UNL     1       7.054  23.844  53.395  1.00  0.00    -0.067 SA
HETATM    6  C   UNL     1       7.258  25.095  54.585  1.00  0.00     0.121 A 
HETATM    7  C   UNL     1       6.948  26.467  54.281  1.00  0.00     0.095 C 
HETATM    8  C   UNL     1       6.463  26.865  53.001  1.00  0.00     0.103 C 
HETATM    9  N   UNL     1       6.067  27.224  51.969  1.00  0.00    -0.191 NA
HETATM   10  N   UNL     1       7.710  24.642  55.744  1.00  0.00    -0.239 NA
HETATM   11  C   UNL     1       7.750  21.271  54.322  1.00  0.00     0.021 A 
HETATM   12  C   UNL     1       8.221  20.507  55.395  1.00  0.00     0.002 A 
ENDROOT
BRANCH   7  13
HETATM   13  C   UNL     1       7.127  27.396  55.246  1.00  0.00     0.114 C 
BRANCH  13  14
HETATM   14  N   UNL     1       8.052  27.425  56.269  1.00  0.00    -0.364 N 
HETATM   15  H   UNL     1       8.427  26.528  56.569  1.00  0.00     0.165 HD
BRANCH  14  16
HETATM   16  C   UNL     1       8.574  28.535  56.961  1.00  0.00     0.034 A 
HETATM   17  C   UNL     1       8.103  28.970  58.207  1.00  0.00     0.069 A 
HETATM   18  C   UNL     1       8.674  30.077  58.843  1.00  0.00     0.104 A 
HETATM   19  C   UNL     1       9.706  30.788  58.230  1.00  0.00     0.102 A 
HETATM   20  O   UNL     1       8.158  30.412  60.071  1.00  0.00    -0.346 OA
HETATM   21  O   UNL     1      10.287  31.901  58.780  1.00  0.00    -0.346 OA
HETATM   22  C   UNL     1      10.197  30.365  57.001  1.00  0.00     0.042 A 
HETATM   23  C   UNL     1       9.491  32.429  59.848  1.00  0.00     0.202 C 
HETATM   24  C   UNL     1       9.022  31.316  60.769  1.00  0.00     0.202 C 
HETATM   25  C   UNL     1       9.634  29.249  56.374  1.00  0.00     0.032 A 
ENDBRANCH  14  16
ENDBRANCH  13  14
ENDBRANCH   7  13
TORSDOF 3
ENDMDL
MODEL 4
REMARK VINA RESULT:      -9.1      3.673      8.676
REMARK  3 active torsions:
REMARK  status: ('A' for Active; 'I' for Inactive)
REMARK    1  A    between atoms: C_7  and  C_10 
REMARK    2  A    between atoms: C_10  and  N_11 
REMARK    3  A    between atoms: N_11  and  C_12 
ROOT
HETATM    1  C   UNL     1       9.082  31.734  61.802  1.00  0.00     0.002 A 
HETATM    2  C   UNL     1       9.236  30.598  61.002  1.00  0.00     0.033 A 
HETATM    3  C   UNL     1       8.421  30.428  59.864  1.00  0.00     0.075 A 
HETATM    4  C   UNL     1       7.475  31.403  59.564  1.00  0.00     0.035 A 
HETATM    5  S   UNL     1       6.633  30.942  58.140  1.00  0.00    -0.067 SA
HETATM    6  C   UNL     1       7.575  29.486  58.017  1.00  0.00     0.121 A 
HETATM    7  C   UNL     1       7.361  28.551  56.944  1.00  0.00     0.095 C 
HETATM    8  C   UNL     1       6.376  28.771  55.936  1.00  0.00     0.103 C 
HETATM    9  N   UNL     1       5.583  28.919  55.100  1.00  0.00    -0.191 NA
HETATM   10  N   UNL     1       8.465  29.358  58.988  1.00  0.00    -0.239 NA
HETATM   11  C   UNL     1       7.310  32.549  60.359  1.00  0.00     0.021 A 
HETATM   12  C   UNL     1       8.130  32.697  61.482  1.00  0.00     0.002 A 
ENDROOT
BRANCH   7  13
HETATM   13  C   UNL     1       8.123  27.436  56.900  1.00  0.00     0.114 C 
BRANCH  13  14
HETATM   14  N   UNL     1       7.816  26.153  57.304  1.00  0.00    -0.364 N 
HETATM   15  H   UNL     1       7.564  26.032  58.283  1.00  0.00     0.165 HD
BRANCH  14  16
HETATM   16  C   UNL     1       7.786  24.968  56.545  1.00  0.00     0.034 A 
HETATM   17  C   UNL     1       8.237  23.727  57.015  1.00  0.00     0.069 A 
HETATM   18  C   UNL     1       8.171  22.587  56.209  1.00  0.00     0.104 A 
HETATM   19  C   UNL     1       7.680  22.672  54.905  1.00  0.00     0.102 A 
HETATM   20  O   UNL     1       8.617  21.414  56.767  1.00  0.00    -0.346 OA
HETATM   21  O   UNL     1       7.618  21.603  54.050  1.00  0.00    -0.346 OA
HETATM   22  C   UNL     1       7.214  23.890  54.425  1.00  0.00     0.042 A 
HETATM   23  C   UNL     1       8.421  20.514  54.521  1.00  0.00     0.202 C 
HETATM   24  C   UNL     1       8.190  20.279  56.004  1.00  0.00     0.202 C 
HETATM   25  C   UNL     1       7.269  25.026  55.239  1.00  0.00     0.032 A 
ENDBRANCH  14  16
ENDBRANCH  13  14
ENDBRANCH   7  13
TORSDOF 3
ENDMDL
MODEL 5
REMARK VINA RESULT:      -8.8      5.234      7.514
REMARK  3 active torsions:
REMARK  status: ('A' for Active; 'I' for Inactive)
REMARK    1  A    between atoms: C_7  and  C_10 
REMARK    2  A    between atoms: C_10  and  N_11 
REMARK    3  A    between atoms: N_11  and  C_12 
ROOT
HETATM    1  C   UNL     1       8.732  20.058  53.993  1.00  0.00     0.002 A 
HETATM    2  C   UNL     1       8.267  21.004  53.074  1.00  0.00     0.033 A 
HETATM    3  C   UNL     1       7.709  22.213  53.536  1.00  0.00     0.075 A 
HETATM    4  C   UNL     1       7.635  22.437  54.908  1.00  0.00     0.035 A 
HETATM    5  S   UNL     1       6.919  23.973  55.182  1.00  0.00    -0.067 SA
HETATM    6  C   UNL     1       6.756  24.238  53.472  1.00  0.00     0.121 A 
HETATM    7  C   UNL     1       6.175  25.451  52.960  1.00  0.00     0.095 C 
HETATM    8  C   UNL     1       5.709  26.487  53.823  1.00  0.00     0.103 C 
HETATM    9  N   UNL     1       5.320  27.350  54.496  1.00  0.00    -0.191 NA
HETATM   10  N   UNL     1       7.212  23.232  52.744  1.00  0.00    -0.239 NA
HETATM   11  C   UNL     1       8.100  21.496  55.841  1.00  0.00     0.021 A 
HETATM   12  C   UNL     1       8.649  20.303  55.360  1.00  0.00     0.002 A 
ENDROOT
BRANCH   7  13
HETATM   13  C   UNL     1       6.074  25.601  51.622  1.00  0.00     0.114 C 
BRANCH  13  14
HETATM   14  N   UNL     1       5.953  26.758  50.880  1.00  0.00    -0.364 N 
HETATM   15  H   UNL     1       6.778  27.352  50.826  1.00  0.00     0.165 HD
BRANCH  14  16
HETATM   16  C   UNL     1       4.841  27.239  50.162  1.00  0.00     0.034 A 
HETATM   17  C   UNL     1       4.327  26.622  49.014  1.00  0.00     0.069 A 
HETATM   18  C   UNL     1       3.213  27.149  48.353  1.00  0.00     0.104 A 
HETATM   19  C   UNL     1       2.611  28.321  48.812  1.00  0.00     0.102 A 
HETATM   20  O   UNL     1       2.771  26.461  47.250  1.00  0.00    -0.346 OA
HETATM   21  O   UNL     1       1.539  28.911  48.195  1.00  0.00    -0.346 OA
HETATM   22  C   UNL     1       3.096  28.940  49.957  1.00  0.00     0.042 A 
HETATM   23  C   UNL     1       1.350  28.393  46.872  1.00  0.00     0.202 C 
HETATM   24  C   UNL     1       1.454  26.878  46.870  1.00  0.00     0.202 C 
HETATM   25  C   UNL     1       4.202  28.403  50.624  1.00  0.00     0.032 A 
ENDBRANCH  14  16
ENDBRANCH  13  14
ENDBRANCH   7  13
TORSDOF 3
ENDMDL
MODEL 6
REMARK VINA RESULT:      -8.8      3.436      7.461
REMARK  3 active torsions:
REMARK  status: ('A' for Active; 'I' for Inactive)
REMARK    1  A    between atoms: C_7  and  C_10 
REMARK    2  A    between atoms: C_10  and  N_11 
REMARK    3  A    between atoms: N_11  and  C_12 
ROOT
HETATM    1  C   UNL     1      11.035  29.690  57.106  1.00  0.00     0.002 A 
HETATM    2  C   UNL     1       9.854  29.082  56.670  1.00  0.00     0.033 A 
HETATM    3  C   UNL     1       8.609  29.576  57.108  1.00  0.00     0.075 A 
HETATM    4  C   UNL     1       8.586  30.667  57.972  1.00  0.00     0.035 A 
HETATM    5  S   UNL     1       6.954  31.052  58.339  1.00  0.00    -0.067 SA
HETATM    6  C   UNL     1       6.388  29.752  57.333  1.00  0.00     0.121 A 
HETATM    7  C   UNL     1       4.982  29.490  57.179  1.00  0.00     0.095 C 
HETATM    8  C   UNL     1       3.991  30.276  57.837  1.00  0.00     0.103 C 
HETATM    9  N   UNL     1       3.158  30.896  58.358  1.00  0.00    -0.191 NA
HETATM   10  N   UNL     1       7.369  29.074  56.759  1.00  0.00    -0.239 NA
HETATM   11  C   UNL     1       9.765  31.288  58.417  1.00  0.00     0.021 A 
HETATM   12  C   UNL     1      10.989  30.781  57.969  1.00  0.00     0.002 A 
ENDROOT
BRANCH   7  13
HETATM   13  C   UNL     1       4.601  28.466  56.384  1.00  0.00     0.114 C 
BRANCH  13  14
HETATM   14  N   UNL     1       4.567  27.114  56.659  1.00  0.00    -0.364 N 
HETATM   15  H   UNL     1       3.794  26.786  57.233  1.00  0.00     0.165 HD
BRANCH  14  16
HETATM   16  C   UNL     1       5.453  26.102  56.242  1.00  0.00     0.034 A 
HETATM   17  C   UNL     1       5.487  25.581  54.941  1.00  0.00     0.069 A 
HETATM   18  C   UNL     1       6.400  24.581  54.592  1.00  0.00     0.104 A 
HETATM   19  C   UNL     1       7.276  24.061  55.547  1.00  0.00     0.102 A 
HETATM   20  O   UNL     1       6.371  24.151  53.289  1.00  0.00    -0.346 OA
HETATM   21  O   UNL     1       8.171  23.058  55.283  1.00  0.00    -0.346 OA
HETATM   22  C   UNL     1       7.268  24.574  56.838  1.00  0.00     0.042 A 
HETATM   23  C   UNL     1       7.859  22.392  54.054  1.00  0.00     0.202 C 
HETATM   24  C   UNL     1       7.546  23.400  52.962  1.00  0.00     0.202 C 
HETATM   25  C   UNL     1       6.363  25.584  57.180  1.00  0.00     0.032 A 
ENDBRANCH  14  16
ENDBRANCH  13  14
ENDBRANCH   7  13
TORSDOF 3
ENDMDL
MODEL 7
REMARK VINA RESULT:      -8.5      4.396      9.490
REMARK  3 active torsions:
REMARK  status: ('A' for Active; 'I' for Inactive)
REMARK    1  A    between atoms: C_7  and  C_10 
REMARK    2  A    between atoms: C_10  and  N_11 
REMARK    3  A    between atoms: N_11  and  C_12 
ROOT
HETATM    1  C   UNL     1       5.546  32.912  64.227  1.00  0.00     0.002 A 
HETATM    2  C   UNL     1       5.399  32.464  62.910  1.00  0.00     0.033 A 
HETATM    3  C   UNL     1       6.537  32.295  62.097  1.00  0.00     0.075 A 
HETATM    4  C   UNL     1       7.791  32.581  62.629  1.00  0.00     0.035 A 
HETATM    5  S   UNL     1       8.984  32.289  61.429  1.00  0.00    -0.067 SA
HETATM    6  C   UNL     1       7.764  31.805  60.289  1.00  0.00     0.121 A 
HETATM    7  C   UNL     1       8.115  31.394  58.955  1.00  0.00     0.095 C 
HETATM    8  C   UNL     1       9.469  31.363  58.506  1.00  0.00     0.103 C 
HETATM    9  N   UNL     1      10.560  31.327  58.108  1.00  0.00    -0.191 NA
HETATM   10  N   UNL     1       6.538  31.861  60.784  1.00  0.00    -0.239 NA
HETATM   11  C   UNL     1       7.953  33.031  63.949  1.00  0.00     0.021 A 
HETATM   12  C   UNL     1       6.810  33.191  64.738  1.00  0.00     0.002 A 
ENDROOT
BRANCH   7  13
HETATM   13  C   UNL     1       7.124  31.029  58.113  1.00  0.00     0.114 C 
BRANCH  13  14
HETATM   14  N   UNL     1       6.390  29.861  58.082  1.00  0.00    -0.364 N 
HETATM   15  H   UNL     1       5.502  29.869  58.578  1.00  0.00     0.165 HD
BRANCH  14  16
HETATM   16  C   UNL     1       6.690  28.642  57.443  1.00  0.00     0.034 A 
HETATM   17  C   UNL     1       5.838  28.013  56.525  1.00  0.00     0.069 A 
HETATM   18  C   UNL     1       6.202  26.806  55.921  1.00  0.00     0.104 A 
HETATM   19  C   UNL     1       7.413  26.191  56.245  1.00  0.00     0.102 A 
HETATM   20  O   UNL     1       5.311  26.277  55.019  1.00  0.00    -0.346 OA
HETATM   21  O   UNL     1       7.816  24.992  55.717  1.00  0.00    -0.346 OA
HETATM   22  C   UNL     1       8.277  26.806  57.141  1.00  0.00     0.042 A 
HETATM   23  C   UNL     1       6.725  24.305  55.092  1.00  0.00     0.202 C 
HETATM   24  C   UNL     1       5.921  25.255  54.222  1.00  0.00     0.202 C 
HETATM   25  C   UNL     1       7.917  28.021  57.734  1.00  0.00     0.032 A 
ENDBRANCH  14  16
ENDBRANCH  13  14
ENDBRANCH   7  13
TORSDOF 3
ENDMDL
MODEL 8
REMARK VINA RESULT:      -8.5      1.318      2.111
REMARK  3 active torsions:
REMARK  status: ('A' for Active; 'I' for Inactive)
REMARK    1  A    between atoms: C_7  and  C_10 
REMARK    2  A    between atoms: C_10  and  N_11 
REMARK    3  A    between atoms: N_11  and  C_12 
ROOT
HETATM    1  C   UNL     1       8.203  22.281  55.109  1.00  0.00     0.002 A 
HETATM    2  C   UNL     1       7.449  23.317  55.669  1.00  0.00     0.033 A 
HETATM    3  C   UNL     1       6.978  24.361  54.848  1.00  0.00     0.075 A 
HETATM    4  C   UNL     1       7.278  24.335  53.488  1.00  0.00     0.035 A 
HETATM    5  S   UNL     1       6.585  25.715  52.739  1.00  0.00    -0.067 SA
HETATM    6  C   UNL     1       5.936  26.254  54.259  1.00  0.00     0.121 A 
HETATM    7  C   UNL     1       5.170  27.468  54.351  1.00  0.00     0.095 C 
HETATM    8  C   UNL     1       4.905  28.282  53.210  1.00  0.00     0.103 C 
HETATM    9  N   UNL     1       4.672  28.968  52.301  1.00  0.00    -0.191 NA
HETATM   10  N   UNL     1       6.226  25.444  55.265  1.00  0.00    -0.239 NA
HETATM   11  C   UNL     1       8.033  23.299  52.914  1.00  0.00     0.021 A 
HETATM   12  C   UNL     1       8.490  22.274  53.748  1.00  0.00     0.002 A 
ENDROOT
BRANCH   7  13
HETATM   13  C   UNL     1       4.692  27.838  55.559  1.00  0.00     0.114 C 
BRANCH  13  14
HETATM   14  N   UNL     1       4.888  29.014  56.253  1.00  0.00    -0.364 N 
HETATM   15  H   UNL     1       4.156  29.717  56.173  1.00  0.00     0.165 HD
BRANCH  14  16
HETATM   16  C   UNL     1       5.965  29.386  57.081  1.00  0.00     0.034 A 
HETATM   17  C   UNL     1       6.123  30.666  57.628  1.00  0.00     0.069 A 
HETATM   18  C   UNL     1       7.213  30.965  58.450  1.00  0.00     0.104 A 
HETATM   19  C   UNL     1       8.183  29.997  58.716  1.00  0.00     0.102 A 
HETATM   20  O   UNL     1       7.270  32.241  58.956  1.00  0.00    -0.346 OA
HETATM   21  O   UNL     1       9.293  30.232  59.484  1.00  0.00    -0.346 OA
HETATM   22  C   UNL     1       8.037  28.718  58.195  1.00  0.00     0.042 A 
HETATM   23  C   UNL     1       9.508  31.635  59.674  1.00  0.00     0.202 C 
HETATM   24  C   UNL     1       8.208  32.333  60.034  1.00  0.00     0.202 C 
HETATM   25  C   UNL     1       6.937  28.417  57.384  1.00  0.00     0.032 A 
ENDBRANCH  14  16
ENDBRANCH  13  14
ENDBRANCH   7  13
TORSDOF 3
ENDMDL
MODEL 9
REMARK VINA RESULT:      -8.5      3.437      8.128
REMARK  3 active torsions:
REMARK  status: ('A' for Active; 'I' for Inactive)
REMARK    1  A    between atoms: C_7  and  C_10 
REMARK    2  A    between atoms: C_10  and  N_11 
REMARK    3  A    between atoms: N_11  and  C_12 
ROOT
HETATM    1  C   UNL     1       8.378  30.470  59.531  1.00  0.00     0.002 A 
HETATM    2  C   UNL     1       8.250  29.472  58.560  1.00  0.00     0.033 A 
HETATM    3  C   UNL     1       7.240  29.572  57.582  1.00  0.00     0.075 A 
HETATM    4  C   UNL     1       6.387  30.672  57.607  1.00  0.00     0.035 A 
HETATM    5  S   UNL     1       5.266  30.537  56.314  1.00  0.00    -0.067 SA
HETATM    6  C   UNL     1       5.982  29.036  55.808  1.00  0.00     0.121 A 
HETATM    7  C   UNL     1       5.475  28.317  54.670  1.00  0.00     0.095 C 
HETATM    8  C   UNL     1       4.369  28.795  53.907  1.00  0.00     0.103 C 
HETATM    9  N   UNL     1       3.471  29.156  53.263  1.00  0.00    -0.191 NA
HETATM   10  N   UNL     1       7.000  28.663  56.567  1.00  0.00    -0.239 NA
HETATM   11  C   UNL     1       6.505  31.682  58.576  1.00  0.00     0.021 A 
HETATM   12  C   UNL     1       7.515  31.561  59.537  1.00  0.00     0.002 A 
ENDROOT
BRANCH   7  13
HETATM   13  C   UNL     1       6.071  27.155  54.324  1.00  0.00     0.114 C 
BRANCH  13  14
HETATM   14  N   UNL     1       6.387  26.067  55.113  1.00  0.00    -0.364 N 
HETATM   15  H   UNL     1       6.266  26.182  56.116  1.00  0.00     0.165 HD
BRANCH  14  16
HETATM   16  C   UNL     1       6.846  24.794  54.724  1.00  0.00     0.034 A 
HETATM   17  C   UNL     1       7.141  23.762  55.624  1.00  0.00     0.069 A 
HETATM   18  C   UNL     1       7.586  22.517  55.168  1.00  0.00     0.104 A 
HETATM   19  C   UNL     1       7.773  22.291  53.804  1.00  0.00     0.102 A 
HETATM   20  O   UNL     1       7.829  21.563  56.126  1.00  0.00    -0.346 OA
HETATM   21  O   UNL     1       8.238  21.109  53.291  1.00  0.00    -0.346 OA
HETATM   22  C   UNL     1       7.472  23.297  52.893  1.00  0.00     0.042 A 
HETATM   23  C   UNL     1       8.824  20.294  54.312  1.00  0.00     0.202 C 
HETATM   24  C   UNL     1       7.938  20.259  55.545  1.00  0.00     0.202 C 
HETATM   25  C   UNL     1       7.014  24.536  53.352  1.00  0.00     0.032 A 
ENDBRANCH  14  16
ENDBRANCH  13  14
ENDBRANCH   7  13
TORSDOF 3
ENDMDL
MODEL 10
REMARK VINA RESULT:      -8.3      3.964      9.042
REMARK  3 active torsions:
REMARK  status: ('A' for Active; 'I' for Inactive)
REMARK    1  A    between atoms: C_7  and  C_10 
REMARK    2  A    between atoms: C_10  and  N_11 
REMARK    3  A    between atoms: N_11  and  C_12 
ROOT
HETATM    1  C   UNL     1       7.974  32.677  63.599  1.00  0.00     0.002 A 
HETATM    2  C   UNL     1       8.366  31.812  62.572  1.00  0.00     0.033 A 
HETATM    3  C   UNL     1       7.647  31.792  61.361  1.00  0.00     0.075 A 
HETATM    4  C   UNL     1       6.554  32.642  61.214  1.00  0.00     0.035 A 
HETATM    5  S   UNL     1       5.874  32.410  59.655  1.00  0.00    -0.067 SA
HETATM    6  C   UNL     1       7.068  31.203  59.279  1.00  0.00     0.121 A 
HETATM    7  C   UNL     1       7.074  30.536  58.004  1.00  0.00     0.095 C 
HETATM    8  C   UNL     1       6.111  30.830  56.994  1.00  0.00     0.103 C 
HETATM    9  N   UNL     1       5.342  31.045  56.150  1.00  0.00    -0.191 NA
HETATM   10  N   UNL     1       7.922  30.991  60.267  1.00  0.00    -0.239 NA
HETATM   11  C   UNL     1       6.151  33.516  62.236  1.00  0.00     0.021 A 
HETATM   12  C   UNL     1       6.879  33.519  63.430  1.00  0.00     0.002 A 
ENDROOT
BRANCH   7  13
HETATM   13  C   UNL     1       8.026  29.607  57.769  1.00  0.00     0.114 C 
BRANCH  13  14
HETATM   14  N   UNL     1       7.986  28.244  57.981  1.00  0.00    -0.364 N 
HETATM   15  H   UNL     1       8.059  27.931  58.946  1.00  0.00     0.165 HD
BRANCH  14  16
HETATM   16  C   UNL     1       7.843  27.205  57.041  1.00  0.00     0.034 A 
HETATM   17  C   UNL     1       8.098  25.856  57.324  1.00  0.00     0.069 A 
HETATM   18  C   UNL     1       7.926  24.873  56.345  1.00  0.00     0.104 A 
HETATM   19  C   UNL     1       7.525  25.224  55.055  1.00  0.00     0.102 A 
HETATM   20  O   UNL     1       8.181  23.578  56.724  1.00  0.00    -0.346 OA
HETATM   21  O   UNL     1       7.370  24.318  54.039  1.00  0.00    -0.346 OA
HETATM   22  C   UNL     1       7.252  26.554  54.758  1.00  0.00     0.042 A 
HETATM   23  C   UNL     1       7.994  23.068  54.358  1.00  0.00     0.202 C 
HETATM   24  C   UNL     1       7.652  22.644  55.776  1.00  0.00     0.202 C 
HETATM   25  C   UNL     1       7.411  27.534  55.744  1.00  0.00     0.032 A 
ENDBRANCH  14  16
ENDBRANCH  13  14
ENDBRANCH   7  13
TORSDOF 3
ENDMDL
