MODEL 1
REMARK VINA RESULT:      -9.9      0.000      0.000
REMARK  8 active torsions:
REMARK  status: ('A' for Active; 'I' for Inactive)
REMARK    1  A    between atoms: N_2  and  C_4 
REMARK    2  A    between atoms: N_2  and  C_27 
REMARK    3  A    between atoms: C_4  and  C_5 
REMARK    4  A    between atoms: C_8  and  C_9 
REMARK    5  A    between atoms: C_9  and  N_10 
REMARK       I    between atoms: N_10  and  C_11 
REMARK    6  A    between atoms: C_11  and  C_12 
REMARK    7  A    between atoms: C_27  and  C_28 
REMARK    8  A    between atoms: C_28  and  C_29 
ROOT
HETATM    1  C   UNL     1       5.753  27.460  55.871  1.00  0.00     0.041 C 
HETATM    2  C   UNL     1       5.937  28.860  55.210  1.00  0.00    -0.004 C 
HETATM    3  C   UNL     1       7.118  29.613  55.875  1.00  0.00     0.040 C 
HETATM    4  C   UNL     1       6.765  29.979  57.330  1.00  0.00     0.206 C 
HETATM    5  N   UNL     1       5.549  29.130  57.693  1.00  0.00    -0.065 N 
HETATM    6  H   UNL     1       5.417  29.190  58.723  1.00  0.00     0.280 HD
HETATM    7  C   UNL     1       5.731  27.656  57.393  1.00  0.00     0.242 C 
HETATM    8  C   UNL     1       4.641  29.667  55.484  1.00  0.00     0.032 C 
HETATM    9  C   UNL     1       4.327  29.677  56.987  1.00  0.00     0.236 C 
ENDROOT
BRANCH   4  10
HETATM   10  C   UNL     1       7.942  29.826  58.325  1.00  0.00     0.156 C 
BRANCH  10  11
HETATM   11  N   UNL     1       7.673  30.360  59.656  1.00  0.00    -0.355 N 
HETATM   12  C   UNL     1       8.024  31.641  60.025  1.00  0.00     0.251 C 
HETATM   13  O   UNL     1       8.746  32.341  59.320  1.00  0.00    -0.268 OA
HETATM   14  H   UNL     1       6.946  29.904  60.204  1.00  0.00     0.162 HD
BRANCH  12  15
HETATM   15  C   UNL     1       7.523  32.129  61.333  1.00  0.00     0.034 A 
HETATM   16  C   UNL     1       6.154  32.325  61.550  1.00  0.00     0.056 A 
HETATM   17  C   UNL     1       5.766  32.734  62.809  1.00  0.00     0.106 A 
HETATM   18  C   UNL     1       6.673  32.950  63.818  1.00  0.00     0.105 A 
HETATM   19  O   UNL     1       4.485  32.952  63.206  1.00  0.00    -0.323 OA
HETATM   20  O   UNL     1       6.077  33.338  64.975  1.00  0.00    -0.323 OA
HETATM   21  C   UNL     1       8.026  32.765  63.633  1.00  0.00     0.041 A 
HETATM   22  C   UNL     1       4.685  33.325  64.590  1.00  0.00     0.352 A 
HETATM   23  C   UNL     1       8.456  32.340  62.371  1.00  0.00     0.020 A 
ENDBRANCH  12  15
ENDBRANCH  10  11
ENDBRANCH   4  10
BRANCH   1  24
HETATM   24  C   UNL     1       6.801  26.434  55.391  1.00  0.00     0.241 C 
BRANCH  24  25
HETATM   25  N   UNL     1       6.694  26.056  53.930  1.00  0.00    -0.074 N 
HETATM   26  C   UNL     1       5.346  25.426  53.638  1.00  0.00     0.269 C 
HETATM   27  H   UNL     1       6.724  26.907  53.329  1.00  0.00     0.279 HD
BRANCH  25  28
HETATM   28  C   UNL     1       7.840  25.198  53.394  1.00  0.00     0.240 C 
BRANCH  28  29
HETATM   29  C   UNL     1       7.353  23.882  52.771  1.00  0.00     0.087 C 
BRANCH  29  30
HETATM   30  C   UNL     1       7.586  22.660  53.634  1.00  0.00     0.035 A 
HETATM   31  N   UNL     1       7.492  22.806  54.990  1.00  0.00    -0.266 NA
HETATM   32  C   UNL     1       7.792  21.707  55.738  1.00  0.00     0.117 A 
HETATM   33  C   UNL     1       8.168  20.485  55.211  1.00  0.00     0.019 A 
HETATM   34  C   UNL     1       8.259  20.367  53.830  1.00  0.00     0.003 A 
HETATM   35  C   UNL     1       7.973  21.466  53.028  1.00  0.00     0.027 A 
ENDBRANCH  29  30
ENDBRANCH  28  29
ENDBRANCH  25  28
ENDBRANCH  24  25
ENDBRANCH   1  24
TORSDOF 8
ENDMDL
MODEL 2
REMARK VINA RESULT:      -9.8      1.316      1.996
REMARK  8 active torsions:
REMARK  status: ('A' for Active; 'I' for Inactive)
REMARK    1  A    between atoms: N_2  and  C_4 
REMARK    2  A    between atoms: N_2  and  C_27 
REMARK    3  A    between atoms: C_4  and  C_5 
REMARK    4  A    between atoms: C_8  and  C_9 
REMARK    5  A    between atoms: C_9  and  N_10 
REMARK       I    between atoms: N_10  and  C_11 
REMARK    6  A    between atoms: C_11  and  C_12 
REMARK    7  A    between atoms: C_27  and  C_28 
REMARK    8  A    between atoms: C_28  and  C_29 
ROOT
HETATM    1  C   UNL     1       6.893  26.520  54.950  1.00  0.00     0.041 C 
HETATM    2  C   UNL     1       5.585  26.345  55.781  1.00  0.00    -0.004 C 
HETATM    3  C   UNL     1       5.125  27.713  56.347  1.00  0.00     0.040 C 
HETATM    4  C   UNL     1       6.124  28.214  57.408  1.00  0.00     0.206 C 
HETATM    5  N   UNL     1       7.385  27.372  57.227  1.00  0.00    -0.065 N 
HETATM    6  H   UNL     1       8.148  27.821  57.774  1.00  0.00     0.280 HD
HETATM    7  C   UNL     1       7.884  27.332  55.796  1.00  0.00     0.242 C 
HETATM    8  C   UNL     1       5.927  25.423  56.980  1.00  0.00     0.032 C 
HETATM    9  C   UNL     1       7.135  25.975  57.751  1.00  0.00     0.236 C 
ENDROOT
BRANCH   4  10
HETATM   10  C   UNL     1       6.391  29.739  57.358  1.00  0.00     0.156 C 
BRANCH  10  11
HETATM   11  N   UNL     1       6.884  30.302  58.611  1.00  0.00    -0.355 N 
HETATM   12  C   UNL     1       6.700  31.624  58.953  1.00  0.00     0.251 C 
HETATM   13  O   UNL     1       6.274  32.446  58.145  1.00  0.00    -0.268 OA
HETATM   14  H   UNL     1       7.080  29.651  59.369  1.00  0.00     0.162 HD
BRANCH  12  15
HETATM   15  C   UNL     1       7.072  32.025  60.330  1.00  0.00     0.034 A 
HETATM   16  C   UNL     1       6.150  32.666  61.167  1.00  0.00     0.056 A 
HETATM   17  C   UNL     1       6.560  32.960  62.450  1.00  0.00     0.106 A 
HETATM   18  C   UNL     1       7.819  32.651  62.904  1.00  0.00     0.105 A 
HETATM   19  O   UNL     1       5.797  33.558  63.403  1.00  0.00    -0.323 OA
HETATM   20  O   UNL     1       8.009  33.021  64.197  1.00  0.00    -0.323 OA
HETATM   21  C   UNL     1       8.747  32.020  62.103  1.00  0.00     0.041 A 
HETATM   22  C   UNL     1       6.719  33.584  64.519  1.00  0.00     0.352 A 
HETATM   23  C   UNL     1       8.363  31.696  60.798  1.00  0.00     0.020 A 
ENDBRANCH  12  15
ENDBRANCH  10  11
ENDBRANCH   4  10
BRANCH   1  24
HETATM   24  C   UNL     1       6.634  27.117  53.551  1.00  0.00     0.241 C 
BRANCH  24  25
HETATM   25  N   UNL     1       6.917  26.178  52.400  1.00  0.00    -0.074 N 
HETATM   26  C   UNL     1       5.634  25.545  51.900  1.00  0.00     0.269 C 
HETATM   27  H   UNL     1       7.289  26.706  51.580  1.00  0.00     0.279 HD
BRANCH  25  28
HETATM   28  C   UNL     1       7.994  25.126  52.668  1.00  0.00     0.240 C 
BRANCH  28  29
HETATM   29  C   UNL     1       7.558  23.714  52.251  1.00  0.00     0.087 C 
BRANCH  29  30
HETATM   30  C   UNL     1       7.637  22.685  53.359  1.00  0.00     0.035 A 
HETATM   31  N   UNL     1       7.422  23.107  54.642  1.00  0.00    -0.266 NA
HETATM   32  C   UNL     1       7.585  22.173  55.619  1.00  0.00     0.117 A 
HETATM   33  C   UNL     1       7.940  20.857  55.388  1.00  0.00     0.019 A 
HETATM   34  C   UNL     1       8.156  20.457  54.076  1.00  0.00     0.003 A 
HETATM   35  C   UNL     1       8.011  21.381  53.046  1.00  0.00     0.027 A 
ENDBRANCH  29  30
ENDBRANCH  28  29
ENDBRANCH  25  28
ENDBRANCH  24  25
ENDBRANCH   1  24
TORSDOF 8
ENDMDL
MODEL 3
REMARK VINA RESULT:      -9.6      3.584      5.463
REMARK  8 active torsions:
REMARK  status: ('A' for Active; 'I' for Inactive)
REMARK    1  A    between atoms: N_2  and  C_4 
REMARK    2  A    between atoms: N_2  and  C_27 
REMARK    3  A    between atoms: C_4  and  C_5 
REMARK    4  A    between atoms: C_8  and  C_9 
REMARK    5  A    between atoms: C_9  and  N_10 
REMARK       I    between atoms: N_10  and  C_11 
REMARK    6  A    between atoms: C_11  and  C_12 
REMARK    7  A    between atoms: C_27  and  C_28 
REMARK    8  A    between atoms: C_28  and  C_29 
ROOT
HETATM    1  C   UNL     1       6.652  25.000  54.400  1.00  0.00     0.041 C 
HETATM    2  C   UNL     1       6.993  25.419  52.937  1.00  0.00    -0.004 C 
HETATM    3  C   UNL     1       6.644  26.914  52.716  1.00  0.00     0.040 C 
HETATM    4  C   UNL     1       5.119  27.120  52.770  1.00  0.00     0.206 C 
HETATM    5  N   UNL     1       4.547  25.854  53.404  1.00  0.00    -0.065 N 
HETATM    6  H   UNL     1       3.554  26.043  53.651  1.00  0.00     0.280 HD
HETATM    7  C   UNL     1       5.223  25.472  54.705  1.00  0.00     0.242 C 
HETATM    8  C   UNL     1       6.091  24.575  52.000  1.00  0.00     0.032 C 
HETATM    9  C   UNL     1       4.617  24.718  52.406  1.00  0.00     0.236 C 
ENDROOT
BRANCH   4  10
HETATM   10  C   UNL     1       4.679  28.419  53.489  1.00  0.00     0.156 C 
BRANCH  10  11
HETATM   11  N   UNL     1       5.701  28.999  54.355  1.00  0.00    -0.355 N 
HETATM   12  C   UNL     1       5.664  28.881  55.728  1.00  0.00     0.251 C 
HETATM   13  O   UNL     1       4.675  28.443  56.311  1.00  0.00    -0.268 OA
HETATM   14  H   UNL     1       6.604  29.212  53.934  1.00  0.00     0.162 HD
BRANCH  12  15
HETATM   15  C   UNL     1       6.856  29.341  56.479  1.00  0.00     0.034 A 
HETATM   16  C   UNL     1       8.145  29.163  55.961  1.00  0.00     0.056 A 
HETATM   17  C   UNL     1       9.197  29.664  56.699  1.00  0.00     0.106 A 
HETATM   18  C   UNL     1       9.008  30.308  57.897  1.00  0.00     0.105 A 
HETATM   19  O   UNL     1      10.507  29.602  56.344  1.00  0.00    -0.323 OA
HETATM   20  O   UNL     1      10.175  30.727  58.449  1.00  0.00    -0.323 OA
HETATM   21  C   UNL     1       7.751  30.498  58.430  1.00  0.00     0.041 A 
HETATM   22  C   UNL     1      11.127  30.292  57.455  1.00  0.00     0.352 A 
HETATM   23  C   UNL     1       6.658  30.013  57.704  1.00  0.00     0.020 A 
ENDBRANCH  12  15
ENDBRANCH  10  11
ENDBRANCH   4  10
BRANCH   1  24
HETATM   24  C   UNL     1       7.700  25.492  55.420  1.00  0.00     0.241 C 
BRANCH  24  25
HETATM   25  N   UNL     1       7.561  24.902  56.805  1.00  0.00    -0.074 N 
HETATM   26  C   UNL     1       7.257  25.987  57.820  1.00  0.00     0.269 C 
HETATM   27  H   UNL     1       6.740  24.261  56.849  1.00  0.00     0.279 HD
BRANCH  25  28
HETATM   28  C   UNL     1       8.728  24.023  57.258  1.00  0.00     0.240 C 
BRANCH  28  29
HETATM   29  C   UNL     1       8.404  22.524  57.180  1.00  0.00     0.087 C 
BRANCH  29  30
HETATM   30  C   UNL     1       8.462  21.947  55.782  1.00  0.00     0.035 A 
HETATM   31  N   UNL     1       9.209  22.607  54.846  1.00  0.00    -0.266 NA
HETATM   32  C   UNL     1       9.170  22.107  53.580  1.00  0.00     0.117 A 
HETATM   33  C   UNL     1       8.440  20.994  53.204  1.00  0.00     0.019 A 
HETATM   34  C   UNL     1       7.688  20.345  54.174  1.00  0.00     0.003 A 
HETATM   35  C   UNL     1       7.690  20.828  55.478  1.00  0.00     0.027 A 
ENDBRANCH  29  30
ENDBRANCH  28  29
ENDBRANCH  25  28
ENDBRANCH  24  25
ENDBRANCH   1  24
TORSDOF 8
ENDMDL
MODEL 4
REMARK VINA RESULT:      -9.5      3.838     10.873
REMARK  8 active torsions:
REMARK  status: ('A' for Active; 'I' for Inactive)
REMARK    1  A    between atoms: N_2  and  C_4 
REMARK    2  A    between atoms: N_2  and  C_27 
REMARK    3  A    between atoms: C_4  and  C_5 
REMARK    4  A    between atoms: C_8  and  C_9 
REMARK    5  A    between atoms: C_9  and  N_10 
REMARK       I    between atoms: N_10  and  C_11 
REMARK    6  A    between atoms: C_11  and  C_12 
REMARK    7  A    between atoms: C_27  and  C_28 
REMARK    8  A    between atoms: C_28  and  C_29 
ROOT
HETATM    1  C   UNL     1       7.652  29.454  56.770  1.00  0.00     0.041 C 
HETATM    2  C   UNL     1       6.117  29.731  56.768  1.00  0.00    -0.004 C 
HETATM    3  C   UNL     1       5.362  28.554  57.437  1.00  0.00     0.040 C 
HETATM    4  C   UNL     1       5.469  27.288  56.565  1.00  0.00     0.206 C 
HETATM    5  N   UNL     1       6.596  27.557  55.571  1.00  0.00    -0.065 N 
HETATM    6  H   UNL     1       6.838  26.655  55.114  1.00  0.00     0.280 HD
HETATM    7  C   UNL     1       7.876  28.037  56.224  1.00  0.00     0.242 C 
HETATM    8  C   UNL     1       5.669  29.805  55.285  1.00  0.00     0.032 C 
HETATM    9  C   UNL     1       6.119  28.546  54.528  1.00  0.00     0.236 C 
ENDROOT
BRANCH   4  10
HETATM   10  C   UNL     1       5.660  25.978  57.370  1.00  0.00     0.156 C 
BRANCH  10  11
HETATM   11  N   UNL     1       6.192  24.867  56.588  1.00  0.00    -0.355 N 
HETATM   12  C   UNL     1       7.439  24.326  56.821  1.00  0.00     0.251 C 
HETATM   13  O   UNL     1       8.245  24.866  57.574  1.00  0.00    -0.268 OA
HETATM   14  H   UNL     1       5.522  24.286  56.087  1.00  0.00     0.162 HD
BRANCH  12  15
HETATM   15  C   UNL     1       7.782  23.082  56.093  1.00  0.00     0.034 A 
HETATM   16  C   UNL     1       7.617  22.991  54.705  1.00  0.00     0.056 A 
HETATM   17  C   UNL     1       8.006  21.816  54.098  1.00  0.00     0.106 A 
HETATM   18  C   UNL     1       8.532  20.765  54.809  1.00  0.00     0.105 A 
HETATM   19  O   UNL     1       7.939  21.559  52.765  1.00  0.00    -0.323 OA
HETATM   20  O   UNL     1       8.855  19.712  54.014  1.00  0.00    -0.323 OA
HETATM   21  C   UNL     1       8.706  20.826  56.175  1.00  0.00     0.041 A 
HETATM   22  C   UNL     1       8.492  20.223  52.714  1.00  0.00     0.352 A 
HETATM   23  C   UNL     1       8.332  22.008  56.825  1.00  0.00     0.020 A 
ENDBRANCH  12  15
ENDBRANCH  10  11
ENDBRANCH   4  10
BRANCH   1  24
HETATM   24  C   UNL     1       8.299  29.700  58.149  1.00  0.00     0.241 C 
BRANCH  24  25
HETATM   25  N   UNL     1       8.339  31.149  58.580  1.00  0.00    -0.074 N 
HETATM   26  C   UNL     1       9.771  31.611  58.768  1.00  0.00     0.269 C 
HETATM   27  H   UNL     1       7.958  31.765  57.830  1.00  0.00     0.279 HD
BRANCH  25  28
HETATM   28  C   UNL     1       7.476  31.489  59.796  1.00  0.00     0.240 C 
BRANCH  28  29
HETATM   29  C   UNL     1       8.260  32.233  60.888  1.00  0.00     0.087 C 
BRANCH  29  30
HETATM   30  C   UNL     1       7.462  32.519  62.142  1.00  0.00     0.035 A 
HETATM   31  N   UNL     1       6.105  32.635  62.025  1.00  0.00    -0.266 NA
HETATM   32  C   UNL     1       5.429  32.977  63.157  1.00  0.00     0.117 A 
HETATM   33  C   UNL     1       6.026  33.201  64.384  1.00  0.00     0.019 A 
HETATM   34  C   UNL     1       7.407  33.081  64.472  1.00  0.00     0.003 A 
HETATM   35  C   UNL     1       8.138  32.744  63.339  1.00  0.00     0.027 A 
ENDBRANCH  29  30
ENDBRANCH  28  29
ENDBRANCH  25  28
ENDBRANCH  24  25
ENDBRANCH   1  24
TORSDOF 8
ENDMDL
MODEL 5
REMARK VINA RESULT:      -9.4      1.250      1.941
REMARK  8 active torsions:
REMARK  status: ('A' for Active; 'I' for Inactive)
REMARK    1  A    between atoms: N_2  and  C_4 
REMARK    2  A    between atoms: N_2  and  C_27 
REMARK    3  A    between atoms: C_4  and  C_5 
REMARK    4  A    between atoms: C_8  and  C_9 
REMARK    5  A    between atoms: C_9  and  N_10 
REMARK       I    between atoms: N_10  and  C_11 
REMARK    6  A    between atoms: C_11  and  C_12 
REMARK    7  A    between atoms: C_27  and  C_28 
REMARK    8  A    between atoms: C_28  and  C_29 
ROOT
HETATM    1  C   UNL     1       7.241  27.833  54.845  1.00  0.00     0.041 C 
HETATM    2  C   UNL     1       6.454  27.125  55.990  1.00  0.00    -0.004 C 
HETATM    3  C   UNL     1       5.868  28.179  56.966  1.00  0.00     0.040 C 
HETATM    4  C   UNL     1       7.002  28.884  57.733  1.00  0.00     0.206 C 
HETATM    5  N   UNL     1       8.287  28.561  56.973  1.00  0.00    -0.065 N 
HETATM    6  H   UNL     1       9.035  29.189  57.333  1.00  0.00     0.280 HD
HETATM    7  C   UNL     1       8.197  28.848  55.488  1.00  0.00     0.242 C 
HETATM    8  C   UNL     1       7.473  26.261  56.777  1.00  0.00     0.032 C 
HETATM    9  C   UNL     1       8.668  27.117  57.222  1.00  0.00     0.236 C 
ENDROOT
BRANCH   4  10
HETATM   10  C   UNL     1       6.778  30.402  57.944  1.00  0.00     0.156 C 
BRANCH  10  11
HETATM   11  N   UNL     1       6.713  30.808  59.344  1.00  0.00    -0.355 N 
HETATM   12  C   UNL     1       7.507  31.808  59.863  1.00  0.00     0.251 C 
HETATM   13  O   UNL     1       8.442  32.286  59.225  1.00  0.00    -0.268 OA
HETATM   14  H   UNL     1       5.864  30.578  59.857  1.00  0.00     0.162 HD
BRANCH  12  15
HETATM   15  C   UNL     1       7.210  32.259  61.243  1.00  0.00     0.034 A 
HETATM   16  C   UNL     1       5.903  32.587  61.627  1.00  0.00     0.056 A 
HETATM   17  C   UNL     1       5.703  32.950  62.942  1.00  0.00     0.106 A 
HETATM   18  C   UNL     1       6.732  33.000  63.851  1.00  0.00     0.105 A 
HETATM   19  O   UNL     1       4.506  33.279  63.495  1.00  0.00    -0.323 OA
HETATM   20  O   UNL     1       6.312  33.373  65.087  1.00  0.00    -0.323 OA
HETATM   21  C   UNL     1       8.027  32.684  63.501  1.00  0.00     0.041 A 
HETATM   22  C   UNL     1       4.895  33.535  64.864  1.00  0.00     0.352 A 
HETATM   23  C   UNL     1       8.267  32.299  62.177  1.00  0.00     0.020 A 
ENDBRANCH  12  15
ENDBRANCH  10  11
ENDBRANCH   4  10
BRANCH   1  24
HETATM   24  C   UNL     1       6.312  28.445  53.775  1.00  0.00     0.241 C 
BRANCH  24  25
HETATM   25  N   UNL     1       5.857  27.479  52.704  1.00  0.00    -0.074 N 
HETATM   26  C   UNL     1       4.391  27.138  52.880  1.00  0.00     0.269 C 
HETATM   27  H   UNL     1       5.915  27.923  51.762  1.00  0.00     0.279 HD
BRANCH  25  28
HETATM   28  C   UNL     1       6.712  26.219  52.559  1.00  0.00     0.240 C 
BRANCH  28  29
HETATM   29  C   UNL     1       5.957  24.943  52.960  1.00  0.00     0.087 C 
BRANCH  29  30
HETATM   30  C   UNL     1       6.830  23.871  53.578  1.00  0.00     0.035 A 
HETATM   31  N   UNL     1       6.671  23.604  54.909  1.00  0.00    -0.266 NA
HETATM   32  C   UNL     1       7.530  22.696  55.449  1.00  0.00     0.117 A 
HETATM   33  C   UNL     1       8.522  22.044  54.740  1.00  0.00     0.019 A 
HETATM   34  C   UNL     1       8.663  22.338  53.390  1.00  0.00     0.003 A 
HETATM   35  C   UNL     1       7.814  23.267  52.799  1.00  0.00     0.027 A 
ENDBRANCH  29  30
ENDBRANCH  28  29
ENDBRANCH  25  28
ENDBRANCH  24  25
ENDBRANCH   1  24
TORSDOF 8
ENDMDL
MODEL 6
REMARK VINA RESULT:      -9.3      4.241      9.837
REMARK  8 active torsions:
REMARK  status: ('A' for Active; 'I' for Inactive)
REMARK    1  A    between atoms: N_2  and  C_4 
REMARK    2  A    between atoms: N_2  and  C_27 
REMARK    3  A    between atoms: C_4  and  C_5 
REMARK    4  A    between atoms: C_8  and  C_9 
REMARK    5  A    between atoms: C_9  and  N_10 
REMARK       I    between atoms: N_10  and  C_11 
REMARK    6  A    between atoms: C_11  and  C_12 
REMARK    7  A    between atoms: C_27  and  C_28 
REMARK    8  A    between atoms: C_28  and  C_29 
ROOT
HETATM    1  C   UNL     1       6.233  28.107  54.675  1.00  0.00     0.041 C 
HETATM    2  C   UNL     1       4.739  27.685  54.527  1.00  0.00    -0.004 C 
HETATM    3  C   UNL     1       4.613  26.513  53.519  1.00  0.00     0.040 C 
HETATM    4  C   UNL     1       4.962  26.993  52.098  1.00  0.00     0.206 C 
HETATM    5  N   UNL     1       5.673  28.334  52.270  1.00  0.00    -0.065 N 
HETATM    6  H   UNL     1       6.109  28.581  51.358  1.00  0.00     0.280 HD
HETATM    7  C   UNL     1       6.814  28.288  53.266  1.00  0.00     0.242 C 
HETATM    8  C   UNL     1       3.978  28.902  53.941  1.00  0.00     0.032 C 
HETATM    9  C   UNL     1       4.662  29.392  52.656  1.00  0.00     0.236 C 
ENDROOT
BRANCH   4  10
HETATM   10  C   UNL     1       5.774  25.970  51.264  1.00  0.00     0.156 C 
BRANCH  10  11
HETATM   11  N   UNL     1       6.199  24.792  52.013  1.00  0.00    -0.355 N 
HETATM   12  C   UNL     1       7.492  24.625  52.462  1.00  0.00     0.251 C 
HETATM   13  O   UNL     1       8.401  25.368  52.100  1.00  0.00    -0.268 OA
HETATM   14  H   UNL     1       5.474  24.248  52.479  1.00  0.00     0.162 HD
BRANCH  12  15
HETATM   15  C   UNL     1       7.749  23.485  53.374  1.00  0.00     0.034 A 
HETATM   16  C   UNL     1       7.923  23.690  54.749  1.00  0.00     0.056 A 
HETATM   17  C   UNL     1       8.109  22.573  55.535  1.00  0.00     0.106 A 
HETATM   18  C   UNL     1       8.132  21.304  55.008  1.00  0.00     0.105 A 
HETATM   19  O   UNL     1       8.273  22.578  56.884  1.00  0.00    -0.323 OA
HETATM   20  O   UNL     1       8.318  20.352  55.959  1.00  0.00    -0.323 OA
HETATM   21  C   UNL     1       7.963  21.073  53.660  1.00  0.00     0.041 A 
HETATM   22  C   UNL     1       8.393  21.161  57.153  1.00  0.00     0.352 A 
HETATM   23  C   UNL     1       7.760  22.183  52.832  1.00  0.00     0.020 A 
ENDBRANCH  12  15
ENDBRANCH  10  11
ENDBRANCH   4  10
BRANCH   1  24
HETATM   24  C   UNL     1       7.041  27.135  55.561  1.00  0.00     0.241 C 
BRANCH  24  25
HETATM   25  N   UNL     1       7.451  27.695  56.904  1.00  0.00    -0.074 N 
HETATM   26  C   UNL     1       7.720  26.575  57.890  1.00  0.00     0.269 C 
HETATM   27  H   UNL     1       8.358  28.203  56.827  1.00  0.00     0.279 HD
BRANCH  25  28
HETATM   28  C   UNL     1       6.502  28.741  57.490  1.00  0.00     0.240 C 
BRANCH  28  29
HETATM   29  C   UNL     1       7.042  30.172  57.354  1.00  0.00     0.087 C 
BRANCH  29  30
HETATM   30  C   UNL     1       7.567  30.765  58.644  1.00  0.00     0.035 A 
HETATM   31  N   UNL     1       7.117  32.003  59.009  1.00  0.00    -0.266 NA
HETATM   32  C   UNL     1       7.675  32.542  60.130  1.00  0.00     0.117 A 
HETATM   33  C   UNL     1       8.640  31.916  60.898  1.00  0.00     0.019 A 
HETATM   34  C   UNL     1       9.080  30.661  60.501  1.00  0.00     0.003 A 
HETATM   35  C   UNL     1       8.546  30.077  59.357  1.00  0.00     0.027 A 
ENDBRANCH  29  30
ENDBRANCH  28  29
ENDBRANCH  25  28
ENDBRANCH  24  25
ENDBRANCH   1  24
TORSDOF 8
ENDMDL
MODEL 7
REMARK VINA RESULT:      -9.1      4.446      8.739
REMARK  8 active torsions:
REMARK  status: ('A' for Active; 'I' for Inactive)
REMARK    1  A    between atoms: N_2  and  C_4 
REMARK    2  A    between atoms: N_2  and  C_27 
REMARK    3  A    between atoms: C_4  and  C_5 
REMARK    4  A    between atoms: C_8  and  C_9 
REMARK    5  A    between atoms: C_9  and  N_10 
REMARK       I    between atoms: N_10  and  C_11 
REMARK    6  A    between atoms: C_11  and  C_12 
REMARK    7  A    between atoms: C_27  and  C_28 
REMARK    8  A    between atoms: C_28  and  C_29 
ROOT
HETATM    1  C   UNL     1       6.008  29.625  56.311  1.00  0.00     0.041 C 
HETATM    2  C   UNL     1       7.416  29.182  55.809  1.00  0.00    -0.004 C 
HETATM    3  C   UNL     1       7.611  27.661  56.039  1.00  0.00     0.040 C 
HETATM    4  C   UNL     1       7.687  27.355  57.547  1.00  0.00     0.206 C 
HETATM    5  N   UNL     1       7.157  28.600  58.255  1.00  0.00    -0.065 N 
HETATM    6  H   UNL     1       6.993  28.353  59.252  1.00  0.00     0.280 HD
HETATM    7  C   UNL     1       5.815  29.069  57.729  1.00  0.00     0.242 C 
HETATM    8  C   UNL     1       8.464  29.933  56.672  1.00  0.00     0.032 C 
HETATM    9  C   UNL     1       8.188  29.705  58.166  1.00  0.00     0.236 C 
ENDROOT
BRANCH   4  10
HETATM   10  C   UNL     1       6.961  26.053  57.968  1.00  0.00     0.156 C 
BRANCH  10  11
HETATM   11  N   UNL     1       7.196  24.922  57.076  1.00  0.00    -0.355 N 
HETATM   12  C   UNL     1       8.316  24.124  57.172  1.00  0.00     0.251 C 
HETATM   13  O   UNL     1       9.266  24.428  57.889  1.00  0.00    -0.268 OA
HETATM   14  H   UNL     1       6.388  24.530  56.597  1.00  0.00     0.162 HD
BRANCH  12  15
HETATM   15  C   UNL     1       8.344  22.896  56.342  1.00  0.00     0.034 A 
HETATM   16  C   UNL     1       8.291  22.972  54.944  1.00  0.00     0.056 A 
HETATM   17  C   UNL     1       8.372  21.786  54.244  1.00  0.00     0.106 A 
HETATM   18  C   UNL     1       8.493  20.572  54.875  1.00  0.00     0.105 A 
HETATM   19  O   UNL     1       8.358  21.669  52.890  1.00  0.00    -0.323 OA
HETATM   20  O   UNL     1       8.564  19.538  53.997  1.00  0.00    -0.323 OA
HETATM   21  C   UNL     1       8.547  20.467  56.248  1.00  0.00     0.041 A 
HETATM   22  C   UNL     1       8.494  20.237  52.736  1.00  0.00     0.352 A 
HETATM   23  C   UNL     1       8.479  21.651  56.992  1.00  0.00     0.020 A 
ENDBRANCH  12  15
ENDBRANCH  10  11
ENDBRANCH   4  10
BRANCH   1  24
HETATM   24  C   UNL     1       4.879  29.238  55.332  1.00  0.00     0.241 C 
BRANCH  24  25
HETATM   25  N   UNL     1       4.928  29.947  53.997  1.00  0.00    -0.074 N 
HETATM   26  C   UNL     1       4.318  31.331  54.104  1.00  0.00     0.269 C 
HETATM   27  H   UNL     1       5.916  30.115  53.708  1.00  0.00     0.279 HD
BRANCH  25  28
HETATM   28  C   UNL     1       4.338  29.164  52.823  1.00  0.00     0.240 C 
BRANCH  28  29
HETATM   29  C   UNL     1       3.996  27.713  53.192  1.00  0.00     0.087 C 
BRANCH  29  30
HETATM   30  C   UNL     1       5.118  26.727  52.947  1.00  0.00     0.035 A 
HETATM   31  N   UNL     1       6.367  27.226  52.701  1.00  0.00    -0.266 NA
HETATM   32  C   UNL     1       7.333  26.313  52.401  1.00  0.00     0.117 A 
HETATM   33  C   UNL     1       7.123  24.948  52.339  1.00  0.00     0.019 A 
HETATM   34  C   UNL     1       5.843  24.470  52.590  1.00  0.00     0.003 A 
HETATM   35  C   UNL     1       4.824  25.367  52.890  1.00  0.00     0.027 A 
ENDBRANCH  29  30
ENDBRANCH  28  29
ENDBRANCH  25  28
ENDBRANCH  24  25
ENDBRANCH   1  24
TORSDOF 8
ENDMDL
MODEL 8
REMARK VINA RESULT:      -9.0      4.168     12.298
REMARK  8 active torsions:
REMARK  status: ('A' for Active; 'I' for Inactive)
REMARK    1  A    between atoms: N_2  and  C_4 
REMARK    2  A    between atoms: N_2  and  C_27 
REMARK    3  A    between atoms: C_4  and  C_5 
REMARK    4  A    between atoms: C_8  and  C_9 
REMARK    5  A    between atoms: C_9  and  N_10 
REMARK       I    between atoms: N_10  and  C_11 
REMARK    6  A    between atoms: C_11  and  C_12 
REMARK    7  A    between atoms: C_27  and  C_28 
REMARK    8  A    between atoms: C_28  and  C_29 
ROOT
HETATM    1  C   UNL     1       5.741  32.760  63.850  1.00  0.00     0.041 C 
HETATM    2  C   UNL     1       6.985  33.492  63.260  1.00  0.00    -0.004 C 
HETATM    3  C   UNL     1       6.772  33.773  61.750  1.00  0.00     0.040 C 
HETATM    4  C   UNL     1       6.761  32.452  60.958  1.00  0.00     0.206 C 
HETATM    5  N   UNL     1       6.576  31.344  61.992  1.00  0.00    -0.065 N 
HETATM    6  H   UNL     1       6.350  30.467  61.481  1.00  0.00     0.280 HD
HETATM    7  C   UNL     1       5.405  31.580  62.926  1.00  0.00     0.242 C 
HETATM    8  C   UNL     1       8.190  32.527  63.400  1.00  0.00     0.032 C 
HETATM    9  C   UNL     1       7.860  31.165  62.772  1.00  0.00     0.236 C 
ENDROOT
BRANCH   4  10
HETATM   10  C   UNL     1       5.717  32.407  59.815  1.00  0.00     0.156 C 
BRANCH  10  11
HETATM   11  N   UNL     1       5.774  31.197  59.000  1.00  0.00    -0.355 N 
HETATM   12  C   UNL     1       6.907  30.821  58.310  1.00  0.00     0.251 C 
HETATM   13  O   UNL     1       7.870  31.574  58.192  1.00  0.00    -0.268 OA
HETATM   14  H   UNL     1       5.090  30.470  59.197  1.00  0.00     0.162 HD
BRANCH  12  15
HETATM   15  C   UNL     1       6.901  29.479  57.681  1.00  0.00     0.034 A 
HETATM   16  C   UNL     1       5.902  29.116  56.770  1.00  0.00     0.056 A 
HETATM   17  C   UNL     1       5.996  27.867  56.193  1.00  0.00     0.106 A 
HETATM   18  C   UNL     1       7.018  26.999  56.492  1.00  0.00     0.105 A 
HETATM   19  O   UNL     1       5.133  27.356  55.275  1.00  0.00    -0.323 OA
HETATM   20  O   UNL     1       6.923  25.831  55.806  1.00  0.00    -0.323 OA
HETATM   21  C   UNL     1       8.015  27.330  57.385  1.00  0.00     0.041 A 
HETATM   22  C   UNL     1       5.734  26.064  55.021  1.00  0.00     0.352 A 
HETATM   23  C   UNL     1       7.958  28.593  57.983  1.00  0.00     0.020 A 
ENDBRANCH  12  15
ENDBRANCH  10  11
ENDBRANCH   4  10
BRANCH   1  24
HETATM   24  C   UNL     1       4.552  33.712  64.099  1.00  0.00     0.241 C 
BRANCH  24  25
HETATM   25  N   UNL     1       4.143  33.847  65.549  1.00  0.00    -0.074 N 
HETATM   26  C   UNL     1       3.112  34.947  65.713  1.00  0.00     0.269 C 
HETATM   27  H   UNL     1       3.660  32.982  65.875  1.00  0.00     0.279 HD
BRANCH  25  28
HETATM   28  C   UNL     1       5.297  34.009  66.539  1.00  0.00     0.240 C 
BRANCH  28  29
HETATM   29  C   UNL     1       4.814  34.201  67.984  1.00  0.00     0.087 C 
BRANCH  29  30
HETATM   30  C   UNL     1       5.925  34.434  68.986  1.00  0.00     0.035 A 
HETATM   31  N   UNL     1       5.590  34.501  70.310  1.00  0.00    -0.266 NA
HETATM   32  C   UNL     1       6.600  34.797  71.174  1.00  0.00     0.117 A 
HETATM   33  C   UNL     1       7.911  35.020  70.793  1.00  0.00     0.019 A 
HETATM   34  C   UNL     1       8.222  34.949  69.442  1.00  0.00     0.003 A 
HETATM   35  C   UNL     1       7.219  34.661  68.523  1.00  0.00     0.027 A 
ENDBRANCH  29  30
ENDBRANCH  28  29
ENDBRANCH  25  28
ENDBRANCH  24  25
ENDBRANCH   1  24
TORSDOF 8
ENDMDL
MODEL 9
REMARK VINA RESULT:      -8.9      4.077     10.430
REMARK  8 active torsions:
REMARK  status: ('A' for Active; 'I' for Inactive)
REMARK    1  A    between atoms: N_2  and  C_4 
REMARK    2  A    between atoms: N_2  and  C_27 
REMARK    3  A    between atoms: C_4  and  C_5 
REMARK    4  A    between atoms: C_8  and  C_9 
REMARK    5  A    between atoms: C_9  and  N_10 
REMARK       I    between atoms: N_10  and  C_11 
REMARK    6  A    between atoms: C_11  and  C_12 
REMARK    7  A    between atoms: C_27  and  C_28 
REMARK    8  A    between atoms: C_28  and  C_29 
ROOT
HETATM    1  C   UNL     1       5.557  29.845  57.458  1.00  0.00     0.041 C 
HETATM    2  C   UNL     1       6.903  30.145  56.731  1.00  0.00    -0.004 C 
HETATM    3  C   UNL     1       6.936  29.433  55.354  1.00  0.00     0.040 C 
HETATM    4  C   UNL     1       6.998  27.906  55.544  1.00  0.00     0.206 C 
HETATM    5  N   UNL     1       6.614  27.649  56.999  1.00  0.00    -0.065 N 
HETATM    6  H   UNL     1       6.437  26.629  57.105  1.00  0.00     0.280 HD
HETATM    7  C   UNL     1       5.324  28.328  57.412  1.00  0.00     0.242 C 
HETATM    8  C   UNL     1       8.036  29.546  57.604  1.00  0.00     0.032 C 
HETATM    9  C   UNL     1       7.756  28.066  57.901  1.00  0.00     0.236 C 
ENDROOT
BRANCH   4  10
HETATM   10  C   UNL     1       6.142  27.106  54.532  1.00  0.00     0.156 C 
BRANCH  10  11
HETATM   11  N   UNL     1       6.442  25.678  54.491  1.00  0.00    -0.355 N 
HETATM   12  C   UNL     1       7.457  25.155  53.719  1.00  0.00     0.251 C 
HETATM   13  O   UNL     1       8.045  25.834  52.881  1.00  0.00    -0.268 OA
HETATM   14  H   UNL     1       6.115  25.111  55.271  1.00  0.00     0.162 HD
BRANCH  12  15
HETATM   15  C   UNL     1       7.786  23.723  53.914  1.00  0.00     0.034 A 
HETATM   16  C   UNL     1       8.089  23.222  55.186  1.00  0.00     0.056 A 
HETATM   17  C   UNL     1       8.336  21.870  55.290  1.00  0.00     0.106 A 
HETATM   18  C   UNL     1       8.296  21.034  54.200  1.00  0.00     0.105 A 
HETATM   19  O   UNL     1       8.624  21.208  56.442  1.00  0.00    -0.323 OA
HETATM   20  O   UNL     1       8.561  19.743  54.529  1.00  0.00    -0.323 OA
HETATM   21  C   UNL     1       8.001  21.499  52.937  1.00  0.00     0.041 A 
HETATM   22  C   UNL     1       8.754  19.851  55.955  1.00  0.00     0.352 A 
HETATM   23  C   UNL     1       7.734  22.865  52.795  1.00  0.00     0.020 A 
ENDBRANCH  12  15
ENDBRANCH  10  11
ENDBRANCH   4  10
BRANCH   1  24
HETATM   24  C   UNL     1       4.381  30.672  56.898  1.00  0.00     0.241 C 
BRANCH  24  25
HETATM   25  N   UNL     1       4.043  31.913  57.694  1.00  0.00    -0.074 N 
HETATM   26  C   UNL     1       4.593  33.151  57.014  1.00  0.00     0.269 C 
HETATM   27  H   UNL     1       3.011  32.062  57.721  1.00  0.00     0.279 HD
BRANCH  25  28
HETATM   28  C   UNL     1       4.436  31.864  59.171  1.00  0.00     0.240 C 
BRANCH  28  29
HETATM   29  C   UNL     1       5.486  32.923  59.539  1.00  0.00     0.087 C 
BRANCH  29  30
HETATM   30  C   UNL     1       6.607  32.409  60.418  1.00  0.00     0.035 A 
HETATM   31  N   UNL     1       6.312  32.096  61.715  1.00  0.00    -0.266 NA
HETATM   32  C   UNL     1       7.360  31.719  62.499  1.00  0.00     0.117 A 
HETATM   33  C   UNL     1       8.669  31.634  62.061  1.00  0.00     0.019 A 
HETATM   34  C   UNL     1       8.941  31.962  60.739  1.00  0.00     0.003 A 
HETATM   35  C   UNL     1       7.902  32.363  59.906  1.00  0.00     0.027 A 
ENDBRANCH  29  30
ENDBRANCH  28  29
ENDBRANCH  25  28
ENDBRANCH  24  25
ENDBRANCH   1  24
TORSDOF 8
ENDMDL
MODEL 10
REMARK VINA RESULT:      -8.8      3.167      4.795
REMARK  8 active torsions:
REMARK  status: ('A' for Active; 'I' for Inactive)
REMARK    1  A    between atoms: N_2  and  C_4 
REMARK    2  A    between atoms: N_2  and  C_27 
REMARK    3  A    between atoms: C_4  and  C_5 
REMARK    4  A    between atoms: C_8  and  C_9 
REMARK    5  A    between atoms: C_9  and  N_10 
REMARK       I    between atoms: N_10  and  C_11 
REMARK    6  A    between atoms: C_11  and  C_12 
REMARK    7  A    between atoms: C_27  and  C_28 
REMARK    8  A    between atoms: C_28  and  C_29 
ROOT
HETATM    1  C   UNL     1       5.936  26.533  54.833  1.00  0.00     0.041 C 
HETATM    2  C   UNL     1       5.361  26.305  56.265  1.00  0.00    -0.004 C 
HETATM    3  C   UNL     1       5.519  27.593  57.114  1.00  0.00     0.040 C 
HETATM    4  C   UNL     1       7.008  27.866  57.397  1.00  0.00     0.206 C 
HETATM    5  N   UNL     1       7.788  26.993  56.417  1.00  0.00    -0.065 N 
HETATM    6  H   UNL     1       8.780  27.309  56.431  1.00  0.00     0.280 HD
HETATM    7  C   UNL     1       7.335  27.147  54.979  1.00  0.00     0.242 C 
HETATM    8  C   UNL     1       6.213  25.191  56.926  1.00  0.00     0.032 C 
HETATM    9  C   UNL     1       7.705  25.548  56.857  1.00  0.00     0.236 C 
ENDROOT
BRANCH   4  10
HETATM   10  C   UNL     1       7.401  29.363  57.334  1.00  0.00     0.156 C 
BRANCH  10  11
HETATM   11  N   UNL     1       7.191  30.090  58.582  1.00  0.00    -0.355 N 
HETATM   12  C   UNL     1       8.234  30.564  59.348  1.00  0.00     0.251 C 
HETATM   13  O   UNL     1       9.398  30.243  59.123  1.00  0.00    -0.268 OA
HETATM   14  H   UNL     1       6.280  30.524  58.721  1.00  0.00     0.162 HD
BRANCH  12  15
HETATM   15  C   UNL     1       7.889  31.451  60.484  1.00  0.00     0.034 A 
HETATM   16  C   UNL     1       6.797  32.325  60.409  1.00  0.00     0.056 A 
HETATM   17  C   UNL     1       6.514  33.081  61.527  1.00  0.00     0.106 A 
HETATM   18  C   UNL     1       7.264  32.998  62.674  1.00  0.00     0.105 A 
HETATM   19  O   UNL     1       5.485  33.962  61.642  1.00  0.00    -0.323 OA
HETATM   20  O   UNL     1       6.807  33.820  63.653  1.00  0.00    -0.323 OA
HETATM   21  C   UNL     1       8.344  32.147  62.777  1.00  0.00     0.041 A 
HETATM   22  C   UNL     1       5.667  34.421  63.002  1.00  0.00     0.352 A 
HETATM   23  C   UNL     1       8.655  31.356  61.666  1.00  0.00     0.020 A 
ENDBRANCH  12  15
ENDBRANCH  10  11
ENDBRANCH   4  10
BRANCH   1  24
HETATM   24  C   UNL     1       4.986  27.353  53.935  1.00  0.00     0.241 C 
BRANCH  24  25
HETATM   25  N   UNL     1       4.538  26.646  52.676  1.00  0.00    -0.074 N 
HETATM   26  C   UNL     1       4.930  25.182  52.716  1.00  0.00     0.269 C 
HETATM   27  H   UNL     1       3.496  26.640  52.611  1.00  0.00     0.279 HD
BRANCH  25  28
HETATM   28  C   UNL     1       4.974  27.307  51.368  1.00  0.00     0.240 C 
BRANCH  28  29
HETATM   29  C   UNL     1       4.990  26.326  50.186  1.00  0.00     0.087 C 
BRANCH  29  30
HETATM   30  C   UNL     1       3.956  26.618  49.120  1.00  0.00     0.035 A 
HETATM   31  N   UNL     1       3.229  27.770  49.231  1.00  0.00    -0.266 NA
HETATM   32  C   UNL     1       2.250  27.958  48.303  1.00  0.00     0.117 A 
HETATM   33  C   UNL     1       1.966  27.072  47.280  1.00  0.00     0.019 A 
HETATM   34  C   UNL     1       2.717  25.908  47.194  1.00  0.00     0.003 A 
HETATM   35  C   UNL     1       3.720  25.670  48.127  1.00  0.00     0.027 A 
ENDBRANCH  29  30
ENDBRANCH  28  29
ENDBRANCH  25  28
ENDBRANCH  24  25
ENDBRANCH   1  24
TORSDOF 8
ENDMDL
