MODEL 1
REMARK VINA RESULT:      -8.5      0.000      0.000
REMARK  6 active torsions:
REMARK  status: ('A' for Active; 'I' for Inactive)
REMARK    1  A    between atoms: C_2  and  C_3 
REMARK    2  A    between atoms: C_3  and  N_4 
REMARK    3  A    between atoms: C_3  and  C_17 
REMARK    4  A    between atoms: N_4  and  C_5 
REMARK    5  A    between atoms: C_5  and  C_6 
REMARK       I    between atoms: C_6  and  N_7 
REMARK    6  A    between atoms: N_7  and  C_8 
ROOT
HETATM    1  N   UNL     1       7.577  25.815  55.775  1.00  0.00     0.101 N 
HETATM    2  H   UNL     1       8.592  25.896  55.698  1.00  0.00     0.317 HD
ENDROOT
BRANCH   1   3
HETATM    3  C   UNL     1       7.057  25.143  54.567  1.00  0.00     0.256 C 
BRANCH   3   4
HETATM    4  C   UNL     1       5.521  25.297  54.505  1.00  0.00     0.036 C 
HETATM    5  C   UNL     1       4.983  25.373  53.081  1.00  0.00     0.007 C 
ENDBRANCH   3   4
BRANCH   3   6
HETATM    6  C   UNL     1       7.438  23.670  54.508  1.00  0.00     0.013 A 
HETATM    7  C   UNL     1       7.849  23.105  53.291  1.00  0.00     0.127 A 
HETATM    8  F   UNL     1       7.889  23.860  52.184  1.00  0.00    -0.205 F 
HETATM    9  C   UNL     1       8.231  21.771  53.197  1.00  0.00     0.085 A 
HETATM   10  C   UNL     1       8.203  20.983  54.337  1.00  0.00     0.119 A 
HETATM   11  F   UNL     1       8.573  19.699  54.261  1.00  0.00    -0.206 F 
HETATM   12  C   UNL     1       7.794  21.506  55.559  1.00  0.00     0.043 A 
HETATM   13  C   UNL     1       7.409  22.845  55.647  1.00  0.00     0.015 A 
ENDBRANCH   3   6
ENDBRANCH   1   3
BRANCH   1  14
HETATM   14  C   UNL     1       7.011  27.175  55.931  1.00  0.00     0.372 C 
BRANCH  14  15
HETATM   15  C   UNL     1       7.718  27.918  57.073  1.00  0.00     0.250 C 
HETATM   16  N   UNL     1       8.015  29.225  56.743  1.00  0.00    -0.322 N 
HETATM   17  H   UNL     1       7.793  29.486  55.787  1.00  0.00     0.169 HD
HETATM   18  O   UNL     1       8.008  27.338  58.111  1.00  0.00    -0.271 OA
BRANCH  16  19
HETATM   19  C   UNL     1       8.591  30.185  57.550  1.00  0.00     0.085 A 
HETATM   20  C   UNL     1       8.062  31.174  58.433  1.00  0.00     0.079 A 
HETATM   21  C   UNL     1       6.656  31.530  58.751  1.00  0.00     0.075 C 
HETATM   22  N   UNL     1       9.041  31.895  59.001  1.00  0.00    -0.177 NA
HETATM   23  N   UNL     1      10.166  31.384  58.493  1.00  0.00    -0.280 N 
HETATM   24  H   UNL     1      11.047  31.782  58.797  1.00  0.00     0.189 HD
HETATM   25  C   UNL     1       9.960  30.366  57.606  1.00  0.00     0.052 A 
HETATM   26  C   UNL     1      11.088  29.674  56.942  1.00  0.00     0.072 C 
ENDBRANCH  16  19
ENDBRANCH  14  15
ENDBRANCH   1  14
TORSDOF 6
ENDMDL
MODEL 2
REMARK VINA RESULT:      -8.1      4.659      7.551
REMARK  6 active torsions:
REMARK  status: ('A' for Active; 'I' for Inactive)
REMARK    1  A    between atoms: C_2  and  C_3 
REMARK    2  A    between atoms: C_3  and  N_4 
REMARK    3  A    between atoms: C_3  and  C_17 
REMARK    4  A    between atoms: N_4  and  C_5 
REMARK    5  A    between atoms: C_5  and  C_6 
REMARK       I    between atoms: C_6  and  N_7 
REMARK    6  A    between atoms: N_7  and  C_8 
ROOT
HETATM    1  N   UNL     1       5.701  24.761  52.554  1.00  0.00     0.101 N 
HETATM    2  H   UNL     1       4.763  25.108  52.757  1.00  0.00     0.317 HD
ENDROOT
BRANCH   1   3
HETATM    3  C   UNL     1       6.469  24.694  53.815  1.00  0.00     0.256 C 
BRANCH   3   4
HETATM    4  C   UNL     1       7.520  25.827  53.845  1.00  0.00     0.036 C 
HETATM    5  C   UNL     1       7.355  26.765  55.036  1.00  0.00     0.007 C 
ENDBRANCH   3   4
BRANCH   3   6
HETATM    6  C   UNL     1       7.147  23.346  54.015  1.00  0.00     0.013 A 
HETATM    7  C   UNL     1       7.359  22.859  55.314  1.00  0.00     0.127 A 
HETATM    8  F   UNL     1       6.978  23.591  56.372  1.00  0.00    -0.205 F 
HETATM    9  C   UNL     1       7.949  21.622  55.543  1.00  0.00     0.085 A 
HETATM   10  C   UNL     1       8.338  20.853  54.457  1.00  0.00     0.119 A 
HETATM   11  F   UNL     1       8.904  19.657  54.664  1.00  0.00    -0.206 F 
HETATM   12  C   UNL     1       8.152  21.305  53.156  1.00  0.00     0.043 A 
HETATM   13  C   UNL     1       7.560  22.549  52.931  1.00  0.00     0.015 A 
ENDBRANCH   3   6
ENDBRANCH   1   3
BRANCH   1  14
HETATM   14  C   UNL     1       6.335  25.673  51.575  1.00  0.00     0.372 C 
BRANCH  14  15
HETATM   15  C   UNL     1       5.274  26.556  50.904  1.00  0.00     0.250 C 
HETATM   16  N   UNL     1       5.279  26.429  49.530  1.00  0.00    -0.322 N 
HETATM   17  H   UNL     1       6.015  25.837  49.156  1.00  0.00     0.169 HD
HETATM   18  O   UNL     1       4.574  27.308  51.570  1.00  0.00    -0.271 OA
BRANCH  16  19
HETATM   19  C   UNL     1       4.423  27.029  48.627  1.00  0.00     0.085 A 
HETATM   20  C   UNL     1       4.261  28.370  48.167  1.00  0.00     0.079 A 
HETATM   21  C   UNL     1       4.967  29.616  48.558  1.00  0.00     0.075 C 
HETATM   22  N   UNL     1       3.265  28.462  47.272  1.00  0.00    -0.177 NA
HETATM   23  N   UNL     1       2.800  27.214  47.165  1.00  0.00    -0.280 N 
HETATM   24  H   UNL     1       2.033  27.048  46.524  1.00  0.00     0.189 HD
HETATM   25  C   UNL     1       3.444  26.314  47.964  1.00  0.00     0.052 A 
HETATM   26  C   UNL     1       3.069  24.881  47.980  1.00  0.00     0.072 C 
ENDBRANCH  16  19
ENDBRANCH  14  15
ENDBRANCH   1  14
TORSDOF 6
ENDMDL
MODEL 3
REMARK VINA RESULT:      -8.1      4.346      7.240
REMARK  6 active torsions:
REMARK  status: ('A' for Active; 'I' for Inactive)
REMARK    1  A    between atoms: C_2  and  C_3 
REMARK    2  A    between atoms: C_3  and  N_4 
REMARK    3  A    between atoms: C_3  and  C_17 
REMARK    4  A    between atoms: N_4  and  C_5 
REMARK    5  A    between atoms: C_5  and  C_6 
REMARK       I    between atoms: C_6  and  N_7 
REMARK    6  A    between atoms: N_7  and  C_8 
ROOT
HETATM    1  N   UNL     1       4.965  25.242  53.658  1.00  0.00     0.101 N 
HETATM    2  H   UNL     1       4.076  25.127  54.147  1.00  0.00     0.317 HD
ENDROOT
BRANCH   1   3
HETATM    3  C   UNL     1       6.068  25.119  54.633  1.00  0.00     0.256 C 
BRANCH   3   4
HETATM    4  C   UNL     1       6.993  26.353  54.531  1.00  0.00     0.036 C 
HETATM    5  C   UNL     1       7.456  26.869  55.888  1.00  0.00     0.007 C 
ENDBRANCH   3   4
BRANCH   3   6
HETATM    6  C   UNL     1       6.875  23.843  54.446  1.00  0.00     0.013 A 
HETATM    7  C   UNL     1       7.335  23.138  55.568  1.00  0.00     0.127 A 
HETATM    8  F   UNL     1       7.076  23.601  56.800  1.00  0.00    -0.205 F 
HETATM    9  C   UNL     1       8.052  21.953  55.444  1.00  0.00     0.085 A 
HETATM   10  C   UNL     1       8.318  21.460  54.176  1.00  0.00     0.119 A 
HETATM   11  F   UNL     1       9.003  20.317  54.043  1.00  0.00    -0.206 F 
HETATM   12  C   UNL     1       7.885  22.134  53.040  1.00  0.00     0.043 A 
HETATM   13  C   UNL     1       7.167  23.324  53.170  1.00  0.00     0.015 A 
ENDBRANCH   3   6
ENDBRANCH   1   3
BRANCH   1  14
HETATM   14  C   UNL     1       4.965  26.567  52.996  1.00  0.00     0.372 C 
BRANCH  14  15
HETATM   15  C   UNL     1       5.300  26.418  51.506  1.00  0.00     0.250 C 
HETATM   16  N   UNL     1       4.333  26.971  50.692  1.00  0.00    -0.322 N 
HETATM   17  H   UNL     1       3.518  27.330  51.179  1.00  0.00     0.169 HD
HETATM   18  O   UNL     1       6.303  25.811  51.149  1.00  0.00    -0.271 OA
BRANCH  16  19
HETATM   19  C   UNL     1       4.347  27.066  49.315  1.00  0.00     0.085 A 
HETATM   20  C   UNL     1       3.852  26.234  48.266  1.00  0.00     0.079 A 
HETATM   21  C   UNL     1       3.165  24.919  48.322  1.00  0.00     0.075 C 
HETATM   22  N   UNL     1       4.121  26.756  47.060  1.00  0.00    -0.177 NA
HETATM   23  N   UNL     1       4.775  27.890  47.328  1.00  0.00    -0.280 N 
HETATM   24  H   UNL     1       5.073  28.461  46.546  1.00  0.00     0.189 HD
HETATM   25  C   UNL     1       4.954  28.122  48.662  1.00  0.00     0.052 A 
HETATM   26  C   UNL     1       5.655  29.331  49.152  1.00  0.00     0.072 C 
ENDBRANCH  16  19
ENDBRANCH  14  15
ENDBRANCH   1  14
TORSDOF 6
ENDMDL
MODEL 4
REMARK VINA RESULT:      -8.1      1.381      2.265
REMARK  6 active torsions:
REMARK  status: ('A' for Active; 'I' for Inactive)
REMARK    1  A    between atoms: C_2  and  C_3 
REMARK    2  A    between atoms: C_3  and  N_4 
REMARK    3  A    between atoms: C_3  and  C_17 
REMARK    4  A    between atoms: N_4  and  C_5 
REMARK    5  A    between atoms: C_5  and  C_6 
REMARK       I    between atoms: C_6  and  N_7 
REMARK    6  A    between atoms: N_7  and  C_8 
ROOT
HETATM    1  N   UNL     1       7.157  26.544  56.542  1.00  0.00     0.101 N 
HETATM    2  H   UNL     1       8.141  26.793  56.652  1.00  0.00     0.317 HD
ENDROOT
BRANCH   1   3
HETATM    3  C   UNL     1       6.861  26.391  55.103  1.00  0.00     0.256 C 
BRANCH   3   4
HETATM    4  C   UNL     1       5.366  26.687  54.845  1.00  0.00     0.036 C 
HETATM    5  C   UNL     1       5.136  27.617  53.659  1.00  0.00     0.007 C 
ENDBRANCH   3   4
BRANCH   3   6
HETATM    6  C   UNL     1       7.218  25.008  54.576  1.00  0.00     0.013 A 
HETATM    7  C   UNL     1       7.682  24.863  53.260  1.00  0.00     0.127 A 
HETATM    8  F   UNL     1       7.792  25.939  52.468  1.00  0.00    -0.205 F 
HETATM    9  C   UNL     1       8.046  23.623  52.746  1.00  0.00     0.085 A 
HETATM   10  C   UNL     1       7.945  22.504  53.559  1.00  0.00     0.119 A 
HETATM   11  F   UNL     1       8.298  21.305  53.078  1.00  0.00    -0.206 F 
HETATM   12  C   UNL     1       7.483  22.607  54.866  1.00  0.00     0.043 A 
HETATM   13  C   UNL     1       7.117  23.855  55.376  1.00  0.00     0.015 A 
ENDBRANCH   3   6
ENDBRANCH   1   3
BRANCH   1  14
HETATM   14  C   UNL     1       6.334  27.608  57.161  1.00  0.00     0.372 C 
BRANCH  14  15
HETATM   15  C   UNL     1       7.056  28.959  57.076  1.00  0.00     0.250 C 
HETATM   16  N   UNL     1       7.971  29.130  58.094  1.00  0.00    -0.322 N 
HETATM   17  H   UNL     1       7.989  28.384  58.784  1.00  0.00     0.169 HD
HETATM   18  O   UNL     1       6.761  29.772  56.208  1.00  0.00    -0.271 OA
BRANCH  16  19
HETATM   19  C   UNL     1       8.830  30.195  58.283  1.00  0.00     0.085 A 
HETATM   20  C   UNL     1      10.139  30.500  57.804  1.00  0.00     0.079 A 
HETATM   21  C   UNL     1      11.056  29.715  56.940  1.00  0.00     0.075 C 
HETATM   22  N   UNL     1      10.572  31.676  58.283  1.00  0.00    -0.177 NA
HETATM   23  N   UNL     1       9.569  32.110  59.051  1.00  0.00    -0.280 N 
HETATM   24  H   UNL     1       9.681  33.005  59.515  1.00  0.00     0.189 HD
HETATM   25  C   UNL     1       8.503  31.259  59.102  1.00  0.00     0.052 A 
HETATM   26  C   UNL     1       7.296  31.572  59.901  1.00  0.00     0.072 C 
ENDBRANCH  16  19
ENDBRANCH  14  15
ENDBRANCH   1  14
TORSDOF 6
ENDMDL
MODEL 5
REMARK VINA RESULT:      -8.0      3.989      7.082
REMARK  6 active torsions:
REMARK  status: ('A' for Active; 'I' for Inactive)
REMARK    1  A    between atoms: C_2  and  C_3 
REMARK    2  A    between atoms: C_3  and  N_4 
REMARK    3  A    between atoms: C_3  and  C_17 
REMARK    4  A    between atoms: N_4  and  C_5 
REMARK    5  A    between atoms: C_5  and  C_6 
REMARK       I    between atoms: C_6  and  N_7 
REMARK    6  A    between atoms: N_7  and  C_8 
ROOT
HETATM    1  N   UNL     1       5.855  25.258  56.351  1.00  0.00     0.101 N 
HETATM    2  H   UNL     1       5.735  24.482  55.699  1.00  0.00     0.317 HD
ENDROOT
BRANCH   1   3
HETATM    3  C   UNL     1       5.834  26.527  55.595  1.00  0.00     0.256 C 
BRANCH   3   4
HETATM    4  C   UNL     1       4.762  27.469  56.189  1.00  0.00     0.036 C 
HETATM    5  C   UNL     1       5.352  28.730  56.810  1.00  0.00     0.007 C 
ENDBRANCH   3   4
BRANCH   3   6
HETATM    6  C   UNL     1       5.582  26.318  54.109  1.00  0.00     0.013 A 
HETATM    7  C   UNL     1       6.069  27.251  53.181  1.00  0.00     0.127 A 
HETATM    8  F   UNL     1       6.741  28.330  53.609  1.00  0.00    -0.205 F 
HETATM    9  C   UNL     1       5.886  27.086  51.813  1.00  0.00     0.085 A 
HETATM   10  C   UNL     1       5.201  25.970  51.358  1.00  0.00     0.119 A 
HETATM   11  F   UNL     1       5.022  25.796  50.043  1.00  0.00    -0.206 F 
HETATM   12  C   UNL     1       4.697  25.026  52.247  1.00  0.00     0.043 A 
HETATM   13  C   UNL     1       4.883  25.199  53.620  1.00  0.00     0.015 A 
ENDBRANCH   3   6
ENDBRANCH   1   3
BRANCH   1  14
HETATM   14  C   UNL     1       7.136  25.070  57.070  1.00  0.00     0.372 C 
BRANCH  14  15
HETATM   15  C   UNL     1       7.993  24.010  56.365  1.00  0.00     0.250 C 
HETATM   16  N   UNL     1       7.244  23.194  55.541  1.00  0.00    -0.322 N 
HETATM   17  H   UNL     1       6.243  23.359  55.569  1.00  0.00     0.169 HD
HETATM   18  O   UNL     1       9.191  23.918  56.599  1.00  0.00    -0.271 OA
BRANCH  16  19
HETATM   19  C   UNL     1       7.702  22.184  54.719  1.00  0.00     0.085 A 
HETATM   20  C   UNL     1       7.998  20.804  54.927  1.00  0.00     0.079 A 
HETATM   21  C   UNL     1       7.944  19.982  56.162  1.00  0.00     0.075 C 
HETATM   22  N   UNL     1       8.433  20.221  53.799  1.00  0.00    -0.177 NA
HETATM   23  N   UNL     1       8.419  21.204  52.893  1.00  0.00    -0.280 N 
HETATM   24  H   UNL     1       8.710  20.980  51.948  1.00  0.00     0.189 HD
HETATM   25  C   UNL     1       8.005  22.407  53.389  1.00  0.00     0.052 A 
HETATM   26  C   UNL     1       7.922  23.612  52.533  1.00  0.00     0.072 C 
ENDBRANCH  16  19
ENDBRANCH  14  15
ENDBRANCH   1  14
TORSDOF 6
ENDMDL
MODEL 6
REMARK VINA RESULT:      -7.9      1.552      2.496
REMARK  6 active torsions:
REMARK  status: ('A' for Active; 'I' for Inactive)
REMARK    1  A    between atoms: C_2  and  C_3 
REMARK    2  A    between atoms: C_3  and  N_4 
REMARK    3  A    between atoms: C_3  and  C_17 
REMARK    4  A    between atoms: N_4  and  C_5 
REMARK    5  A    between atoms: C_5  and  C_6 
REMARK       I    between atoms: C_6  and  N_7 
REMARK    6  A    between atoms: N_7  and  C_8 
ROOT
HETATM    1  N   UNL     1       7.822  25.634  54.226  1.00  0.00     0.101 N 
HETATM    2  H   UNL     1       8.675  25.879  53.721  1.00  0.00     0.317 HD
ENDROOT
BRANCH   1   3
HETATM    3  C   UNL     1       7.096  24.596  53.466  1.00  0.00     0.256 C 
BRANCH   3   4
HETATM    4  C   UNL     1       5.574  24.782  53.653  1.00  0.00     0.036 C 
HETATM    5  C   UNL     1       4.802  24.757  52.338  1.00  0.00     0.007 C 
ENDBRANCH   3   4
BRANCH   3   6
HETATM    6  C   UNL     1       7.504  23.185  53.867  1.00  0.00     0.013 A 
HETATM    7  C   UNL     1       7.403  22.786  55.208  1.00  0.00     0.127 A 
HETATM    8  F   UNL     1       6.963  23.653  56.132  1.00  0.00    -0.205 F 
HETATM    9  C   UNL     1       7.738  21.499  55.615  1.00  0.00     0.085 A 
HETATM   10  C   UNL     1       8.185  20.591  54.668  1.00  0.00     0.119 A 
HETATM   11  F   UNL     1       8.506  19.347  55.045  1.00  0.00    -0.206 F 
HETATM   12  C   UNL     1       8.306  20.952  53.330  1.00  0.00     0.043 A 
HETATM   13  C   UNL     1       7.969  22.247  52.928  1.00  0.00     0.015 A 
ENDBRANCH   3   6
ENDBRANCH   1   3
BRANCH   1  14
HETATM   14  C   UNL     1       7.009  26.861  54.391  1.00  0.00     0.372 C 
BRANCH  14  15
HETATM   15  C   UNL     1       7.112  27.379  55.832  1.00  0.00     0.250 C 
HETATM   16  N   UNL     1       7.337  28.740  55.885  1.00  0.00    -0.322 N 
HETATM   17  H   UNL     1       7.471  29.188  54.983  1.00  0.00     0.169 HD
HETATM   18  O   UNL     1       7.051  26.607  56.780  1.00  0.00    -0.271 OA
BRANCH  16  19
HETATM   19  C   UNL     1       7.421  29.535  57.011  1.00  0.00     0.085 A 
HETATM   20  C   UNL     1       8.513  30.067  57.759  1.00  0.00     0.079 A 
HETATM   21  C   UNL     1       9.977  29.897  57.582  1.00  0.00     0.075 C 
HETATM   22  N   UNL     1       8.082  30.791  58.804  1.00  0.00    -0.177 NA
HETATM   23  N   UNL     1       6.750  30.720  58.728  1.00  0.00    -0.280 N 
HETATM   24  H   UNL     1       6.209  31.212  59.431  1.00  0.00     0.189 HD
HETATM   25  C   UNL     1       6.295  29.969  57.683  1.00  0.00     0.052 A 
HETATM   26  C   UNL     1       4.847  29.778  57.436  1.00  0.00     0.072 C 
ENDBRANCH  16  19
ENDBRANCH  14  15
ENDBRANCH   1  14
TORSDOF 6
ENDMDL
MODEL 7
REMARK VINA RESULT:      -7.8      3.000      7.407
REMARK  6 active torsions:
REMARK  status: ('A' for Active; 'I' for Inactive)
REMARK    1  A    between atoms: C_2  and  C_3 
REMARK    2  A    between atoms: C_3  and  N_4 
REMARK    3  A    between atoms: C_3  and  C_17 
REMARK    4  A    between atoms: N_4  and  C_5 
REMARK    5  A    between atoms: C_5  and  C_6 
REMARK       I    between atoms: C_6  and  N_7 
REMARK    6  A    between atoms: N_7  and  C_8 
ROOT
HETATM    1  N   UNL     1       7.704  26.220  57.786  1.00  0.00     0.101 N 
HETATM    2  H   UNL     1       6.736  25.902  57.723  1.00  0.00     0.317 HD
ENDROOT
BRANCH   1   3
HETATM    3  C   UNL     1       7.902  27.340  56.843  1.00  0.00     0.256 C 
BRANCH   3   4
HETATM    4  C   UNL     1       8.271  28.621  57.626  1.00  0.00     0.036 C 
HETATM    5  C   UNL     1       9.589  29.240  57.175  1.00  0.00     0.007 C 
ENDBRANCH   3   4
BRANCH   3   6
HETATM    6  C   UNL     1       6.680  27.594  55.972  1.00  0.00     0.013 A 
HETATM    7  C   UNL     1       6.693  27.205  54.624  1.00  0.00     0.127 A 
HETATM    8  F   UNL     1       7.787  26.627  54.106  1.00  0.00    -0.205 F 
HETATM    9  C   UNL     1       5.590  27.392  53.798  1.00  0.00     0.085 A 
HETATM   10  C   UNL     1       4.451  27.981  54.324  1.00  0.00     0.119 A 
HETATM   11  F   UNL     1       3.380  28.162  53.542  1.00  0.00    -0.206 F 
HETATM   12  C   UNL     1       4.402  28.386  55.654  1.00  0.00     0.043 A 
HETATM   13  C   UNL     1       5.514  28.197  56.478  1.00  0.00     0.015 A 
ENDBRANCH   3   6
ENDBRANCH   1   3
BRANCH   1  14
HETATM   14  C   UNL     1       8.592  25.077  57.473  1.00  0.00     0.372 C 
BRANCH  14  15
HETATM   15  C   UNL     1       7.916  24.137  56.466  1.00  0.00     0.250 C 
HETATM   16  N   UNL     1       8.831  23.431  55.712  1.00  0.00    -0.322 N 
HETATM   17  H   UNL     1       9.802  23.678  55.875  1.00  0.00     0.169 HD
HETATM   18  O   UNL     1       6.696  24.110  56.358  1.00  0.00    -0.271 OA
BRANCH  16  19
HETATM   19  C   UNL     1       8.569  22.463  54.763  1.00  0.00     0.085 A 
HETATM   20  C   UNL     1       8.137  22.508  53.404  1.00  0.00     0.079 A 
HETATM   21  C   UNL     1       7.775  23.664  52.546  1.00  0.00     0.075 C 
HETATM   22  N   UNL     1       8.013  21.275  52.889  1.00  0.00    -0.177 NA
HETATM   23  N   UNL     1       8.353  20.462  53.893  1.00  0.00    -0.280 N 
HETATM   24  H   UNL     1       8.337  19.463  53.719  1.00  0.00     0.189 HD
HETATM   25  C   UNL     1       8.682  21.115  55.046  1.00  0.00     0.052 A 
HETATM   26  C   UNL     1       9.088  20.380  56.266  1.00  0.00     0.072 C 
ENDBRANCH  16  19
ENDBRANCH  14  15
ENDBRANCH   1  14
TORSDOF 6
ENDMDL
MODEL 8
REMARK VINA RESULT:      -7.6      3.965      5.357
REMARK  6 active torsions:
REMARK  status: ('A' for Active; 'I' for Inactive)
REMARK    1  A    between atoms: C_2  and  C_3 
REMARK    2  A    between atoms: C_3  and  N_4 
REMARK    3  A    between atoms: C_3  and  C_17 
REMARK    4  A    between atoms: N_4  and  C_5 
REMARK    5  A    between atoms: C_5  and  C_6 
REMARK       I    between atoms: C_6  and  N_7 
REMARK    6  A    between atoms: N_7  and  C_8 
ROOT
HETATM    1  N   UNL     1       5.715  24.953  55.660  1.00  0.00     0.101 N 
HETATM    2  H   UNL     1       4.862  24.575  56.075  1.00  0.00     0.317 HD
ENDROOT
BRANCH   1   3
HETATM    3  C   UNL     1       6.871  24.172  56.146  1.00  0.00     0.256 C 
BRANCH   3   4
HETATM    4  C   UNL     1       8.060  25.118  56.425  1.00  0.00     0.036 C 
HETATM    5  C   UNL     1       9.069  24.538  57.409  1.00  0.00     0.007 C 
ENDBRANCH   3   4
BRANCH   3   6
HETATM    6  C   UNL     1       7.289  23.080  55.171  1.00  0.00     0.013 A 
HETATM    7  C   UNL     1       7.481  23.391  53.816  1.00  0.00     0.127 A 
HETATM    8  F   UNL     1       7.280  24.645  53.384  1.00  0.00    -0.205 F 
HETATM    9  C   UNL     1       7.889  22.432  52.896  1.00  0.00     0.085 A 
HETATM   10  C   UNL     1       8.109  21.135  53.333  1.00  0.00     0.119 A 
HETATM   11  F   UNL     1       8.507  20.202  52.459  1.00  0.00    -0.206 F 
HETATM   12  C   UNL     1       7.922  20.786  54.667  1.00  0.00     0.043 A 
HETATM   13  C   UNL     1       7.510  21.753  55.585  1.00  0.00     0.015 A 
ENDBRANCH   3   6
ENDBRANCH   1   3
BRANCH   1  14
HETATM   14  C   UNL     1       5.823  26.382  56.036  1.00  0.00     0.372 C 
BRANCH  14  15
HETATM   15  C   UNL     1       5.870  27.262  54.780  1.00  0.00     0.250 C 
HETATM   16  N   UNL     1       4.796  27.037  53.942  1.00  0.00    -0.322 N 
HETATM   17  H   UNL     1       4.176  26.288  54.232  1.00  0.00     0.169 HD
HETATM   18  O   UNL     1       6.815  28.015  54.579  1.00  0.00    -0.271 OA
BRANCH  16  19
HETATM   19  C   UNL     1       4.497  27.694  52.765  1.00  0.00     0.085 A 
HETATM   20  C   UNL     1       4.645  27.359  51.386  1.00  0.00     0.079 A 
HETATM   21  C   UNL     1       5.232  26.156  50.744  1.00  0.00     0.075 C 
HETATM   22  N   UNL     1       4.206  28.349  50.593  1.00  0.00    -0.177 NA
HETATM   23  N   UNL     1       3.792  29.294  51.442  1.00  0.00    -0.280 N 
HETATM   24  H   UNL     1       3.407  30.146  51.050  1.00  0.00     0.189 HD
HETATM   25  C   UNL     1       3.955  28.966  52.757  1.00  0.00     0.052 A 
HETATM   26  C   UNL     1       3.551  29.888  53.843  1.00  0.00     0.072 C 
ENDBRANCH  16  19
ENDBRANCH  14  15
ENDBRANCH   1  14
TORSDOF 6
ENDMDL
MODEL 9
REMARK VINA RESULT:      -7.6      3.924      7.980
REMARK  6 active torsions:
REMARK  status: ('A' for Active; 'I' for Inactive)
REMARK    1  A    between atoms: C_2  and  C_3 
REMARK    2  A    between atoms: C_3  and  N_4 
REMARK    3  A    between atoms: C_3  and  C_17 
REMARK    4  A    between atoms: N_4  and  C_5 
REMARK    5  A    between atoms: C_5  and  C_6 
REMARK       I    between atoms: C_6  and  N_7 
REMARK    6  A    between atoms: N_7  and  C_8 
ROOT
HETATM    1  N   UNL     1       6.758  26.939  56.606  1.00  0.00     0.101 N 
HETATM    2  H   UNL     1       7.568  26.981  55.987  1.00  0.00     0.317 HD
ENDROOT
BRANCH   1   3
HETATM    3  C   UNL     1       6.763  28.128  57.483  1.00  0.00     0.256 C 
BRANCH   3   4
HETATM    4  C   UNL     1       5.634  29.094  57.057  1.00  0.00     0.036 C 
HETATM    5  C   UNL     1       4.628  28.456  56.106  1.00  0.00     0.007 C 
ENDBRANCH   3   4
BRANCH   3   6
HETATM    6  C   UNL     1       8.101  28.853  57.477  1.00  0.00     0.013 A 
HETATM    7  C   UNL     1       8.387  29.796  58.475  1.00  0.00     0.127 A 
HETATM    8  F   UNL     1       7.475  30.067  59.419  1.00  0.00    -0.205 F 
HETATM    9  C   UNL     1       9.607  30.462  58.524  1.00  0.00     0.085 A 
HETATM   10  C   UNL     1      10.562  30.184  57.558  1.00  0.00     0.119 A 
HETATM   11  F   UNL     1      11.743  30.814  57.597  1.00  0.00    -0.206 F 
HETATM   12  C   UNL     1      10.313  29.260  56.549  1.00  0.00     0.043 A 
HETATM   13  C   UNL     1       9.085  28.596  56.504  1.00  0.00     0.015 A 
ENDBRANCH   3   6
ENDBRANCH   1   3
BRANCH   1  14
HETATM   14  C   UNL     1       6.831  25.682  57.387  1.00  0.00     0.372 C 
BRANCH  14  15
HETATM   15  C   UNL     1       7.682  24.643  56.645  1.00  0.00     0.250 C 
HETATM   16  N   UNL     1       6.934  23.879  55.773  1.00  0.00    -0.322 N 
HETATM   17  H   UNL     1       5.935  24.059  55.795  1.00  0.00     0.169 HD
HETATM   18  O   UNL     1       8.875  24.521  56.892  1.00  0.00    -0.271 OA
BRANCH  16  19
HETATM   19  C   UNL     1       7.388  22.900  54.911  1.00  0.00     0.085 A 
HETATM   20  C   UNL     1       7.837  21.559  55.094  1.00  0.00     0.079 A 
HETATM   21  C   UNL     1       8.006  20.759  56.334  1.00  0.00     0.075 C 
HETATM   22  N   UNL     1       8.193  20.999  53.928  1.00  0.00    -0.177 NA
HETATM   23  N   UNL     1       7.980  21.958  53.022  1.00  0.00    -0.280 N 
HETATM   24  H   UNL     1       8.180  21.745  52.051  1.00  0.00     0.189 HD
HETATM   25  C   UNL     1       7.512  23.125  53.553  1.00  0.00     0.052 A 
HETATM   26  C   UNL     1       7.215  24.301  52.703  1.00  0.00     0.072 C 
ENDBRANCH  16  19
ENDBRANCH  14  15
ENDBRANCH   1  14
TORSDOF 6
ENDMDL
MODEL 10
REMARK VINA RESULT:      -7.6      2.140      2.687
REMARK  6 active torsions:
REMARK  status: ('A' for Active; 'I' for Inactive)
REMARK    1  A    between atoms: C_2  and  C_3 
REMARK    2  A    between atoms: C_3  and  N_4 
REMARK    3  A    between atoms: C_3  and  C_17 
REMARK    4  A    between atoms: N_4  and  C_5 
REMARK    5  A    between atoms: C_5  and  C_6 
REMARK       I    between atoms: C_6  and  N_7 
REMARK    6  A    between atoms: N_7  and  C_8 
ROOT
HETATM    1  N   UNL     1       6.980  25.658  54.206  1.00  0.00     0.101 N 
HETATM    2  H   UNL     1       6.826  25.156  55.081  1.00  0.00     0.317 HD
ENDROOT
BRANCH   1   3
HETATM    3  C   UNL     1       7.960  24.911  53.391  1.00  0.00     0.256 C 
BRANCH   3   4
HETATM    4  C   UNL     1       7.547  24.964  51.902  1.00  0.00     0.036 C 
HETATM    5  C   UNL     1       6.125  25.471  51.693  1.00  0.00     0.007 C 
ENDBRANCH   3   4
BRANCH   3   6
HETATM    6  C   UNL     1       8.111  23.464  53.840  1.00  0.00     0.013 A 
HETATM    7  C   UNL     1       8.578  23.182  55.133  1.00  0.00     0.127 A 
HETATM    8  F   UNL     1       8.903  24.186  55.960  1.00  0.00    -0.205 F 
HETATM    9  C   UNL     1       8.706  21.876  55.595  1.00  0.00     0.085 A 
HETATM   10  C   UNL     1       8.364  20.830  54.752  1.00  0.00     0.119 A 
HETATM   11  F   UNL     1       8.478  19.569  55.185  1.00  0.00    -0.206 F 
HETATM   12  C   UNL     1       7.905  21.070  53.461  1.00  0.00     0.043 A 
HETATM   13  C   UNL     1       7.780  22.383  53.002  1.00  0.00     0.015 A 
ENDBRANCH   3   6
ENDBRANCH   1   3
BRANCH   1  14
HETATM   14  C   UNL     1       7.463  27.021  54.529  1.00  0.00     0.372 C 
BRANCH  14  15
HETATM   15  C   UNL     1       6.796  27.532  55.812  1.00  0.00     0.250 C 
HETATM   16  N   UNL     1       6.742  28.910  55.863  1.00  0.00    -0.322 N 
HETATM   17  H   UNL     1       7.204  29.385  55.093  1.00  0.00     0.169 HD
HETATM   18  O   UNL     1       6.429  26.750  56.681  1.00  0.00    -0.271 OA
BRANCH  16  19
HETATM   19  C   UNL     1       6.160  29.694  56.839  1.00  0.00     0.085 A 
HETATM   20  C   UNL     1       4.884  30.319  56.967  1.00  0.00     0.079 A 
HETATM   21  C   UNL     1       3.734  30.364  56.030  1.00  0.00     0.075 C 
HETATM   22  N   UNL     1       4.786  30.999  58.120  1.00  0.00    -0.177 NA
HETATM   23  N   UNL     1       5.970  30.816  58.713  1.00  0.00    -0.280 N 
HETATM   24  H   UNL     1       6.116  31.245  59.620  1.00  0.00     0.189 HD
HETATM   25  C   UNL     1       6.840  30.055  57.987  1.00  0.00     0.052 A 
HETATM   26  C   UNL     1       8.200  29.742  58.483  1.00  0.00     0.072 C 
ENDBRANCH  16  19
ENDBRANCH  14  15
ENDBRANCH   1  14
TORSDOF 6
ENDMDL
