MODEL 1
REMARK VINA RESULT:      -9.4      0.000      0.000
REMARK  6 active torsions:
REMARK  status: ('A' for Active; 'I' for Inactive)
REMARK    1  A    between atoms: C_7  and  S_8 
REMARK    2  A    between atoms: S_8  and  C_9 
REMARK    3  A    between atoms: C_9  and  C_10 
REMARK    4  A    between atoms: C_18  and  C_19 
REMARK    5  A    between atoms: C_26  and  C_27 
REMARK    6  A    between atoms: C_27  and  O_28 
ROOT
HETATM    1  C   UNL     1       2.985  31.287  54.650  1.00  0.00     0.070 C 
HETATM    2  C   UNL     1       3.838  30.070  54.909  1.00  0.00     0.037 A 
HETATM    3  N   UNL     1       3.819  29.102  53.912  1.00  0.00    -0.192 N 
HETATM    4  C   UNL     1       4.496  27.942  53.991  1.00  0.00     0.726 A 
HETATM    5  N   UNL     1       5.242  27.673  55.104  1.00  0.00    -0.082 N 
HETATM    6  N   UNL     1       5.811  26.450  55.030  1.00  0.00    -0.128 NA
HETATM    7  C   UNL     1       5.423  26.069  53.804  1.00  0.00     0.226 A 
HETATM    8  N   UNL     1       4.602  26.952  53.146  1.00  0.00    -0.035 NA
HETATM    9  C   UNL     1       5.389  28.597  56.238  1.00  0.00     0.203 A 
HETATM   10  C   UNL     1       4.574  29.867  56.030  1.00  0.00     0.070 A 
HETATM   11  H   UNL     1       3.267  29.290  53.079  1.00  0.00     0.184 HD
ENDROOT
BRANCH   7  12
HETATM   12  S   UNL     1       5.952  24.596  53.042  1.00  0.00    -0.083 SA
BRANCH  12  13
HETATM   13  C   UNL     1       7.602  24.380  53.760  1.00  0.00     0.123 C 
BRANCH  13  14
HETATM   14  C   UNL     1       7.864  22.930  54.105  1.00  0.00    -0.027 A 
HETATM   15  C   UNL     1       8.007  22.472  55.425  1.00  0.00     0.041 A 
HETATM   16 CL   UNL     1       7.939  23.542  56.780  1.00  0.00    -0.084 Cl
HETATM   17  C   UNL     1       8.213  21.113  55.686  1.00  0.00     0.024 A 
HETATM   18  C   UNL     1       8.279  20.195  54.638  1.00  0.00     0.002 A 
HETATM   19  C   UNL     1       8.137  20.633  53.325  1.00  0.00     0.001 A 
HETATM   20  C   UNL     1       7.927  21.989  53.060  1.00  0.00     0.009 A 
ENDBRANCH  13  14
ENDBRANCH  12  13
ENDBRANCH   7  12
BRANCH   9  21
HETATM   21  C   UNL     1       6.869  28.880  56.496  1.00  0.00    -0.028 A 
HETATM   22  C   UNL     1       7.385  28.962  57.802  1.00  0.00     0.011 A 
HETATM   23  C   UNL     1       8.743  29.210  58.015  1.00  0.00     0.024 A 
HETATM   24  C   UNL     1       9.598  29.371  56.928  1.00  0.00     0.034 A 
HETATM   25 CL   UNL     1      11.271  29.674  57.191  1.00  0.00    -0.084 Cl
HETATM   26  C   UNL     1       9.107  29.288  55.627  1.00  0.00     0.024 A 
HETATM   27  C   UNL     1       7.749  29.044  55.412  1.00  0.00     0.011 A 
ENDBRANCH   9  21
BRANCH  10  28
HETATM   28  C   UNL     1       4.666  30.893  57.088  1.00  0.00     0.293 C 
HETATM   29  O   UNL     1       5.379  31.882  57.026  1.00  0.00    -0.259 OA
BRANCH  28  30
HETATM   30  O   UNL     1       3.845  30.559  58.113  1.00  0.00    -0.323 OA
HETATM   31  C   UNL     1       3.661  31.615  59.061  1.00  0.00     0.213 C 
ENDBRANCH  28  30
ENDBRANCH  10  28
TORSDOF 6
ENDMDL
MODEL 2
REMARK VINA RESULT:      -9.1      3.738      7.730
REMARK  6 active torsions:
REMARK  status: ('A' for Active; 'I' for Inactive)
REMARK    1  A    between atoms: C_7  and  S_8 
REMARK    2  A    between atoms: S_8  and  C_9 
REMARK    3  A    between atoms: C_9  and  C_10 
REMARK    4  A    between atoms: C_18  and  C_19 
REMARK    5  A    between atoms: C_26  and  C_27 
REMARK    6  A    between atoms: C_27  and  O_28 
ROOT
HETATM    1  C   UNL     1       3.033  28.817  52.272  1.00  0.00     0.070 C 
HETATM    2  C   UNL     1       4.344  28.529  52.962  1.00  0.00     0.037 A 
HETATM    3  N   UNL     1       4.511  29.129  54.205  1.00  0.00    -0.192 N 
HETATM    4  C   UNL     1       5.628  29.004  54.944  1.00  0.00     0.726 A 
HETATM    5  N   UNL     1       6.671  28.262  54.468  1.00  0.00    -0.082 N 
HETATM    6  N   UNL     1       7.720  28.287  55.319  1.00  0.00    -0.128 NA
HETATM    7  C   UNL     1       7.206  29.006  56.327  1.00  0.00     0.226 A 
HETATM    8  N   UNL     1       5.932  29.476  56.123  1.00  0.00    -0.035 NA
HETATM    9  C   UNL     1       6.650  27.543  53.186  1.00  0.00     0.203 A 
HETATM   10  C   UNL     1       5.338  27.766  52.445  1.00  0.00     0.070 A 
HETATM   11  H   UNL     1       3.742  29.685  54.570  1.00  0.00     0.184 HD
ENDROOT
BRANCH   7  12
HETATM   12  S   UNL     1       8.040  29.292  57.828  1.00  0.00    -0.083 SA
BRANCH  12  13
HETATM   13  C   UNL     1       7.297  30.853  58.371  1.00  0.00     0.123 C 
BRANCH  13  14
HETATM   14  C   UNL     1       7.760  31.225  59.763  1.00  0.00    -0.027 A 
HETATM   15  C   UNL     1       7.084  32.153  60.572  1.00  0.00     0.041 A 
HETATM   16 CL   UNL     1       5.676  32.991  60.026  1.00  0.00    -0.084 Cl
HETATM   17  C   UNL     1       7.540  32.431  61.866  1.00  0.00     0.024 A 
HETATM   18  C   UNL     1       8.672  31.791  62.368  1.00  0.00     0.002 A 
HETATM   19  C   UNL     1       9.352  30.868  61.579  1.00  0.00     0.001 A 
HETATM   20  C   UNL     1       8.898  30.583  60.289  1.00  0.00     0.009 A 
ENDBRANCH  13  14
ENDBRANCH  12  13
ENDBRANCH   7  12
BRANCH   9  21
HETATM   21  C   UNL     1       6.958  26.062  53.409  1.00  0.00    -0.028 A 
HETATM   22  C   UNL     1       6.304  25.317  54.407  1.00  0.00     0.011 A 
HETATM   23  C   UNL     1       6.592  23.962  54.585  1.00  0.00     0.024 A 
HETATM   24  C   UNL     1       7.529  23.338  53.765  1.00  0.00     0.034 A 
HETATM   25 CL   UNL     1       7.882  21.668  53.984  1.00  0.00    -0.084 Cl
HETATM   26  C   UNL     1       8.183  24.057  52.768  1.00  0.00     0.024 A 
HETATM   27  C   UNL     1       7.900  25.414  52.591  1.00  0.00     0.011 A 
ENDBRANCH   9  21
BRANCH  10  28
HETATM   28  C   UNL     1       5.180  27.065  51.154  1.00  0.00     0.293 C 
HETATM   29  O   UNL     1       4.708  25.946  51.033  1.00  0.00    -0.259 OA
BRANCH  28  30
HETATM   30  O   UNL     1       5.635  27.857  50.152  1.00  0.00    -0.323 OA
HETATM   31  C   UNL     1       4.792  27.853  48.997  1.00  0.00     0.213 C 
ENDBRANCH  28  30
ENDBRANCH  10  28
TORSDOF 6
ENDMDL
MODEL 3
REMARK VINA RESULT:      -9.0      1.715      2.413
REMARK  6 active torsions:
REMARK  status: ('A' for Active; 'I' for Inactive)
REMARK    1  A    between atoms: C_7  and  S_8 
REMARK    2  A    between atoms: S_8  and  C_9 
REMARK    3  A    between atoms: C_9  and  C_10 
REMARK    4  A    between atoms: C_18  and  C_19 
REMARK    5  A    between atoms: C_26  and  C_27 
REMARK    6  A    between atoms: C_27  and  O_28 
ROOT
HETATM    1  C   UNL     1       3.695  28.749  53.813  1.00  0.00     0.070 C 
HETATM    2  C   UNL     1       4.593  28.182  54.885  1.00  0.00     0.037 A 
HETATM    3  N   UNL     1       4.992  26.864  54.697  1.00  0.00    -0.192 N 
HETATM    4  C   UNL     1       5.767  26.191  55.567  1.00  0.00     0.726 A 
HETATM    5  N   UNL     1       6.188  26.810  56.710  1.00  0.00    -0.082 N 
HETATM    6  N   UNL     1       6.913  25.972  57.483  1.00  0.00    -0.128 NA
HETATM    7  C   UNL     1       6.951  24.883  56.703  1.00  0.00     0.226 A 
HETATM    8  N   UNL     1       6.243  24.976  55.529  1.00  0.00    -0.035 NA
HETATM    9  C   UNL     1       5.877  28.205  57.052  1.00  0.00     0.203 A 
HETATM   10  C   UNL     1       4.995  28.853  55.993  1.00  0.00     0.070 A 
HETATM   11  H   UNL     1       4.684  26.391  53.850  1.00  0.00     0.184 HD
ENDROOT
BRANCH   7  12
HETATM   12  S   UNL     1       7.869  23.455  57.087  1.00  0.00    -0.083 SA
BRANCH  12  13
HETATM   13  C   UNL     1       9.094  23.433  55.751  1.00  0.00     0.123 C 
BRANCH  13  14
HETATM   14  C   UNL     1       8.810  22.319  54.767  1.00  0.00    -0.027 A 
HETATM   15  C   UNL     1       8.399  22.553  53.444  1.00  0.00     0.041 A 
HETATM   16 CL   UNL     1       8.139  24.149  52.834  1.00  0.00    -0.084 Cl
HETATM   17  C   UNL     1       8.184  21.484  52.568  1.00  0.00     0.024 A 
HETATM   18  C   UNL     1       8.375  20.171  52.996  1.00  0.00     0.002 A 
HETATM   19  C   UNL     1       8.783  19.923  54.303  1.00  0.00     0.001 A 
HETATM   20  C   UNL     1       9.003  20.987  55.180  1.00  0.00     0.009 A 
ENDBRANCH  13  14
ENDBRANCH  12  13
ENDBRANCH   7  12
BRANCH   9  21
HETATM   21  C   UNL     1       7.168  28.986  57.303  1.00  0.00    -0.028 A 
HETATM   22  C   UNL     1       8.212  29.003  56.361  1.00  0.00     0.011 A 
HETATM   23  C   UNL     1       9.378  29.733  56.605  1.00  0.00     0.024 A 
HETATM   24  C   UNL     1       9.508  30.457  57.788  1.00  0.00     0.034 A 
HETATM   25 CL   UNL     1      10.943  31.356  58.088  1.00  0.00    -0.084 Cl
HETATM   26  C   UNL     1       8.483  30.456  58.731  1.00  0.00     0.024 A 
HETATM   27  C   UNL     1       7.318  29.724  58.490  1.00  0.00     0.011 A 
ENDBRANCH   9  21
BRANCH  10  28
HETATM   28  C   UNL     1       4.639  30.272  56.204  1.00  0.00     0.293 C 
HETATM   29  O   UNL     1       5.216  31.210  55.680  1.00  0.00    -0.259 OA
BRANCH  28  30
HETATM   30  O   UNL     1       3.589  30.351  57.058  1.00  0.00    -0.323 OA
HETATM   31  C   UNL     1       3.826  31.217  58.171  1.00  0.00     0.213 C 
ENDBRANCH  28  30
ENDBRANCH  10  28
TORSDOF 6
ENDMDL
MODEL 4
REMARK VINA RESULT:      -8.7      4.739      6.296
REMARK  6 active torsions:
REMARK  status: ('A' for Active; 'I' for Inactive)
REMARK    1  A    between atoms: C_7  and  S_8 
REMARK    2  A    between atoms: S_8  and  C_9 
REMARK    3  A    between atoms: C_9  and  C_10 
REMARK    4  A    between atoms: C_18  and  C_19 
REMARK    5  A    between atoms: C_26  and  C_27 
REMARK    6  A    between atoms: C_27  and  O_28 
ROOT
HETATM    1  C   UNL     1       3.774  25.988  47.503  1.00  0.00     0.070 C 
HETATM    2  C   UNL     1       4.108  26.655  48.814  1.00  0.00     0.037 A 
HETATM    3  N   UNL     1       5.037  25.990  49.606  1.00  0.00    -0.192 N 
HETATM    4  C   UNL     1       5.427  26.426  50.817  1.00  0.00     0.726 A 
HETATM    5  N   UNL     1       4.890  27.575  51.324  1.00  0.00    -0.082 N 
HETATM    6  N   UNL     1       5.361  27.833  52.564  1.00  0.00    -0.128 NA
HETATM    7  C   UNL     1       6.240  26.830  52.709  1.00  0.00     0.226 A 
HETATM    8  N   UNL     1       6.293  25.939  51.665  1.00  0.00    -0.035 NA
HETATM    9  C   UNL     1       3.915  28.412  50.609  1.00  0.00     0.203 A 
HETATM   10  C   UNL     1       3.554  27.811  49.257  1.00  0.00     0.070 A 
HETATM   11  H   UNL     1       5.443  25.132  49.241  1.00  0.00     0.184 HD
ENDROOT
BRANCH   7  12
HETATM   12  S   UNL     1       7.299  26.670  54.082  1.00  0.00    -0.083 SA
BRANCH  12  13
HETATM   13  C   UNL     1       6.637  25.187  54.887  1.00  0.00     0.123 C 
BRANCH  13  14
HETATM   14  C   UNL     1       7.485  23.973  54.579  1.00  0.00    -0.027 A 
HETATM   15  C   UNL     1       8.518  23.528  55.420  1.00  0.00     0.041 A 
HETATM   16 CL   UNL     1       8.943  24.363  56.872  1.00  0.00    -0.084 Cl
HETATM   17  C   UNL     1       9.247  22.377  55.101  1.00  0.00     0.024 A 
HETATM   18  C   UNL     1       8.957  21.656  53.943  1.00  0.00     0.002 A 
HETATM   19  C   UNL     1       7.935  22.083  53.100  1.00  0.00     0.001 A 
HETATM   20  C   UNL     1       7.202  23.229  53.417  1.00  0.00     0.009 A 
ENDBRANCH  13  14
ENDBRANCH  12  13
ENDBRANCH   7  12
BRANCH   9  21
HETATM   21  C   UNL     1       4.434  29.846  50.498  1.00  0.00    -0.028 A 
HETATM   22  C   UNL     1       3.759  30.921  51.104  1.00  0.00     0.011 A 
HETATM   23  C   UNL     1       4.258  32.222  51.001  1.00  0.00     0.024 A 
HETATM   24  C   UNL     1       5.437  32.459  50.299  1.00  0.00     0.034 A 
HETATM   25 CL   UNL     1       6.051  34.061  50.173  1.00  0.00    -0.084 Cl
HETATM   26  C   UNL     1       6.122  31.407  49.696  1.00  0.00     0.024 A 
HETATM   27  C   UNL     1       5.624  30.106  49.795  1.00  0.00     0.011 A 
ENDBRANCH   9  21
BRANCH  10  28
HETATM   28  C   UNL     1       2.606  28.579  48.424  1.00  0.00     0.293 C 
HETATM   29  O   UNL     1       2.937  29.407  47.591  1.00  0.00    -0.259 OA
BRANCH  28  30
HETATM   30  O   UNL     1       1.337  28.216  48.733  1.00  0.00    -0.323 OA
HETATM   31  C   UNL     1       0.628  27.632  47.636  1.00  0.00     0.213 C 
ENDBRANCH  28  30
ENDBRANCH  10  28
TORSDOF 6
ENDMDL
MODEL 5
REMARK VINA RESULT:      -8.5      3.785      6.300
REMARK  6 active torsions:
REMARK  status: ('A' for Active; 'I' for Inactive)
REMARK    1  A    between atoms: C_7  and  S_8 
REMARK    2  A    between atoms: S_8  and  C_9 
REMARK    3  A    between atoms: C_9  and  C_10 
REMARK    4  A    between atoms: C_18  and  C_19 
REMARK    5  A    between atoms: C_26  and  C_27 
REMARK    6  A    between atoms: C_27  and  O_28 
ROOT
HETATM    1  C   UNL     1       1.936  28.681  49.952  1.00  0.00     0.070 C 
HETATM    2  C   UNL     1       3.075  28.656  50.941  1.00  0.00     0.037 A 
HETATM    3  N   UNL     1       2.841  29.315  52.142  1.00  0.00    -0.192 N 
HETATM    4  C   UNL     1       3.755  29.418  53.123  1.00  0.00     0.726 A 
HETATM    5  N   UNL     1       4.991  28.863  52.952  1.00  0.00    -0.082 N 
HETATM    6  N   UNL     1       5.790  29.104  54.014  1.00  0.00    -0.128 NA
HETATM    7  C   UNL     1       4.939  29.749  54.825  1.00  0.00     0.226 A 
HETATM    8  N   UNL     1       3.688  29.975  54.303  1.00  0.00    -0.035 NA
HETATM    9  C   UNL     1       5.396  28.112  51.755  1.00  0.00     0.203 A 
HETATM   10  C   UNL     1       4.278  28.070  50.721  1.00  0.00     0.070 A 
HETATM   11  H   UNL     1       1.924  29.735  52.282  1.00  0.00     0.184 HD
ENDROOT
BRANCH   7  12
HETATM   12  S   UNL     1       5.334  30.229  56.451  1.00  0.00    -0.083 SA
BRANCH  12  13
HETATM   13  C   UNL     1       4.970  28.716  57.380  1.00  0.00     0.123 C 
BRANCH  13  14
HETATM   14  C   UNL     1       6.005  27.646  57.109  1.00  0.00    -0.027 A 
HETATM   15  C   UNL     1       7.343  27.753  57.521  1.00  0.00     0.041 A 
HETATM   16 CL   UNL     1       7.940  29.150  58.344  1.00  0.00    -0.084 Cl
HETATM   17  C   UNL     1       8.248  26.715  57.272  1.00  0.00     0.024 A 
HETATM   18  C   UNL     1       7.832  25.560  56.611  1.00  0.00     0.002 A 
HETATM   19  C   UNL     1       6.509  25.437  56.198  1.00  0.00     0.001 A 
HETATM   20  C   UNL     1       5.602  26.469  56.448  1.00  0.00     0.009 A 
ENDBRANCH  13  14
ENDBRANCH  12  13
ENDBRANCH   7  12
BRANCH   9  21
HETATM   21  C   UNL     1       5.887  26.719  52.149  1.00  0.00    -0.028 A 
HETATM   22  C   UNL     1       7.253  26.381  52.108  1.00  0.00     0.011 A 
HETATM   23  C   UNL     1       7.681  25.107  52.486  1.00  0.00     0.024 A 
HETATM   24  C   UNL     1       6.753  24.160  52.913  1.00  0.00     0.034 A 
HETATM   25 CL   UNL     1       7.281  22.591  53.378  1.00  0.00    -0.084 Cl
HETATM   26  C   UNL     1       5.397  24.477  52.965  1.00  0.00     0.024 A 
HETATM   27  C   UNL     1       4.966  25.750  52.585  1.00  0.00     0.011 A 
ENDBRANCH   9  21
BRANCH  10  28
HETATM   28  C   UNL     1       4.550  27.312  49.483  1.00  0.00     0.293 C 
HETATM   29  O   UNL     1       4.071  26.219  49.226  1.00  0.00    -0.259 OA
BRANCH  28  30
HETATM   30  O   UNL     1       5.400  28.018  48.698  1.00  0.00    -0.323 OA
HETATM   31  C   UNL     1       4.775  28.570  47.535  1.00  0.00     0.213 C 
ENDBRANCH  28  30
ENDBRANCH  10  28
TORSDOF 6
ENDMDL
MODEL 6
REMARK VINA RESULT:      -8.5      1.925      2.405
REMARK  6 active torsions:
REMARK  status: ('A' for Active; 'I' for Inactive)
REMARK    1  A    between atoms: C_7  and  S_8 
REMARK    2  A    between atoms: S_8  and  C_9 
REMARK    3  A    between atoms: C_9  and  C_10 
REMARK    4  A    between atoms: C_18  and  C_19 
REMARK    5  A    between atoms: C_26  and  C_27 
REMARK    6  A    between atoms: C_27  and  O_28 
ROOT
HETATM    1  C   UNL     1       4.181  30.276  52.678  1.00  0.00     0.070 C 
HETATM    2  C   UNL     1       4.585  29.559  53.943  1.00  0.00     0.037 A 
HETATM    3  N   UNL     1       4.996  28.242  53.780  1.00  0.00    -0.192 N 
HETATM    4  C   UNL     1       5.362  27.447  54.801  1.00  0.00     0.726 A 
HETATM    5  N   UNL     1       5.327  27.932  56.078  1.00  0.00    -0.082 N 
HETATM    6  N   UNL     1       5.680  26.985  56.974  1.00  0.00    -0.128 NA
HETATM    7  C   UNL     1       5.989  25.970  56.154  1.00  0.00     0.226 A 
HETATM    8  N   UNL     1       5.789  26.213  54.817  1.00  0.00    -0.035 NA
HETATM    9  C   UNL     1       4.940  29.308  56.423  1.00  0.00     0.203 A 
HETATM   10  C   UNL     1       4.546  30.102  55.185  1.00  0.00     0.070 A 
HETATM   11  H   UNL     1       5.026  27.868  52.834  1.00  0.00     0.184 HD
ENDROOT
BRANCH   7  12
HETATM   12  S   UNL     1       6.657  24.459  56.703  1.00  0.00    -0.083 SA
BRANCH  12  13
HETATM   13  C   UNL     1       8.086  24.267  55.605  1.00  0.00     0.123 C 
BRANCH  13  14
HETATM   14  C   UNL     1       8.021  22.961  54.844  1.00  0.00    -0.027 A 
HETATM   15  C   UNL     1       7.988  22.893  53.442  1.00  0.00     0.041 A 
HETATM   16 CL   UNL     1       7.976  24.313  52.456  1.00  0.00    -0.084 Cl
HETATM   17  C   UNL     1       7.963  21.655  52.791  1.00  0.00     0.024 A 
HETATM   18  C   UNL     1       7.969  20.471  53.527  1.00  0.00     0.002 A 
HETATM   19  C   UNL     1       8.003  20.521  54.917  1.00  0.00     0.001 A 
HETATM   20  C   UNL     1       8.033  21.755  55.571  1.00  0.00     0.009 A 
ENDBRANCH  13  14
ENDBRANCH  12  13
ENDBRANCH   7  12
BRANCH   9  21
HETATM   21  C   UNL     1       6.053  29.980  57.227  1.00  0.00    -0.028 A 
HETATM   22  C   UNL     1       5.767  30.922  58.233  1.00  0.00     0.011 A 
HETATM   23  C   UNL     1       6.799  31.515  58.964  1.00  0.00     0.024 A 
HETATM   24  C   UNL     1       8.123  31.169  58.703  1.00  0.00     0.034 A 
HETATM   25 CL   UNL     1       9.393  31.899  59.605  1.00  0.00    -0.084 Cl
HETATM   26  C   UNL     1       8.425  30.235  57.716  1.00  0.00     0.024 A 
HETATM   27  C   UNL     1       7.395  29.643  56.980  1.00  0.00     0.011 A 
ENDBRANCH   9  21
BRANCH  10  28
HETATM   28  C   UNL     1       4.170  31.515  55.396  1.00  0.00     0.293 C 
HETATM   29  O   UNL     1       4.896  32.464  55.153  1.00  0.00    -0.259 OA
BRANCH  28  30
HETATM   30  O   UNL     1       2.910  31.576  55.894  1.00  0.00    -0.323 OA
HETATM   31  C   UNL     1       2.030  32.392  55.117  1.00  0.00     0.213 C 
ENDBRANCH  28  30
ENDBRANCH  10  28
TORSDOF 6
ENDMDL
MODEL 7
REMARK VINA RESULT:      -8.4      2.410      3.038
REMARK  6 active torsions:
REMARK  status: ('A' for Active; 'I' for Inactive)
REMARK    1  A    between atoms: C_7  and  S_8 
REMARK    2  A    between atoms: S_8  and  C_9 
REMARK    3  A    between atoms: C_9  and  C_10 
REMARK    4  A    between atoms: C_18  and  C_19 
REMARK    5  A    between atoms: C_26  and  C_27 
REMARK    6  A    between atoms: C_27  and  O_28 
ROOT
HETATM    1  C   UNL     1       4.414  32.887  54.289  1.00  0.00     0.070 C 
HETATM    2  C   UNL     1       4.772  31.814  55.289  1.00  0.00     0.037 A 
HETATM    3  N   UNL     1       5.082  30.572  54.749  1.00  0.00    -0.192 N 
HETATM    4  C   UNL     1       5.393  29.496  55.494  1.00  0.00     0.726 A 
HETATM    5  N   UNL     1       5.403  29.601  56.856  1.00  0.00    -0.082 N 
HETATM    6  N   UNL     1       5.690  28.416  57.438  1.00  0.00    -0.128 NA
HETATM    7  C   UNL     1       5.916  27.656  56.357  1.00  0.00     0.226 A 
HETATM    8  N   UNL     1       5.726  28.282  55.149  1.00  0.00    -0.035 NA
HETATM    9  C   UNL     1       5.123  30.845  57.587  1.00  0.00     0.203 A 
HETATM   10  C   UNL     1       4.782  31.984  56.634  1.00  0.00     0.070 A 
HETATM   11  H   UNL     1       5.077  30.480  53.736  1.00  0.00     0.184 HD
ENDROOT
BRANCH   7  12
HETATM   12  S   UNL     1       6.472  26.008  56.438  1.00  0.00    -0.083 SA
BRANCH  12  13
HETATM   13  C   UNL     1       6.421  25.515  54.695  1.00  0.00     0.123 C 
BRANCH  13  14
HETATM   14  C   UNL     1       7.079  24.169  54.487  1.00  0.00    -0.027 A 
HETATM   15  C   UNL     1       7.689  23.793  53.279  1.00  0.00     0.041 A 
HETATM   16 CL   UNL     1       7.701  24.831  51.897  1.00  0.00    -0.084 Cl
HETATM   17  C   UNL     1       8.313  22.547  53.156  1.00  0.00     0.024 A 
HETATM   18  C   UNL     1       8.339  21.661  54.232  1.00  0.00     0.002 A 
HETATM   19  C   UNL     1       7.740  22.019  55.437  1.00  0.00     0.001 A 
HETATM   20  C   UNL     1       7.120  23.264  55.565  1.00  0.00     0.009 A 
ENDBRANCH  13  14
ENDBRANCH  12  13
ENDBRANCH   7  12
BRANCH   9  21
HETATM   21  C   UNL     1       6.288  31.183  58.517  1.00  0.00    -0.028 A 
HETATM   22  C   UNL     1       6.079  31.795  59.766  1.00  0.00     0.011 A 
HETATM   23  C   UNL     1       7.157  32.083  60.606  1.00  0.00     0.024 A 
HETATM   24  C   UNL     1       8.452  31.756  60.210  1.00  0.00     0.034 A 
HETATM   25 CL   UNL     1       9.779  32.109  61.246  1.00  0.00    -0.084 Cl
HETATM   26  C   UNL     1       8.679  31.144  58.980  1.00  0.00     0.024 A 
HETATM   27  C   UNL     1       7.602  30.859  58.136  1.00  0.00     0.011 A 
ENDBRANCH   9  21
BRANCH  10  28
HETATM   28  C   UNL     1       4.514  33.301  57.246  1.00  0.00     0.293 C 
HETATM   29  O   UNL     1       5.290  34.242  57.221  1.00  0.00    -0.259 OA
BRANCH  28  30
HETATM   30  O   UNL     1       3.289  33.288  57.826  1.00  0.00    -0.323 OA
HETATM   31  C   UNL     1       3.088  34.356  58.757  1.00  0.00     0.213 C 
ENDBRANCH  28  30
ENDBRANCH  10  28
TORSDOF 6
ENDMDL
MODEL 8
REMARK VINA RESULT:      -8.4      4.659      7.529
REMARK  6 active torsions:
REMARK  status: ('A' for Active; 'I' for Inactive)
REMARK    1  A    between atoms: C_7  and  S_8 
REMARK    2  A    between atoms: S_8  and  C_9 
REMARK    3  A    between atoms: C_9  and  C_10 
REMARK    4  A    between atoms: C_18  and  C_19 
REMARK    5  A    between atoms: C_26  and  C_27 
REMARK    6  A    between atoms: C_27  and  O_28 
ROOT
HETATM    1  C   UNL     1       8.354  28.873  55.908  1.00  0.00     0.070 C 
HETATM    2  C   UNL     1       7.549  27.906  55.074  1.00  0.00     0.037 A 
HETATM    3  N   UNL     1       7.175  28.367  53.817  1.00  0.00    -0.192 N 
HETATM    4  C   UNL     1       6.431  27.650  52.955  1.00  0.00     0.726 A 
HETATM    5  N   UNL     1       6.000  26.404  53.313  1.00  0.00    -0.082 N 
HETATM    6  N   UNL     1       5.231  25.854  52.348  1.00  0.00    -0.128 NA
HETATM    7  C   UNL     1       5.305  26.800  51.401  1.00  0.00     0.226 A 
HETATM    8  N   UNL     1       6.018  27.923  51.747  1.00  0.00    -0.035 NA
HETATM    9  C   UNL     1       6.326  25.758  54.593  1.00  0.00     0.203 A 
HETATM   10  C   UNL     1       7.166  26.670  55.478  1.00  0.00     0.070 A 
HETATM   11  H   UNL     1       7.488  29.293  53.539  1.00  0.00     0.184 HD
ENDROOT
BRANCH   7  12
HETATM   12  S   UNL     1       4.612  26.630  49.814  1.00  0.00    -0.083 SA
BRANCH  12  13
HETATM   13  C   UNL     1       3.707  28.190  49.636  1.00  0.00     0.123 C 
BRANCH  13  14
HETATM   14  C   UNL     1       2.617  28.074  48.594  1.00  0.00    -0.027 A 
HETATM   15  C   UNL     1       1.761  29.137  48.259  1.00  0.00     0.041 A 
HETATM   16 CL   UNL     1       1.854  30.671  49.050  1.00  0.00    -0.084 Cl
HETATM   17  C   UNL     1       0.793  28.983  47.261  1.00  0.00     0.024 A 
HETATM   18  C   UNL     1       0.664  27.771  46.585  1.00  0.00     0.002 A 
HETATM   19  C   UNL     1       1.505  26.708  46.903  1.00  0.00     0.001 A 
HETATM   20  C   UNL     1       2.476  26.859  47.896  1.00  0.00     0.009 A 
ENDBRANCH  13  14
ENDBRANCH  12  13
ENDBRANCH   7  12
BRANCH   9  21
HETATM   21  C   UNL     1       6.988  24.403  54.344  1.00  0.00    -0.028 A 
HETATM   22  C   UNL     1       6.812  23.324  55.230  1.00  0.00     0.011 A 
HETATM   23  C   UNL     1       7.416  22.090  54.976  1.00  0.00     0.024 A 
HETATM   24  C   UNL     1       8.195  21.921  53.834  1.00  0.00     0.034 A 
HETATM   25 CL   UNL     1       8.938  20.401  53.522  1.00  0.00    -0.084 Cl
HETATM   26  C   UNL     1       8.377  22.975  52.943  1.00  0.00     0.024 A 
HETATM   27  C   UNL     1       7.777  24.211  53.196  1.00  0.00     0.011 A 
ENDBRANCH   9  21
BRANCH  10  28
HETATM   28  C   UNL     1       7.589  26.120  56.782  1.00  0.00     0.293 C 
HETATM   29  O   UNL     1       6.877  26.072  57.772  1.00  0.00    -0.259 OA
BRANCH  28  30
HETATM   30  O   UNL     1       8.871  25.688  56.694  1.00  0.00    -0.323 OA
HETATM   31  C   UNL     1       9.110  24.469  57.403  1.00  0.00     0.213 C 
ENDBRANCH  28  30
ENDBRANCH  10  28
TORSDOF 6
ENDMDL
MODEL 9
REMARK VINA RESULT:      -8.4      3.779      8.376
REMARK  6 active torsions:
REMARK  status: ('A' for Active; 'I' for Inactive)
REMARK    1  A    between atoms: C_7  and  S_8 
REMARK    2  A    between atoms: S_8  and  C_9 
REMARK    3  A    between atoms: C_9  and  C_10 
REMARK    4  A    between atoms: C_18  and  C_19 
REMARK    5  A    between atoms: C_26  and  C_27 
REMARK    6  A    between atoms: C_27  and  O_28 
ROOT
HETATM    1  C   UNL     1       9.565  24.481  57.069  1.00  0.00     0.070 C 
HETATM    2  C   UNL     1       8.268  25.172  56.727  1.00  0.00     0.037 A 
HETATM    3  N   UNL     1       8.068  26.405  57.335  1.00  0.00    -0.192 N 
HETATM    4  C   UNL     1       6.956  27.144  57.167  1.00  0.00     0.726 A 
HETATM    5  N   UNL     1       5.951  26.676  56.369  1.00  0.00    -0.082 N 
HETATM    6  N   UNL     1       4.900  27.523  56.355  1.00  0.00    -0.128 NA
HETATM    7  C   UNL     1       5.375  28.523  57.112  1.00  0.00     0.226 A 
HETATM    8  N   UNL     1       6.626  28.315  57.640  1.00  0.00    -0.035 NA
HETATM    9  C   UNL     1       6.011  25.404  55.634  1.00  0.00     0.203 A 
HETATM   10  C   UNL     1       7.313  24.663  55.910  1.00  0.00     0.070 A 
HETATM   11  H   UNL     1       8.808  26.765  57.933  1.00  0.00     0.184 HD
ENDROOT
BRANCH   7  12
HETATM   12  S   UNL     1       4.523  30.018  57.378  1.00  0.00    -0.083 SA
BRANCH  12  13
HETATM   13  C   UNL     1       5.875  31.225  57.334  1.00  0.00     0.123 C 
BRANCH  13  14
HETATM   14  C   UNL     1       6.166  31.770  58.715  1.00  0.00    -0.027 A 
HETATM   15  C   UNL     1       7.443  31.732  59.299  1.00  0.00     0.041 A 
HETATM   16 CL   UNL     1       8.796  31.013  58.500  1.00  0.00    -0.084 Cl
HETATM   17  C   UNL     1       7.661  32.283  60.566  1.00  0.00     0.024 A 
HETATM   18  C   UNL     1       6.612  32.878  61.267  1.00  0.00     0.002 A 
HETATM   19  C   UNL     1       5.342  32.925  60.702  1.00  0.00     0.001 A 
HETATM   20  C   UNL     1       5.121  32.380  59.435  1.00  0.00     0.009 A 
ENDBRANCH  13  14
ENDBRANCH  12  13
ENDBRANCH   7  12
BRANCH   9  21
HETATM   21  C   UNL     1       5.774  25.647  54.143  1.00  0.00    -0.028 A 
HETATM   22  C   UNL     1       4.870  24.862  53.405  1.00  0.00     0.011 A 
HETATM   23  C   UNL     1       4.659  25.110  52.046  1.00  0.00     0.024 A 
HETATM   24  C   UNL     1       5.343  26.146  51.415  1.00  0.00     0.034 A 
HETATM   25 CL   UNL     1       5.082  26.451  49.743  1.00  0.00    -0.084 Cl
HETATM   26  C   UNL     1       6.238  26.937  52.131  1.00  0.00     0.024 A 
HETATM   27  C   UNL     1       6.453  26.689  53.489  1.00  0.00     0.011 A 
ENDBRANCH   9  21
BRANCH  10  28
HETATM   28  C   UNL     1       7.509  23.383  55.200  1.00  0.00     0.293 C 
HETATM   29  O   UNL     1       7.117  22.302  55.609  1.00  0.00    -0.259 OA
BRANCH  28  30
HETATM   30  O   UNL     1       8.181  23.606  54.044  1.00  0.00    -0.323 OA
HETATM   31  C   UNL     1       7.848  22.683  53.004  1.00  0.00     0.213 C 
ENDBRANCH  28  30
ENDBRANCH  10  28
TORSDOF 6
ENDMDL
MODEL 10
REMARK VINA RESULT:      -8.3      4.630      6.538
REMARK  6 active torsions:
REMARK  status: ('A' for Active; 'I' for Inactive)
REMARK    1  A    between atoms: C_7  and  S_8 
REMARK    2  A    between atoms: S_8  and  C_9 
REMARK    3  A    between atoms: C_9  and  C_10 
REMARK    4  A    between atoms: C_18  and  C_19 
REMARK    5  A    between atoms: C_26  and  C_27 
REMARK    6  A    between atoms: C_27  and  O_28 
ROOT
HETATM    1  C   UNL     1       4.280  32.492  52.367  1.00  0.00     0.070 C 
HETATM    2  C   UNL     1       4.556  31.059  51.985  1.00  0.00     0.037 A 
HETATM    3  N   UNL     1       4.613  30.157  53.041  1.00  0.00    -0.192 N 
HETATM    4  C   UNL     1       4.878  28.847  52.886  1.00  0.00     0.726 A 
HETATM    5  N   UNL     1       5.117  28.353  51.635  1.00  0.00    -0.082 N 
HETATM    6  N   UNL     1       5.411  27.035  51.675  1.00  0.00    -0.128 NA
HETATM    7  C   UNL     1       5.254  26.785  52.983  1.00  0.00     0.226 A 
HETATM    8  N   UNL     1       4.945  27.877  53.757  1.00  0.00    -0.035 NA
HETATM    9  C   UNL     1       5.072  29.163  50.409  1.00  0.00     0.203 A 
HETATM   10  C   UNL     1       4.767  30.623  50.718  1.00  0.00     0.070 A 
HETATM   11  H   UNL     1       4.438  30.513  53.978  1.00  0.00     0.184 HD
ENDROOT
BRANCH   7  12
HETATM   12  S   UNL     1       5.366  25.193  53.679  1.00  0.00    -0.083 SA
BRANCH  12  13
HETATM   13  C   UNL     1       7.149  24.877  53.593  1.00  0.00     0.123 C 
BRANCH  13  14
HETATM   14  C   UNL     1       7.468  23.442  53.951  1.00  0.00    -0.027 A 
HETATM   15  C   UNL     1       7.525  22.978  55.276  1.00  0.00     0.041 A 
HETATM   16 CL   UNL     1       7.275  24.028  56.625  1.00  0.00    -0.084 Cl
HETATM   17  C   UNL     1       7.790  21.632  55.545  1.00  0.00     0.024 A 
HETATM   18  C   UNL     1       8.002  20.731  54.502  1.00  0.00     0.002 A 
HETATM   19  C   UNL     1       7.947  21.175  53.184  1.00  0.00     0.001 A 
HETATM   20  C   UNL     1       7.678  22.518  52.910  1.00  0.00     0.009 A 
ENDBRANCH  13  14
ENDBRANCH  12  13
ENDBRANCH   7  12
BRANCH   9  21
HETATM   21  C   UNL     1       4.088  28.553  49.411  1.00  0.00    -0.028 A 
HETATM   22  C   UNL     1       4.527  27.954  48.216  1.00  0.00     0.011 A 
HETATM   23  C   UNL     1       3.610  27.390  47.325  1.00  0.00     0.024 A 
HETATM   24  C   UNL     1       2.250  27.414  47.622  1.00  0.00     0.034 A 
HETATM   25 CL   UNL     1       1.122  26.719  46.524  1.00  0.00    -0.084 Cl
HETATM   26  C   UNL     1       1.796  27.997  48.802  1.00  0.00     0.024 A 
HETATM   27  C   UNL     1       2.710  28.565  49.693  1.00  0.00     0.011 A 
ENDBRANCH   9  21
BRANCH  10  28
HETATM   28  C   UNL     1       4.660  31.536  49.562  1.00  0.00     0.293 C 
HETATM   29  O   UNL     1       3.605  31.933  49.095  1.00  0.00    -0.259 OA
BRANCH  28  30
HETATM   30  O   UNL     1       5.902  31.851  49.119  1.00  0.00    -0.323 OA
HETATM   31  C   UNL     1       5.949  33.074  48.379  1.00  0.00     0.213 C 
ENDBRANCH  28  30
ENDBRANCH  10  28
TORSDOF 6
ENDMDL
