MODEL 1
REMARK VINA RESULT:      -8.9      0.000      0.000
REMARK  3 active torsions:
REMARK  status: ('A' for Active; 'I' for Inactive)
REMARK    1  A    between atoms: C_3  and  N_4 
REMARK       I    between atoms: N_4  and  C_5 
REMARK       I    between atoms: C_5  and  N_6 
REMARK    2  A    between atoms: N_6  and  C_7 
REMARK    3  A    between atoms: C_7  and  C_8 
ROOT
HETATM    1  C   UNL     1       7.421  24.343  55.667  1.00  0.00    -0.036 A 
HETATM    2  C   UNL     1       7.842  23.153  56.278  1.00  0.00     0.011 A 
HETATM    3  C   UNL     1       8.129  22.018  55.512  1.00  0.00     0.023 A 
HETATM    4  C   UNL     1       7.993  22.051  54.122  1.00  0.00     0.044 A 
HETATM    5  C   UNL     1       8.293  20.890  53.338  1.00  0.00     0.099 C 
HETATM    6  N   UNL     1       8.541  19.950  52.702  1.00  0.00    -0.191 NA
HETATM    7  C   UNL     1       7.562  23.223  53.500  1.00  0.00     0.023 A 
HETATM    8  C   UNL     1       7.276  24.357  54.266  1.00  0.00     0.011 A 
ENDROOT
BRANCH   1   9
HETATM    9  C   UNL     1       7.109  25.617  56.435  1.00  0.00     0.115 C 
HETATM   10  C   UNL     1       5.727  25.680  57.094  1.00  0.00     0.037 C 
BRANCH   9  11
HETATM   11  N   UNL     1       7.277  26.767  55.552  1.00  0.00    -0.335 N 
HETATM   12  C   UNL     1       7.521  28.056  55.932  1.00  0.00     0.321 C 
HETATM   13  N   UNL     1       8.294  28.189  57.052  1.00  0.00    -0.307 N 
HETATM   14  O   UNL     1       7.074  28.967  55.245  1.00  0.00    -0.247 OA
HETATM   15  H   UNL     1       8.885  27.399  57.248  1.00  0.00     0.170 HD
HETATM   16  H   UNL     1       6.736  26.740  54.696  1.00  0.00     0.165 HD
BRANCH  13  17
HETATM   17  C   UNL     1       8.575  29.382  57.755  1.00  0.00     0.059 A 
HETATM   18  C   UNL     1       9.837  29.988  57.613  1.00  0.00    -0.032 A 
HETATM   19  C   UNL     1      10.898  29.446  56.697  1.00  0.00     0.050 C 
HETATM   20  C   UNL     1      10.106  31.161  58.334  1.00  0.00     0.028 A 
HETATM   21  C   UNL     1       9.131  31.676  59.171  1.00  0.00     0.117 A 
HETATM   22  N   UNL     1       7.920  31.115  59.339  1.00  0.00    -0.271 NA
HETATM   23  C   UNL     1       7.667  29.986  58.628  1.00  0.00     0.146 A 
ENDBRANCH  13  17
ENDBRANCH   9  11
ENDBRANCH   1   9
TORSDOF 3
ENDMDL
MODEL 2
REMARK VINA RESULT:      -8.6      1.632      8.119
REMARK  3 active torsions:
REMARK  status: ('A' for Active; 'I' for Inactive)
REMARK    1  A    between atoms: C_3  and  N_4 
REMARK       I    between atoms: N_4  and  C_5 
REMARK       I    between atoms: C_5  and  N_6 
REMARK    2  A    between atoms: N_6  and  C_7 
REMARK    3  A    between atoms: C_7  and  C_8 
ROOT
HETATM    1  C   UNL     1       8.375  28.515  56.552  1.00  0.00    -0.036 A 
HETATM    2  C   UNL     1       9.542  29.274  56.385  1.00  0.00     0.011 A 
HETATM    3  C   UNL     1       9.904  30.247  57.324  1.00  0.00     0.023 A 
HETATM    4  C   UNL     1       9.102  30.481  58.444  1.00  0.00     0.044 A 
HETATM    5  C   UNL     1       9.477  31.473  59.408  1.00  0.00     0.099 C 
HETATM    6  N   UNL     1       9.784  32.273  60.191  1.00  0.00    -0.191 NA
HETATM    7  C   UNL     1       7.931  29.744  58.618  1.00  0.00     0.023 A 
HETATM    8  C   UNL     1       7.570  28.772  57.680  1.00  0.00     0.011 A 
ENDROOT
BRANCH   1   9
HETATM    9  C   UNL     1       7.930  27.433  55.583  1.00  0.00     0.115 C 
HETATM   10  C   UNL     1       7.292  27.924  54.279  1.00  0.00     0.037 C 
BRANCH   9  11
HETATM   11  N   UNL     1       7.010  26.525  56.260  1.00  0.00    -0.335 N 
HETATM   12  C   UNL     1       6.775  25.217  55.943  1.00  0.00     0.321 C 
HETATM   13  N   UNL     1       7.861  24.538  55.465  1.00  0.00    -0.307 N 
HETATM   14  O   UNL     1       5.656  24.757  56.136  1.00  0.00    -0.247 OA
HETATM   15  H   UNL     1       8.749  24.924  55.738  1.00  0.00     0.170 HD
HETATM   16  H   UNL     1       6.178  26.957  56.645  1.00  0.00     0.165 HD
BRANCH  13  17
HETATM   17  C   UNL     1       7.876  23.235  54.919  1.00  0.00     0.059 A 
HETATM   18  C   UNL     1       7.899  23.071  53.521  1.00  0.00    -0.032 A 
HETATM   19  C   UNL     1       7.961  24.233  52.569  1.00  0.00     0.050 C 
HETATM   20  C   UNL     1       7.893  21.772  52.995  1.00  0.00     0.028 A 
HETATM   21  C   UNL     1       7.849  20.693  53.863  1.00  0.00     0.117 A 
HETATM   22  N   UNL     1       7.813  20.815  55.202  1.00  0.00    -0.271 NA
HETATM   23  C   UNL     1       7.830  22.078  55.700  1.00  0.00     0.146 A 
ENDBRANCH  13  17
ENDBRANCH   9  11
ENDBRANCH   1   9
TORSDOF 3
ENDMDL
MODEL 3
REMARK VINA RESULT:      -8.3      4.193      6.091
REMARK  3 active torsions:
REMARK  status: ('A' for Active; 'I' for Inactive)
REMARK    1  A    between atoms: C_3  and  N_4 
REMARK       I    between atoms: N_4  and  C_5 
REMARK       I    between atoms: C_5  and  N_6 
REMARK    2  A    between atoms: N_6  and  C_7 
REMARK    3  A    between atoms: C_7  and  C_8 
ROOT
HETATM    1  C   UNL     1       6.983  24.997  54.196  1.00  0.00    -0.036 A 
HETATM    2  C   UNL     1       7.443  24.637  52.921  1.00  0.00     0.011 A 
HETATM    3  C   UNL     1       7.872  23.332  52.657  1.00  0.00     0.023 A 
HETATM    4  C   UNL     1       7.853  22.364  53.665  1.00  0.00     0.044 A 
HETATM    5  C   UNL     1       8.286  21.026  53.392  1.00  0.00     0.099 C 
HETATM    6  N   UNL     1       8.633  19.941  53.169  1.00  0.00    -0.191 NA
HETATM    7  C   UNL     1       7.410  22.710  54.942  1.00  0.00     0.023 A 
HETATM    8  C   UNL     1       6.982  24.014  55.204  1.00  0.00     0.011 A 
ENDROOT
BRANCH   1   9
HETATM    9  C   UNL     1       6.487  26.390  54.547  1.00  0.00     0.115 C 
HETATM   10  C   UNL     1       6.626  26.798  56.017  1.00  0.00     0.037 C 
BRANCH   9  11
HETATM   11  N   UNL     1       5.092  26.525  54.137  1.00  0.00    -0.335 N 
HETATM   12  C   UNL     1       4.612  27.312  53.129  1.00  0.00     0.321 C 
HETATM   13  N   UNL     1       5.447  27.442  52.055  1.00  0.00    -0.307 N 
HETATM   14  O   UNL     1       3.493  27.797  53.244  1.00  0.00    -0.247 OA
HETATM   15  H   UNL     1       6.111  26.695  51.947  1.00  0.00     0.170 HD
HETATM   16  H   UNL     1       4.410  26.436  54.881  1.00  0.00     0.165 HD
BRANCH  13  17
HETATM   17  C   UNL     1       5.282  28.308  50.950  1.00  0.00     0.059 A 
HETATM   18  C   UNL     1       4.892  27.778  49.707  1.00  0.00    -0.032 A 
HETATM   19  C   UNL     1       4.589  26.319  49.507  1.00  0.00     0.050 C 
HETATM   20  C   UNL     1       4.753  28.648  48.616  1.00  0.00     0.028 A 
HETATM   21  C   UNL     1       5.017  29.996  48.792  1.00  0.00     0.117 A 
HETATM   22  N   UNL     1       5.404  30.534  49.963  1.00  0.00    -0.271 NA
HETATM   23  C   UNL     1       5.525  29.682  51.014  1.00  0.00     0.146 A 
ENDBRANCH  13  17
ENDBRANCH   9  11
ENDBRANCH   1   9
TORSDOF 3
ENDMDL
MODEL 4
REMARK VINA RESULT:      -8.2      4.549     10.371
REMARK  3 active torsions:
REMARK  status: ('A' for Active; 'I' for Inactive)
REMARK    1  A    between atoms: C_3  and  N_4 
REMARK       I    between atoms: N_4  and  C_5 
REMARK       I    between atoms: C_5  and  N_6 
REMARK    2  A    between atoms: N_6  and  C_7 
REMARK    3  A    between atoms: C_7  and  C_8 
ROOT
HETATM    1  C   UNL     1       7.016  32.506  62.953  1.00  0.00    -0.036 A 
HETATM    2  C   UNL     1       7.849  33.011  63.962  1.00  0.00     0.011 A 
HETATM    3  C   UNL     1       7.308  33.565  65.127  1.00  0.00     0.023 A 
HETATM    4  C   UNL     1       5.923  33.628  65.302  1.00  0.00     0.044 A 
HETATM    5  C   UNL     1       5.370  34.190  66.499  1.00  0.00     0.099 C 
HETATM    6  N   UNL     1       4.922  34.640  67.471  1.00  0.00    -0.191 NA
HETATM    7  C   UNL     1       5.080  33.142  64.303  1.00  0.00     0.023 A 
HETATM    8  C   UNL     1       5.622  32.588  63.139  1.00  0.00     0.011 A 
ENDROOT
BRANCH   1   9
HETATM    9  C   UNL     1       7.535  31.876  61.672  1.00  0.00     0.115 C 
HETATM   10  C   UNL     1       8.999  32.168  61.329  1.00  0.00     0.037 C 
BRANCH   9  11
HETATM   11  N   UNL     1       6.686  32.282  60.555  1.00  0.00    -0.335 N 
HETATM   12  C   UNL     1       6.768  31.837  59.267  1.00  0.00     0.321 C 
HETATM   13  N   UNL     1       7.152  30.532  59.133  1.00  0.00    -0.307 N 
HETATM   14  O   UNL     1       6.468  32.604  58.359  1.00  0.00    -0.247 OA
HETATM   15  H   UNL     1       6.975  29.959  59.939  1.00  0.00     0.170 HD
HETATM   16  H   UNL     1       6.357  33.240  60.585  1.00  0.00     0.165 HD
BRANCH  13  17
HETATM   17  C   UNL     1       7.468  29.858  57.932  1.00  0.00     0.059 A 
HETATM   18  C   UNL     1       8.800  29.838  57.479  1.00  0.00    -0.032 A 
HETATM   19  C   UNL     1       9.928  30.466  58.249  1.00  0.00     0.050 C 
HETATM   20  C   UNL     1       9.092  29.182  56.274  1.00  0.00     0.028 A 
HETATM   21  C   UNL     1       8.063  28.589  55.562  1.00  0.00     0.117 A 
HETATM   22  N   UNL     1       6.778  28.601  55.961  1.00  0.00    -0.271 NA
HETATM   23  C   UNL     1       6.509  29.229  57.134  1.00  0.00     0.146 A 
ENDBRANCH  13  17
ENDBRANCH   9  11
ENDBRANCH   1   9
TORSDOF 3
ENDMDL
MODEL 5
REMARK VINA RESULT:      -7.9      2.992      4.948
REMARK  3 active torsions:
REMARK  status: ('A' for Active; 'I' for Inactive)
REMARK    1  A    between atoms: C_3  and  N_4 
REMARK       I    between atoms: N_4  and  C_5 
REMARK       I    between atoms: C_5  and  N_6 
REMARK    2  A    between atoms: N_6  and  C_7 
REMARK    3  A    between atoms: C_7  and  C_8 
ROOT
HETATM    1  C   UNL     1       6.600  28.455  57.357  1.00  0.00    -0.036 A 
HETATM    2  C   UNL     1       5.578  27.599  56.922  1.00  0.00     0.011 A 
HETATM    3  C   UNL     1       5.840  26.252  56.649  1.00  0.00     0.023 A 
HETATM    4  C   UNL     1       7.130  25.738  56.802  1.00  0.00     0.044 A 
HETATM    5  C   UNL     1       7.395  24.357  56.529  1.00  0.00     0.099 C 
HETATM    6  N   UNL     1       7.609  23.236  56.313  1.00  0.00    -0.191 NA
HETATM    7  C   UNL     1       8.161  26.579  57.222  1.00  0.00     0.023 A 
HETATM    8  C   UNL     1       7.898  27.925  57.494  1.00  0.00     0.011 A 
ENDROOT
BRANCH   1   9
HETATM    9  C   UNL     1       6.383  29.923  57.686  1.00  0.00     0.115 C 
HETATM   10  C   UNL     1       5.679  30.753  56.609  1.00  0.00     0.037 C 
BRANCH   9  11
HETATM   11  N   UNL     1       7.666  30.539  58.012  1.00  0.00    -0.335 N 
HETATM   12  C   UNL     1       7.919  31.396  59.045  1.00  0.00     0.321 C 
HETATM   13  N   UNL     1       7.195  31.156  60.180  1.00  0.00    -0.307 N 
HETATM   14  O   UNL     1       8.770  32.264  58.895  1.00  0.00    -0.247 OA
HETATM   15  H   UNL     1       6.860  30.212  60.271  1.00  0.00     0.170 HD
HETATM   16  H   UNL     1       8.262  30.746  57.219  1.00  0.00     0.165 HD
BRANCH  13  17
HETATM   17  C   UNL     1       7.135  31.965  61.337  1.00  0.00     0.059 A 
HETATM   18  C   UNL     1       7.972  31.672  62.430  1.00  0.00    -0.032 A 
HETATM   19  C   UNL     1       8.976  30.553  62.406  1.00  0.00     0.050 C 
HETATM   20  C   UNL     1       7.885  32.472  63.579  1.00  0.00     0.028 A 
HETATM   21  C   UNL     1       6.973  33.513  63.608  1.00  0.00     0.117 A 
HETATM   22  N   UNL     1       6.151  33.812  62.586  1.00  0.00    -0.271 NA
HETATM   23  C   UNL     1       6.251  33.037  61.476  1.00  0.00     0.146 A 
ENDBRANCH  13  17
ENDBRANCH   9  11
ENDBRANCH   1   9
TORSDOF 3
ENDMDL
MODEL 6
REMARK VINA RESULT:      -7.8      5.949      9.186
REMARK  3 active torsions:
REMARK  status: ('A' for Active; 'I' for Inactive)
REMARK    1  A    between atoms: C_3  and  N_4 
REMARK       I    between atoms: N_4  and  C_5 
REMARK       I    between atoms: C_5  and  N_6 
REMARK    2  A    between atoms: N_6  and  C_7 
REMARK    3  A    between atoms: C_7  and  C_8 
ROOT
HETATM    1  C   UNL     1       8.233  31.660  60.242  1.00  0.00    -0.036 A 
HETATM    2  C   UNL     1       7.494  30.824  59.393  1.00  0.00     0.011 A 
HETATM    3  C   UNL     1       8.051  30.339  58.204  1.00  0.00     0.023 A 
HETATM    4  C   UNL     1       9.354  30.686  57.841  1.00  0.00     0.044 A 
HETATM    5  C   UNL     1       9.926  30.184  56.627  1.00  0.00     0.099 C 
HETATM    6  N   UNL     1      10.390  29.772  55.646  1.00  0.00    -0.191 NA
HETATM    7  C   UNL     1      10.098  31.529  58.669  1.00  0.00     0.023 A 
HETATM    8  C   UNL     1       9.541  32.012  59.856  1.00  0.00     0.011 A 
ENDROOT
BRANCH   1   9
HETATM    9  C   UNL     1       7.697  32.209  61.554  1.00  0.00     0.115 C 
HETATM   10  C   UNL     1       8.628  32.077  62.764  1.00  0.00     0.037 C 
BRANCH   9  11
HETATM   11  N   UNL     1       6.417  31.575  61.857  1.00  0.00    -0.335 N 
HETATM   12  C   UNL     1       5.566  31.905  62.873  1.00  0.00     0.321 C 
HETATM   13  N   UNL     1       5.533  33.235  63.186  1.00  0.00    -0.307 N 
HETATM   14  O   UNL     1       4.892  31.019  63.386  1.00  0.00    -0.247 OA
HETATM   15  H   UNL     1       5.822  33.847  62.443  1.00  0.00     0.170 HD
HETATM   16  H   UNL     1       6.363  30.585  61.648  1.00  0.00     0.165 HD
BRANCH  13  17
HETATM   17  C   UNL     1       4.871  33.834  64.281  1.00  0.00     0.059 A 
HETATM   18  C   UNL     1       5.570  34.039  65.485  1.00  0.00    -0.032 A 
HETATM   19  C   UNL     1       7.024  33.691  65.648  1.00  0.00     0.050 C 
HETATM   20  C   UNL     1       4.892  34.616  66.568  1.00  0.00     0.028 A 
HETATM   21  C   UNL     1       3.556  34.951  66.426  1.00  0.00     0.117 A 
HETATM   22  N   UNL     1       2.855  34.758  65.294  1.00  0.00    -0.271 NA
HETATM   23  C   UNL     1       3.526  34.209  64.249  1.00  0.00     0.146 A 
ENDBRANCH  13  17
ENDBRANCH   9  11
ENDBRANCH   1   9
TORSDOF 3
ENDMDL
MODEL 7
REMARK VINA RESULT:      -7.8      2.094      2.802
REMARK  3 active torsions:
REMARK  status: ('A' for Active; 'I' for Inactive)
REMARK    1  A    between atoms: C_3  and  N_4 
REMARK       I    between atoms: N_4  and  C_5 
REMARK       I    between atoms: C_5  and  N_6 
REMARK    2  A    between atoms: N_6  and  C_7 
REMARK    3  A    between atoms: C_7  and  C_8 
ROOT
HETATM    1  C   UNL     1       7.057  24.982  54.370  1.00  0.00    -0.036 A 
HETATM    2  C   UNL     1       7.064  24.015  55.385  1.00  0.00     0.011 A 
HETATM    3  C   UNL     1       7.481  22.705  55.124  1.00  0.00     0.023 A 
HETATM    4  C   UNL     1       7.894  22.337  53.840  1.00  0.00     0.044 A 
HETATM    5  C   UNL     1       8.328  20.998  53.576  1.00  0.00     0.099 C 
HETATM    6  N   UNL     1       8.684  19.914  53.363  1.00  0.00    -0.191 NA
HETATM    7  C   UNL     1       7.881  23.285  52.816  1.00  0.00     0.023 A 
HETATM    8  C   UNL     1       7.464  24.593  53.078  1.00  0.00     0.011 A 
ENDROOT
BRANCH   1   9
HETATM    9  C   UNL     1       6.633  26.424  54.587  1.00  0.00     0.115 C 
HETATM   10  C   UNL     1       6.037  27.137  53.368  1.00  0.00     0.037 C 
BRANCH   9  11
HETATM   11  N   UNL     1       7.769  27.192  55.088  1.00  0.00    -0.335 N 
HETATM   12  C   UNL     1       7.734  28.458  55.600  1.00  0.00     0.321 C 
HETATM   13  N   UNL     1       6.597  28.765  56.295  1.00  0.00    -0.307 N 
HETATM   14  O   UNL     1       8.704  29.187  55.434  1.00  0.00    -0.247 OA
HETATM   15  H   UNL     1       6.105  27.971  56.666  1.00  0.00     0.170 HD
HETATM   16  H   UNL     1       8.652  27.016  54.623  1.00  0.00     0.165 HD
BRANCH  13  17
HETATM   17  C   UNL     1       6.223  30.033  56.795  1.00  0.00     0.059 A 
HETATM   18  C   UNL     1       5.183  30.745  56.168  1.00  0.00    -0.032 A 
HETATM   19  C   UNL     1       4.406  30.190  55.007  1.00  0.00     0.050 C 
HETATM   20  C   UNL     1       4.838  32.010  56.664  1.00  0.00     0.028 A 
HETATM   21  C   UNL     1       5.539  32.526  57.742  1.00  0.00     0.117 A 
HETATM   22  N   UNL     1       6.546  31.877  58.355  1.00  0.00    -0.271 NA
HETATM   23  C   UNL     1       6.863  30.649  57.873  1.00  0.00     0.146 A 
ENDBRANCH  13  17
ENDBRANCH   9  11
ENDBRANCH   1   9
TORSDOF 3
ENDMDL
MODEL 8
REMARK VINA RESULT:      -7.7      3.200      4.216
REMARK  3 active torsions:
REMARK  status: ('A' for Active; 'I' for Inactive)
REMARK    1  A    between atoms: C_3  and  N_4 
REMARK       I    between atoms: N_4  and  C_5 
REMARK       I    between atoms: C_5  and  N_6 
REMARK    2  A    between atoms: N_6  and  C_7 
REMARK    3  A    between atoms: C_7  and  C_8 
ROOT
HETATM    1  C   UNL     1       6.745  24.644  53.961  1.00  0.00    -0.036 A 
HETATM    2  C   UNL     1       6.861  24.003  55.203  1.00  0.00     0.011 A 
HETATM    3  C   UNL     1       7.417  22.723  55.299  1.00  0.00     0.023 A 
HETATM    4  C   UNL     1       7.861  22.057  54.153  1.00  0.00     0.044 A 
HETATM    5  C   UNL     1       8.436  20.749  54.253  1.00  0.00     0.099 C 
HETATM    6  N   UNL     1       8.907  19.691  54.335  1.00  0.00    -0.191 NA
HETATM    7  C   UNL     1       7.740  22.676  52.908  1.00  0.00     0.023 A 
HETATM    8  C   UNL     1       7.185  23.955  52.814  1.00  0.00     0.011 A 
ENDROOT
BRANCH   1   9
HETATM    9  C   UNL     1       6.167  26.038  53.786  1.00  0.00     0.115 C 
HETATM   10  C   UNL     1       6.380  26.683  52.413  1.00  0.00     0.037 C 
BRANCH   9  11
HETATM   11  N   UNL     1       6.704  26.917  54.821  1.00  0.00    -0.335 N 
HETATM   12  C   UNL     1       6.206  28.132  55.197  1.00  0.00     0.321 C 
HETATM   13  N   UNL     1       4.844  28.240  55.128  1.00  0.00    -0.307 N 
HETATM   14  O   UNL     1       6.985  28.993  55.587  1.00  0.00    -0.247 OA
HETATM   15  H   UNL     1       4.352  27.365  55.177  1.00  0.00     0.170 HD
HETATM   16  H   UNL     1       7.711  26.890  54.935  1.00  0.00     0.165 HD
BRANCH  13  17
HETATM   17  C   UNL     1       4.075  29.413  55.304  1.00  0.00     0.059 A 
HETATM   18  C   UNL     1       3.753  30.203  54.185  1.00  0.00    -0.032 A 
HETATM   19  C   UNL     1       4.150  29.827  52.784  1.00  0.00     0.050 C 
HETATM   20  C   UNL     1       3.006  31.374  54.380  1.00  0.00     0.028 A 
HETATM   21  C   UNL     1       2.623  31.724  55.664  1.00  0.00     0.117 A 
HETATM   22  N   UNL     1       2.926  30.998  56.756  1.00  0.00    -0.271 NA
HETATM   23  C   UNL     1       3.640  29.861  56.553  1.00  0.00     0.146 A 
ENDBRANCH  13  17
ENDBRANCH   9  11
ENDBRANCH   1   9
TORSDOF 3
ENDMDL
MODEL 9
REMARK VINA RESULT:      -7.7      2.359      7.511
REMARK  3 active torsions:
REMARK  status: ('A' for Active; 'I' for Inactive)
REMARK    1  A    between atoms: C_3  and  N_4 
REMARK       I    between atoms: N_4  and  C_5 
REMARK       I    between atoms: C_5  and  N_6 
REMARK    2  A    between atoms: N_6  and  C_7 
REMARK    3  A    between atoms: C_7  and  C_8 
ROOT
HETATM    1  C   UNL     1       6.194  26.800  54.167  1.00  0.00    -0.036 A 
HETATM    2  C   UNL     1       7.380  27.548  54.134  1.00  0.00     0.011 A 
HETATM    3  C   UNL     1       7.881  28.147  55.295  1.00  0.00     0.023 A 
HETATM    4  C   UNL     1       7.203  28.012  56.509  1.00  0.00     0.044 A 
HETATM    5  C   UNL     1       7.720  28.620  57.699  1.00  0.00     0.099 C 
HETATM    6  N   UNL     1       8.143  29.108  58.664  1.00  0.00    -0.191 NA
HETATM    7  C   UNL     1       6.015  27.281  56.556  1.00  0.00     0.023 A 
HETATM    8  C   UNL     1       5.515  26.683  55.396  1.00  0.00     0.011 A 
ENDROOT
BRANCH   1   9
HETATM    9  C   UNL     1       5.603  26.110  52.949  1.00  0.00     0.115 C 
HETATM   10  C   UNL     1       4.585  25.001  53.237  1.00  0.00     0.037 C 
BRANCH   9  11
HETATM   11  N   UNL     1       6.682  25.574  52.125  1.00  0.00    -0.335 N 
HETATM   12  C   UNL     1       7.499  24.524  52.436  1.00  0.00     0.321 C 
HETATM   13  N   UNL     1       6.905  23.530  53.163  1.00  0.00    -0.307 N 
HETATM   14  O   UNL     1       8.653  24.534  52.025  1.00  0.00    -0.247 OA
HETATM   15  H   UNL     1       5.905  23.486  53.073  1.00  0.00     0.170 HD
HETATM   16  H   UNL     1       7.170  26.253  51.553  1.00  0.00     0.165 HD
BRANCH  13  17
HETATM   17  C   UNL     1       7.539  22.412  53.750  1.00  0.00     0.059 A 
HETATM   18  C   UNL     1       7.885  22.450  55.114  1.00  0.00    -0.032 A 
HETATM   19  C   UNL     1       7.562  23.621  56.000  1.00  0.00     0.050 C 
HETATM   20  C   UNL     1       8.532  21.341  55.677  1.00  0.00     0.028 A 
HETATM   21  C   UNL     1       8.824  20.251  54.873  1.00  0.00     0.117 A 
HETATM   22  N   UNL     1       8.519  20.188  53.564  1.00  0.00    -0.271 NA
HETATM   23  C   UNL     1       7.882  21.263  53.034  1.00  0.00     0.146 A 
ENDBRANCH  13  17
ENDBRANCH   9  11
ENDBRANCH   1   9
TORSDOF 3
ENDMDL
MODEL 10
REMARK VINA RESULT:      -7.5      7.298     12.810
REMARK  3 active torsions:
REMARK  status: ('A' for Active; 'I' for Inactive)
REMARK    1  A    between atoms: C_3  and  N_4 
REMARK       I    between atoms: N_4  and  C_5 
REMARK       I    between atoms: C_5  and  N_6 
REMARK    2  A    between atoms: N_6  and  C_7 
REMARK    3  A    between atoms: C_7  and  C_8 
ROOT
HETATM    1  C   UNL     1       5.506  34.158  66.036  1.00  0.00    -0.036 A 
HETATM    2  C   UNL     1       4.411  34.173  66.913  1.00  0.00     0.011 A 
HETATM    3  C   UNL     1       4.602  34.261  68.296  1.00  0.00     0.023 A 
HETATM    4  C   UNL     1       5.892  34.330  68.828  1.00  0.00     0.044 A 
HETATM    5  C   UNL     1       6.087  34.428  70.244  1.00  0.00     0.099 C 
HETATM    6  N   UNL     1       6.244  34.511  71.391  1.00  0.00    -0.191 NA
HETATM    7  C   UNL     1       6.993  34.303  67.970  1.00  0.00     0.023 A 
HETATM    8  C   UNL     1       6.800  34.215  66.588  1.00  0.00     0.011 A 
ENDROOT
BRANCH   1   9
HETATM    9  C   UNL     1       5.370  34.080  64.525  1.00  0.00     0.115 C 
HETATM   10  C   UNL     1       4.438  35.112  63.883  1.00  0.00     0.037 C 
BRANCH   9  11
HETATM   11  N   UNL     1       4.940  32.737  64.146  1.00  0.00    -0.335 N 
HETATM   12  C   UNL     1       5.234  32.086  62.982  1.00  0.00     0.321 C 
HETATM   13  N   UNL     1       6.469  32.363  62.465  1.00  0.00    -0.307 N 
HETATM   14  O   UNL     1       4.411  31.304  62.521  1.00  0.00    -0.247 OA
HETATM   15  H   UNL     1       7.141  32.690  63.138  1.00  0.00     0.170 HD
HETATM   16  H   UNL     1       4.031  32.458  64.496  1.00  0.00     0.165 HD
BRANCH  13  17
HETATM   17  C   UNL     1       6.974  31.961  61.208  1.00  0.00     0.059 A 
HETATM   18  C   UNL     1       8.085  31.098  61.152  1.00  0.00    -0.032 A 
HETATM   19  C   UNL     1       8.738  30.536  62.385  1.00  0.00     0.050 C 
HETATM   20  C   UNL     1       8.586  30.725  59.897  1.00  0.00     0.028 A 
HETATM   21  C   UNL     1       7.984  31.226  58.755  1.00  0.00     0.117 A 
HETATM   22  N   UNL     1       6.930  32.062  58.773  1.00  0.00    -0.271 NA
HETATM   23  C   UNL     1       6.447  32.407  59.994  1.00  0.00     0.146 A 
ENDBRANCH  13  17
ENDBRANCH   9  11
ENDBRANCH   1   9
TORSDOF 3
ENDMDL
