MODEL 1
REMARK VINA RESULT:     -10.6      0.000      0.000
REMARK  5 active torsions:
REMARK  status: ('A' for Active; 'I' for Inactive)
REMARK    1  A    between atoms: C_7  and  C_8 
REMARK    2  A    between atoms: C_16  and  C_17 
REMARK    3  A    between atoms: C_19  and  O_20 
REMARK    4  A    between atoms: C_24  and  C_25 
REMARK       I    between atoms: C_25  and  N_26 
REMARK    5  A    between atoms: N_26  and  C_27 
ROOT
HETATM    1  C   UNL     1       5.015  27.737  56.925  1.00  0.00     0.070 C 
HETATM    2  C   UNL     1       5.484  27.207  55.593  1.00  0.00     0.037 C 
HETATM    3  N   UNL     1       4.488  27.028  54.631  1.00  0.00    -0.192 N 
HETATM    4  C   UNL     1       4.777  26.857  53.324  1.00  0.00     0.726 A 
HETATM    5  N   UNL     1       6.055  26.557  52.963  1.00  0.00    -0.083 N 
HETATM    6  N   UNL     1       6.209  26.536  51.626  1.00  0.00    -0.135 NA
HETATM    7  C   UNL     1       4.954  26.819  51.219  1.00  0.00     0.200 A 
HETATM    8  N   UNL     1       4.046  26.982  52.249  1.00  0.00    -0.041 NA
HETATM    9  C   UNL     1       7.145  26.361  53.919  1.00  0.00     0.202 C 
HETATM   10  C   UNL     1       6.779  26.923  55.291  1.00  0.00     0.062 C 
HETATM   11  H   UNL     1       3.566  27.397  54.859  1.00  0.00     0.184 HD
ENDROOT
BRANCH  10  12
HETATM   12  C   UNL     1       7.896  27.372  56.181  1.00  0.00     0.256 C 
HETATM   13  N   UNL     1       8.324  28.663  55.966  1.00  0.00    -0.323 N 
HETATM   14  H   UNL     1       7.953  29.172  55.175  1.00  0.00     0.169 HD
HETATM   15  O   UNL     1       8.301  26.612  57.054  1.00  0.00    -0.267 OA
BRANCH  13  16
HETATM   16  C   UNL     1       9.243  29.399  56.748  1.00  0.00     0.035 A 
HETATM   17  C   UNL     1      10.626  29.386  56.554  1.00  0.00     0.029 A 
HETATM   18  C   UNL     1      11.467  30.128  57.390  1.00  0.00     0.002 A 
HETATM   19  C   UNL     1      10.935  30.881  58.433  1.00  0.00     0.000 A 
HETATM   20  C   UNL     1       9.558  30.902  58.636  1.00  0.00     0.002 A 
HETATM   21  C   UNL     1       8.716  30.170  57.792  1.00  0.00     0.029 A 
ENDBRANCH  13  16
ENDBRANCH  10  12
BRANCH   9  22
HETATM   22  C   UNL     1       7.517  24.876  53.941  1.00  0.00    -0.025 A 
HETATM   23  C   UNL     1       7.535  24.183  55.164  1.00  0.00     0.046 A 
HETATM   24  C   UNL     1       7.863  22.831  55.195  1.00  0.00     0.066 A 
HETATM   25  C   UNL     1       8.175  22.143  54.029  1.00  0.00     0.036 A 
HETATM   26  C   UNL     1       8.184  22.821  52.813  1.00  0.00     0.003 A 
HETATM   27  C   UNL     1       7.867  24.179  52.768  1.00  0.00     0.010 A 
BRANCH  24  28
HETATM   28  O   UNL     1       7.896  22.134  56.366  1.00  0.00    -0.361 OA
HETATM   29  H   UNL     1       7.102  22.353  56.884  1.00  0.00     0.217 HD
ENDBRANCH  24  28
ENDBRANCH   9  22
BRANCH   7  30
HETATM   30  C   UNL     1       4.588  26.915  49.811  1.00  0.00     0.036 A 
HETATM   31  C   UNL     1       4.880  28.036  49.019  1.00  0.00     0.048 A 
HETATM   32 CL   UNL     1       5.754  29.412  49.603  1.00  0.00    -0.083 Cl
HETATM   33  C   UNL     1       4.507  28.060  47.667  1.00  0.00     0.025 A 
HETATM   34  C   UNL     1       3.846  26.973  47.094  1.00  0.00     0.002 A 
HETATM   35  C   UNL     1       3.558  25.853  47.867  1.00  0.00     0.001 A 
HETATM   36  C   UNL     1       3.928  25.825  49.215  1.00  0.00     0.017 A 
ENDBRANCH   7  30
TORSDOF 5
ENDMDL
MODEL 2
REMARK VINA RESULT:     -10.6      4.662      7.526
REMARK  5 active torsions:
REMARK  status: ('A' for Active; 'I' for Inactive)
REMARK    1  A    between atoms: C_7  and  C_8 
REMARK    2  A    between atoms: C_16  and  C_17 
REMARK    3  A    between atoms: C_19  and  O_20 
REMARK    4  A    between atoms: C_24  and  C_25 
REMARK       I    between atoms: C_25  and  N_26 
REMARK    5  A    between atoms: N_26  and  C_27 
ROOT
HETATM    1  C   UNL     1       9.870  31.720  58.631  1.00  0.00     0.070 C 
HETATM    2  C   UNL     1       8.850  30.699  58.196  1.00  0.00     0.037 C 
HETATM    3  N   UNL     1       9.333  29.674  57.380  1.00  0.00    -0.192 N 
HETATM    4  C   UNL     1       8.633  28.541  57.162  1.00  0.00     0.726 A 
HETATM    5  N   UNL     1       7.312  28.506  57.493  1.00  0.00    -0.083 N 
HETATM    6  N   UNL     1       6.785  27.278  57.330  1.00  0.00    -0.135 NA
HETATM    7  C   UNL     1       7.855  26.599  56.867  1.00  0.00     0.200 A 
HETATM    8  N   UNL     1       8.995  27.367  56.719  1.00  0.00    -0.041 NA
HETATM    9  C   UNL     1       6.580  29.649  58.038  1.00  0.00     0.202 C 
HETATM   10  C   UNL     1       7.540  30.717  58.559  1.00  0.00     0.062 C 
HETATM   11  H   UNL     1      10.344  29.625  57.264  1.00  0.00     0.184 HD
ENDROOT
BRANCH  10  12
HETATM   12  C   UNL     1       7.054  31.617  59.652  1.00  0.00     0.256 C 
HETATM   13  N   UNL     1       7.175  31.101  60.923  1.00  0.00    -0.323 N 
HETATM   14  H   UNL     1       7.466  30.139  61.031  1.00  0.00     0.169 HD
HETATM   15  O   UNL     1       6.652  32.739  59.363  1.00  0.00    -0.267 OA
BRANCH  13  16
HETATM   16  C   UNL     1       6.947  31.777  62.144  1.00  0.00     0.035 A 
HETATM   17  C   UNL     1       5.682  32.000  62.693  1.00  0.00     0.029 A 
HETATM   18  C   UNL     1       5.545  32.699  63.897  1.00  0.00     0.002 A 
HETATM   19  C   UNL     1       6.668  33.188  64.558  1.00  0.00     0.000 A 
HETATM   20  C   UNL     1       7.934  32.971  64.020  1.00  0.00     0.002 A 
HETATM   21  C   UNL     1       8.073  32.262  62.823  1.00  0.00     0.029 A 
ENDBRANCH  13  16
ENDBRANCH  10  12
BRANCH   9  22
HETATM   22  C   UNL     1       5.608  30.161  56.973  1.00  0.00    -0.025 A 
HETATM   23  C   UNL     1       4.537  30.991  57.351  1.00  0.00     0.046 A 
HETATM   24  C   UNL     1       3.652  31.469  56.389  1.00  0.00     0.066 A 
HETATM   25  C   UNL     1       3.807  31.143  55.048  1.00  0.00     0.036 A 
HETATM   26  C   UNL     1       4.848  30.304  54.661  1.00  0.00     0.003 A 
HETATM   27  C   UNL     1       5.738  29.808  55.615  1.00  0.00     0.010 A 
BRANCH  24  28
HETATM   28  O   UNL     1       2.601  32.269  56.727  1.00  0.00    -0.361 OA
HETATM   29  H   UNL     1       2.813  33.186  56.482  1.00  0.00     0.217 HD
ENDBRANCH  24  28
ENDBRANCH   9  22
BRANCH   7  30
HETATM   30  C   UNL     1       7.799  25.182  56.527  1.00  0.00     0.036 A 
HETATM   31  C   UNL     1       7.113  24.690  55.406  1.00  0.00     0.048 A 
HETATM   32 CL   UNL     1       6.298  25.708  54.268  1.00  0.00    -0.083 Cl
HETATM   33  C   UNL     1       7.108  23.315  55.132  1.00  0.00     0.025 A 
HETATM   34  C   UNL     1       7.784  22.423  55.964  1.00  0.00     0.002 A 
HETATM   35  C   UNL     1       8.474  22.899  57.073  1.00  0.00     0.001 A 
HETATM   36  C   UNL     1       8.483  24.268  57.351  1.00  0.00     0.017 A 
ENDBRANCH   7  30
TORSDOF 5
ENDMDL
MODEL 3
REMARK VINA RESULT:     -10.2      0.815      1.433
REMARK  5 active torsions:
REMARK  status: ('A' for Active; 'I' for Inactive)
REMARK    1  A    between atoms: C_7  and  C_8 
REMARK    2  A    between atoms: C_16  and  C_17 
REMARK    3  A    between atoms: C_19  and  O_20 
REMARK    4  A    between atoms: C_24  and  C_25 
REMARK       I    between atoms: C_25  and  N_26 
REMARK    5  A    between atoms: N_26  and  C_27 
ROOT
HETATM    1  C   UNL     1       4.948  28.353  56.996  1.00  0.00     0.070 C 
HETATM    2  C   UNL     1       5.411  27.669  55.735  1.00  0.00     0.037 C 
HETATM    3  N   UNL     1       4.437  27.498  54.749  1.00  0.00    -0.192 N 
HETATM    4  C   UNL     1       4.754  27.188  53.475  1.00  0.00     0.726 A 
HETATM    5  N   UNL     1       6.011  26.744  53.195  1.00  0.00    -0.083 N 
HETATM    6  N   UNL     1       6.209  26.593  51.872  1.00  0.00    -0.135 NA
HETATM    7  C   UNL     1       5.001  26.952  51.389  1.00  0.00     0.200 A 
HETATM    8  N   UNL     1       4.077  27.286  52.362  1.00  0.00    -0.041 NA
HETATM    9  C   UNL     1       7.043  26.533  54.210  1.00  0.00     0.202 C 
HETATM   10  C   UNL     1       6.684  27.243  55.513  1.00  0.00     0.062 C 
HETATM   11  H   UNL     1       3.547  27.967  54.906  1.00  0.00     0.184 HD
ENDROOT
BRANCH  10  12
HETATM   12  C   UNL     1       7.806  27.664  56.410  1.00  0.00     0.256 C 
HETATM   13  N   UNL     1       8.278  28.939  56.187  1.00  0.00    -0.323 N 
HETATM   14  H   UNL     1       7.932  29.452  55.388  1.00  0.00     0.169 HD
HETATM   15  O   UNL     1       8.179  26.901  57.295  1.00  0.00    -0.267 OA
BRANCH  13  16
HETATM   16  C   UNL     1       9.213  29.652  56.972  1.00  0.00     0.035 A 
HETATM   17  C   UNL     1       8.867  30.545  57.988  1.00  0.00     0.029 A 
HETATM   18  C   UNL     1       9.858  31.227  58.702  1.00  0.00     0.002 A 
HETATM   19  C   UNL     1      11.202  31.030  58.400  1.00  0.00     0.000 A 
HETATM   20  C   UNL     1      11.560  30.141  57.390  1.00  0.00     0.002 A 
HETATM   21  C   UNL     1      10.570  29.450  56.684  1.00  0.00     0.029 A 
ENDBRANCH  13  16
ENDBRANCH  10  12
BRANCH   9  22
HETATM   22  C   UNL     1       7.273  25.028  54.371  1.00  0.00    -0.025 A 
HETATM   23  C   UNL     1       7.731  24.274  53.276  1.00  0.00     0.046 A 
HETATM   24  C   UNL     1       7.950  22.907  53.413  1.00  0.00     0.066 A 
HETATM   25  C   UNL     1       7.727  22.264  54.625  1.00  0.00     0.036 A 
HETATM   26  C   UNL     1       7.252  22.992  55.712  1.00  0.00     0.003 A 
HETATM   27  C   UNL     1       7.017  24.363  55.586  1.00  0.00     0.010 A 
BRANCH  24  28
HETATM   28  O   UNL     1       8.387  22.149  52.368  1.00  0.00    -0.361 OA
HETATM   29  H   UNL     1       7.927  22.434  51.560  1.00  0.00     0.217 HD
ENDBRANCH  24  28
ENDBRANCH   9  22
BRANCH   7  30
HETATM   30  C   UNL     1       4.695  26.959  49.964  1.00  0.00     0.036 A 
HETATM   31  C   UNL     1       5.017  28.030  49.117  1.00  0.00     0.048 A 
HETATM   32 CL   UNL     1       5.859  29.445  49.651  1.00  0.00    -0.083 Cl
HETATM   33  C   UNL     1       4.701  27.968  47.752  1.00  0.00     0.025 A 
HETATM   34  C   UNL     1       4.070  26.843  47.220  1.00  0.00     0.002 A 
HETATM   35  C   UNL     1       3.754  25.771  48.048  1.00  0.00     0.001 A 
HETATM   36  C   UNL     1       4.066  25.828  49.409  1.00  0.00     0.017 A 
ENDBRANCH   7  30
TORSDOF 5
ENDMDL
MODEL 4
REMARK VINA RESULT:      -9.9      3.992      6.915
REMARK  5 active torsions:
REMARK  status: ('A' for Active; 'I' for Inactive)
REMARK    1  A    between atoms: C_7  and  C_8 
REMARK    2  A    between atoms: C_16  and  C_17 
REMARK    3  A    between atoms: C_19  and  O_20 
REMARK    4  A    between atoms: C_24  and  C_25 
REMARK       I    between atoms: C_25  and  N_26 
REMARK    5  A    between atoms: N_26  and  C_27 
ROOT
HETATM    1  C   UNL     1       2.919  29.393  56.636  1.00  0.00     0.070 C 
HETATM    2  C   UNL     1       4.292  28.871  56.298  1.00  0.00     0.037 C 
HETATM    3  N   UNL     1       4.493  27.508  56.530  1.00  0.00    -0.192 N 
HETATM    4  C   UNL     1       5.542  26.839  56.006  1.00  0.00     0.726 A 
HETATM    5  N   UNL     1       6.584  27.545  55.487  1.00  0.00    -0.083 N 
HETATM    6  N   UNL     1       7.491  26.744  54.897  1.00  0.00    -0.135 NA
HETATM    7  C   UNL     1       6.939  25.531  55.112  1.00  0.00     0.200 A 
HETATM    8  N   UNL     1       5.757  25.563  55.828  1.00  0.00    -0.041 NA
HETATM    9  C   UNL     1       6.664  29.006  55.501  1.00  0.00     0.202 C 
HETATM   10  C   UNL     1       5.298  29.627  55.781  1.00  0.00     0.062 C 
HETATM   11  H   UNL     1       3.667  26.963  56.772  1.00  0.00     0.184 HD
ENDROOT
BRANCH  10  12
HETATM   12  C   UNL     1       5.035  31.003  55.252  1.00  0.00     0.256 C 
HETATM   13  N   UNL     1       4.500  31.041  53.983  1.00  0.00    -0.323 N 
HETATM   14  H   UNL     1       4.426  30.179  53.460  1.00  0.00     0.169 HD
HETATM   15  O   UNL     1       5.246  31.969  55.976  1.00  0.00    -0.267 OA
BRANCH  13  16
HETATM   16  C   UNL     1       4.010  32.177  53.298  1.00  0.00     0.035 A 
HETATM   17  C   UNL     1       4.747  32.907  52.362  1.00  0.00     0.029 A 
HETATM   18  C   UNL     1       4.192  34.033  51.745  1.00  0.00     0.002 A 
HETATM   19  C   UNL     1       2.902  34.446  52.065  1.00  0.00     0.000 A 
HETATM   20  C   UNL     1       2.158  33.726  52.996  1.00  0.00     0.002 A 
HETATM   21  C   UNL     1       2.708  32.592  53.603  1.00  0.00     0.029 A 
ENDBRANCH  13  16
ENDBRANCH  10  12
BRANCH   9  22
HETATM   22  C   UNL     1       7.748  29.428  56.495  1.00  0.00    -0.025 A 
HETATM   23  C   UNL     1       9.101  29.370  56.114  1.00  0.00     0.046 A 
HETATM   24  C   UNL     1      10.095  29.759  57.007  1.00  0.00     0.066 A 
HETATM   25  C   UNL     1       9.775  30.211  58.281  1.00  0.00     0.036 A 
HETATM   26  C   UNL     1       8.442  30.252  58.682  1.00  0.00     0.003 A 
HETATM   27  C   UNL     1       7.436  29.855  57.800  1.00  0.00     0.010 A 
BRANCH  24  28
HETATM   28  O   UNL     1      11.414  29.707  56.668  1.00  0.00    -0.361 OA
HETATM   29  H   UNL     1      11.949  29.757  57.479  1.00  0.00     0.217 HD
ENDBRANCH  24  28
ENDBRANCH   9  22
BRANCH   7  30
HETATM   30  C   UNL     1       7.558  24.294  54.651  1.00  0.00     0.036 A 
HETATM   31  C   UNL     1       8.461  23.554  55.429  1.00  0.00     0.048 A 
HETATM   32 CL   UNL     1       8.907  23.992  57.043  1.00  0.00    -0.083 Cl
HETATM   33  C   UNL     1       9.013  22.366  54.928  1.00  0.00     0.025 A 
HETATM   34  C   UNL     1       8.670  21.905  53.657  1.00  0.00     0.002 A 
HETATM   35  C   UNL     1       7.769  22.625  52.880  1.00  0.00     0.001 A 
HETATM   36  C   UNL     1       7.216  23.810  53.374  1.00  0.00     0.017 A 
ENDBRANCH   7  30
TORSDOF 5
ENDMDL
MODEL 5
REMARK VINA RESULT:      -9.9      3.932      7.198
REMARK  5 active torsions:
REMARK  status: ('A' for Active; 'I' for Inactive)
REMARK    1  A    between atoms: C_7  and  C_8 
REMARK    2  A    between atoms: C_16  and  C_17 
REMARK    3  A    between atoms: C_19  and  O_20 
REMARK    4  A    between atoms: C_24  and  C_25 
REMARK       I    between atoms: C_25  and  N_26 
REMARK    5  A    between atoms: N_26  and  C_27 
ROOT
HETATM    1  C   UNL     1      10.554  31.470  58.440  1.00  0.00     0.070 C 
HETATM    2  C   UNL     1       9.350  30.688  57.980  1.00  0.00     0.037 C 
HETATM    3  N   UNL     1       9.435  30.150  56.694  1.00  0.00    -0.192 N 
HETATM    4  C   UNL     1       8.590  29.191  56.261  1.00  0.00     0.726 A 
HETATM    5  N   UNL     1       7.453  28.942  56.969  1.00  0.00    -0.083 N 
HETATM    6  N   UNL     1       6.780  27.883  56.483  1.00  0.00    -0.135 NA
HETATM    7  C   UNL     1       7.566  27.533  55.444  1.00  0.00     0.200 A 
HETATM    8  N   UNL     1       8.667  28.350  55.265  1.00  0.00    -0.041 NA
HETATM    9  C   UNL     1       7.059  29.690  58.162  1.00  0.00     0.202 C 
HETATM   10  C   UNL     1       8.238  30.473  58.734  1.00  0.00     0.062 C 
HETATM   11  H   UNL     1      10.342  30.212  56.236  1.00  0.00     0.184 HD
ENDROOT
BRANCH  10  12
HETATM   12  C   UNL     1       8.228  30.777  60.200  1.00  0.00     0.256 C 
HETATM   13  N   UNL     1       7.492  31.886  60.556  1.00  0.00    -0.323 N 
HETATM   14  H   UNL     1       7.112  32.471  59.824  1.00  0.00     0.169 HD
HETATM   15  O   UNL     1       8.803  30.015  60.969  1.00  0.00    -0.267 OA
BRANCH  13  16
HETATM   16  C   UNL     1       7.178  32.318  61.865  1.00  0.00     0.035 A 
HETATM   17  C   UNL     1       8.130  32.614  62.843  1.00  0.00     0.029 A 
HETATM   18  C   UNL     1       7.731  33.015  64.122  1.00  0.00     0.002 A 
HETATM   19  C   UNL     1       6.379  33.113  64.438  1.00  0.00     0.000 A 
HETATM   20  C   UNL     1       5.422  32.821  63.471  1.00  0.00     0.002 A 
HETATM   21  C   UNL     1       5.819  32.432  62.188  1.00  0.00     0.029 A 
ENDBRANCH  13  16
ENDBRANCH  10  12
BRANCH   9  22
HETATM   22  C   UNL     1       5.849  30.562  57.816  1.00  0.00    -0.025 A 
HETATM   23  C   UNL     1       6.039  31.921  57.507  1.00  0.00     0.046 A 
HETATM   24  C   UNL     1       4.948  32.722  57.183  1.00  0.00     0.066 A 
HETATM   25  C   UNL     1       3.661  32.200  57.155  1.00  0.00     0.036 A 
HETATM   26  C   UNL     1       3.454  30.863  57.481  1.00  0.00     0.003 A 
HETATM   27  C   UNL     1       4.537  30.051  57.818  1.00  0.00     0.010 A 
BRANCH  24  28
HETATM   28  O   UNL     1       5.100  34.044  56.885  1.00  0.00    -0.361 OA
HETATM   29  H   UNL     1       5.906  34.373  57.320  1.00  0.00     0.217 HD
ENDBRANCH  24  28
ENDBRANCH   9  22
BRANCH   7  30
HETATM   30  C   UNL     1       7.260  26.407  54.570  1.00  0.00     0.036 A 
HETATM   31  C   UNL     1       7.236  25.077  55.016  1.00  0.00     0.048 A 
HETATM   32 CL   UNL     1       7.516  24.621  56.663  1.00  0.00    -0.083 Cl
HETATM   33  C   UNL     1       6.924  24.041  54.124  1.00  0.00     0.025 A 
HETATM   34  C   UNL     1       6.632  24.317  52.789  1.00  0.00     0.002 A 
HETATM   35  C   UNL     1       6.644  25.633  52.337  1.00  0.00     0.001 A 
HETATM   36  C   UNL     1       6.954  26.669  53.221  1.00  0.00     0.017 A 
ENDBRANCH   7  30
TORSDOF 5
ENDMDL
MODEL 6
REMARK VINA RESULT:      -9.8      3.962      6.941
REMARK  5 active torsions:
REMARK  status: ('A' for Active; 'I' for Inactive)
REMARK    1  A    between atoms: C_7  and  C_8 
REMARK    2  A    between atoms: C_16  and  C_17 
REMARK    3  A    between atoms: C_19  and  O_20 
REMARK    4  A    between atoms: C_24  and  C_25 
REMARK       I    between atoms: C_25  and  N_26 
REMARK    5  A    between atoms: N_26  and  C_27 
ROOT
HETATM    1  C   UNL     1       4.332  28.075  53.830  1.00  0.00     0.070 C 
HETATM    2  C   UNL     1       4.480  28.400  52.364  1.00  0.00     0.037 C 
HETATM    3  N   UNL     1       4.315  29.744  52.026  1.00  0.00    -0.192 N 
HETATM    4  C   UNL     1       4.709  30.236  50.832  1.00  0.00     0.726 A 
HETATM    5  N   UNL     1       5.003  29.369  49.824  1.00  0.00    -0.083 N 
HETATM    6  N   UNL     1       5.493  30.002  48.742  1.00  0.00    -0.135 NA
HETATM    7  C   UNL     1       5.456  31.285  49.157  1.00  0.00     0.200 A 
HETATM    8  N   UNL     1       4.940  31.456  50.428  1.00  0.00    -0.041 NA
HETATM    9  C   UNL     1       4.873  27.916  49.938  1.00  0.00     0.202 C 
HETATM   10  C   UNL     1       4.773  27.487  51.400  1.00  0.00     0.062 C 
HETATM   11  H   UNL     1       4.249  30.402  52.800  1.00  0.00     0.184 HD
ENDROOT
BRANCH  10  12
HETATM   12  C   UNL     1       5.240  26.110  51.755  1.00  0.00     0.256 C 
HETATM   13  N   UNL     1       6.394  26.066  52.506  1.00  0.00    -0.323 N 
HETATM   14  H   UNL     1       6.901  26.926  52.667  1.00  0.00     0.169 HD
HETATM   15  O   UNL     1       4.558  25.146  51.423  1.00  0.00    -0.267 OA
BRANCH  13  16
HETATM   16  C   UNL     1       6.976  24.929  53.112  1.00  0.00     0.035 A 
HETATM   17  C   UNL     1       7.798  24.018  52.445  1.00  0.00     0.029 A 
HETATM   18  C   UNL     1       8.315  22.906  53.116  1.00  0.00     0.002 A 
HETATM   19  C   UNL     1       8.007  22.687  54.456  1.00  0.00     0.000 A 
HETATM   20  C   UNL     1       7.189  23.588  55.131  1.00  0.00     0.002 A 
HETATM   21  C   UNL     1       6.682  24.708  54.464  1.00  0.00     0.029 A 
ENDBRANCH  13  16
ENDBRANCH  10  12
BRANCH   9  22
HETATM   22  C   UNL     1       3.689  27.461  49.080  1.00  0.00    -0.025 A 
HETATM   23  C   UNL     1       3.860  26.407  48.164  1.00  0.00     0.046 A 
HETATM   24  C   UNL     1       2.788  25.980  47.385  1.00  0.00     0.066 A 
HETATM   25  C   UNL     1       1.539  26.578  47.497  1.00  0.00     0.036 A 
HETATM   26  C   UNL     1       1.360  27.637  48.381  1.00  0.00     0.003 A 
HETATM   27  C   UNL     1       2.428  28.083  49.162  1.00  0.00     0.010 A 
BRANCH  24  28
HETATM   28  O   UNL     1       2.925  24.966  46.485  1.00  0.00    -0.361 OA
HETATM   29  H   UNL     1       2.228  24.308  46.644  1.00  0.00     0.217 HD
ENDBRANCH  24  28
ENDBRANCH   9  22
BRANCH   7  30
HETATM   30  C   UNL     1       5.897  32.395  48.321  1.00  0.00     0.036 A 
HETATM   31  C   UNL     1       5.237  32.774  47.142  1.00  0.00     0.048 A 
HETATM   32 CL   UNL     1       3.796  32.006  46.570  1.00  0.00    -0.083 Cl
HETATM   33  C   UNL     1       5.710  33.858  46.388  1.00  0.00     0.025 A 
HETATM   34  C   UNL     1       6.835  34.572  46.800  1.00  0.00     0.002 A 
HETATM   35  C   UNL     1       7.492  34.211  47.972  1.00  0.00     0.001 A 
HETATM   36  C   UNL     1       7.026  33.132  48.726  1.00  0.00     0.017 A 
ENDBRANCH   7  30
TORSDOF 5
ENDMDL
MODEL 7
REMARK VINA RESULT:      -9.6      3.338      7.166
REMARK  5 active torsions:
REMARK  status: ('A' for Active; 'I' for Inactive)
REMARK    1  A    between atoms: C_7  and  C_8 
REMARK    2  A    between atoms: C_16  and  C_17 
REMARK    3  A    between atoms: C_19  and  O_20 
REMARK    4  A    between atoms: C_24  and  C_25 
REMARK       I    between atoms: C_25  and  N_26 
REMARK    5  A    between atoms: N_26  and  C_27 
ROOT
HETATM    1  C   UNL     1       2.487  28.215  52.200  1.00  0.00     0.070 C 
HETATM    2  C   UNL     1       3.795  27.811  52.833  1.00  0.00     0.037 C 
HETATM    3  N   UNL     1       3.868  26.489  53.276  1.00  0.00    -0.192 N 
HETATM    4  C   UNL     1       5.043  25.898  53.579  1.00  0.00     0.726 A 
HETATM    5  N   UNL     1       6.151  26.673  53.742  1.00  0.00    -0.083 N 
HETATM    6  N   UNL     1       7.261  25.934  53.919  1.00  0.00    -0.135 NA
HETATM    7  C   UNL     1       6.749  24.687  53.871  1.00  0.00     0.200 A 
HETATM    8  N   UNL     1       5.377  24.642  53.701  1.00  0.00    -0.041 NA
HETATM    9  C   UNL     1       6.141  28.134  53.654  1.00  0.00     0.202 C 
HETATM   10  C   UNL     1       4.870  28.633  52.971  1.00  0.00     0.062 C 
HETATM   11  H   UNL     1       3.095  25.880  53.013  1.00  0.00     0.184 HD
ENDROOT
BRANCH  10  12
HETATM   12  C   UNL     1       4.933  29.947  52.256  1.00  0.00     0.256 C 
HETATM   13  N   UNL     1       5.325  29.870  50.937  1.00  0.00    -0.323 N 
HETATM   14  H   UNL     1       5.645  28.981  50.577  1.00  0.00     0.169 HD
HETATM   15  O   UNL     1       4.586  30.964  52.847  1.00  0.00    -0.267 OA
BRANCH  13  16
HETATM   16  C   UNL     1       5.326  30.914  49.984  1.00  0.00     0.035 A 
HETATM   17  C   UNL     1       6.276  31.937  49.940  1.00  0.00     0.029 A 
HETATM   18  C   UNL     1       6.189  32.945  48.975  1.00  0.00     0.002 A 
HETATM   19  C   UNL     1       5.147  32.947  48.053  1.00  0.00     0.000 A 
HETATM   20  C   UNL     1       4.194  31.933  48.087  1.00  0.00     0.002 A 
HETATM   21  C   UNL     1       4.287  30.917  49.043  1.00  0.00     0.029 A 
ENDBRANCH  13  16
ENDBRANCH  10  12
BRANCH   9  22
HETATM   22  C   UNL     1       6.354  28.710  55.056  1.00  0.00    -0.025 A 
HETATM   23  C   UNL     1       5.251  28.881  55.911  1.00  0.00     0.046 A 
HETATM   24  C   UNL     1       5.434  29.397  57.191  1.00  0.00     0.066 A 
HETATM   25  C   UNL     1       6.699  29.748  57.647  1.00  0.00     0.036 A 
HETATM   26  C   UNL     1       7.797  29.607  56.804  1.00  0.00     0.003 A 
HETATM   27  C   UNL     1       7.627  29.101  55.514  1.00  0.00     0.010 A 
BRANCH  24  28
HETATM   28  O   UNL     1       4.384  29.580  58.040  1.00  0.00    -0.361 OA
HETATM   29  H   UNL     1       4.591  29.159  58.892  1.00  0.00     0.217 HD
ENDBRANCH  24  28
ENDBRANCH   9  22
BRANCH   7  30
HETATM   30  C   UNL     1       7.573  23.493  54.016  1.00  0.00     0.036 A 
HETATM   31  C   UNL     1       8.296  23.198  55.183  1.00  0.00     0.048 A 
HETATM   32 CL   UNL     1       8.254  24.188  56.602  1.00  0.00    -0.083 Cl
HETATM   33  C   UNL     1       9.062  22.027  55.259  1.00  0.00     0.025 A 
HETATM   34  C   UNL     1       9.114  21.141  54.183  1.00  0.00     0.002 A 
HETATM   35  C   UNL     1       8.395  21.417  53.025  1.00  0.00     0.001 A 
HETATM   36  C   UNL     1       7.629  22.583  52.943  1.00  0.00     0.017 A 
ENDBRANCH   7  30
TORSDOF 5
ENDMDL
MODEL 8
REMARK VINA RESULT:      -9.4      1.893      2.634
REMARK  5 active torsions:
REMARK  status: ('A' for Active; 'I' for Inactive)
REMARK    1  A    between atoms: C_7  and  C_8 
REMARK    2  A    between atoms: C_16  and  C_17 
REMARK    3  A    between atoms: C_19  and  O_20 
REMARK    4  A    between atoms: C_24  and  C_25 
REMARK       I    between atoms: C_25  and  N_26 
REMARK    5  A    between atoms: N_26  and  C_27 
ROOT
HETATM    1  C   UNL     1       3.949  29.596  57.301  1.00  0.00     0.070 C 
HETATM    2  C   UNL     1       4.644  29.013  56.097  1.00  0.00     0.037 C 
HETATM    3  N   UNL     1       3.863  28.901  54.945  1.00  0.00    -0.192 N 
HETATM    4  C   UNL     1       4.407  28.690  53.728  1.00  0.00     0.726 A 
HETATM    5  N   UNL     1       5.705  28.286  53.645  1.00  0.00    -0.083 N 
HETATM    6  N   UNL     1       6.135  28.235  52.371  1.00  0.00    -0.135 NA
HETATM    7  C   UNL     1       5.021  28.611  51.709  1.00  0.00     0.200 A 
HETATM    8  N   UNL     1       3.932  28.859  52.524  1.00  0.00    -0.041 NA
HETATM    9  C   UNL     1       6.549  28.017  54.809  1.00  0.00     0.202 C 
HETATM   10  C   UNL     1       5.947  28.624  56.075  1.00  0.00     0.062 C 
HETATM   11  H   UNL     1       2.946  29.344  54.975  1.00  0.00     0.184 HD
ENDROOT
BRANCH  10  12
HETATM   12  C   UNL     1       6.883  28.994  57.183  1.00  0.00     0.256 C 
HETATM   13  N   UNL     1       7.121  30.345  57.312  1.00  0.00    -0.323 N 
HETATM   14  H   UNL     1       6.756  30.972  56.608  1.00  0.00     0.169 HD
HETATM   15  O   UNL     1       7.313  28.112  57.918  1.00  0.00    -0.267 OA
BRANCH  13  16
HETATM   16  C   UNL     1       7.828  30.992  58.352  1.00  0.00     0.035 A 
HETATM   17  C   UNL     1       9.219  30.998  58.469  1.00  0.00     0.029 A 
HETATM   18  C   UNL     1       9.838  31.645  59.543  1.00  0.00     0.002 A 
HETATM   19  C   UNL     1       9.072  32.283  60.515  1.00  0.00     0.000 A 
HETATM   20  C   UNL     1       7.684  32.284  60.409  1.00  0.00     0.002 A 
HETATM   21  C   UNL     1       7.066  31.647  59.328  1.00  0.00     0.029 A 
ENDBRANCH  13  16
ENDBRANCH  10  12
BRANCH   9  22
HETATM   22  C   UNL     1       6.787  26.508  54.904  1.00  0.00    -0.025 A 
HETATM   23  C   UNL     1       7.504  25.853  53.886  1.00  0.00     0.046 A 
HETATM   24  C   UNL     1       7.734  24.483  53.965  1.00  0.00     0.066 A 
HETATM   25  C   UNL     1       7.268  23.740  55.043  1.00  0.00     0.036 A 
HETATM   26  C   UNL     1       6.537  24.369  56.046  1.00  0.00     0.003 A 
HETATM   27  C   UNL     1       6.289  25.741  55.975  1.00  0.00     0.010 A 
BRANCH  24  28
HETATM   28  O   UNL     1       8.419  23.820  52.991  1.00  0.00    -0.361 OA
HETATM   29  H   UNL     1       8.404  24.353  52.178  1.00  0.00     0.217 HD
ENDBRANCH  24  28
ENDBRANCH   9  22
BRANCH   7  30
HETATM   30  C   UNL     1       4.969  28.717  50.256  1.00  0.00     0.036 A 
HETATM   31  C   UNL     1       4.842  27.604  49.411  1.00  0.00     0.048 A 
HETATM   32 CL   UNL     1       4.680  25.982  49.993  1.00  0.00    -0.083 Cl
HETATM   33  C   UNL     1       4.789  27.778  48.020  1.00  0.00     0.025 A 
HETATM   34  C   UNL     1       4.857  29.054  47.461  1.00  0.00     0.002 A 
HETATM   35  C   UNL     1       4.975  30.166  48.289  1.00  0.00     0.001 A 
HETATM   36  C   UNL     1       5.028  29.998  49.675  1.00  0.00     0.017 A 
ENDBRANCH   7  30
TORSDOF 5
ENDMDL
MODEL 9
REMARK VINA RESULT:      -9.2      6.746      9.975
REMARK  5 active torsions:
REMARK  status: ('A' for Active; 'I' for Inactive)
REMARK    1  A    between atoms: C_7  and  C_8 
REMARK    2  A    between atoms: C_16  and  C_17 
REMARK    3  A    between atoms: C_19  and  O_20 
REMARK    4  A    between atoms: C_24  and  C_25 
REMARK       I    between atoms: C_25  and  N_26 
REMARK    5  A    between atoms: N_26  and  C_27 
ROOT
HETATM    1  C   UNL     1       1.850  34.640  61.732  1.00  0.00     0.070 C 
HETATM    2  C   UNL     1       2.971  33.893  61.054  1.00  0.00     0.037 C 
HETATM    3  N   UNL     1       2.652  32.612  60.599  1.00  0.00    -0.192 N 
HETATM    4  C   UNL     1       3.434  31.948  59.722  1.00  0.00     0.726 A 
HETATM    5  N   UNL     1       4.700  32.395  59.494  1.00  0.00    -0.083 N 
HETATM    6  N   UNL     1       5.309  31.706  58.511  1.00  0.00    -0.135 NA
HETATM    7  C   UNL     1       4.345  30.819  58.186  1.00  0.00     0.200 A 
HETATM    8  N   UNL     1       3.195  30.925  58.946  1.00  0.00    -0.041 NA
HETATM    9  C   UNL     1       5.294  33.541  60.184  1.00  0.00     0.202 C 
HETATM   10  C   UNL     1       4.220  34.393  60.856  1.00  0.00     0.062 C 
HETATM   11  H   UNL     1       1.669  32.348  60.638  1.00  0.00     0.184 HD
ENDROOT
BRANCH  10  12
HETATM   12  C   UNL     1       4.511  35.847  61.063  1.00  0.00     0.256 C 
HETATM   13  N   UNL     1       5.168  36.144  62.237  1.00  0.00    -0.323 N 
HETATM   14  H   UNL     1       5.306  35.407  62.916  1.00  0.00     0.169 HD
HETATM   15  O   UNL     1       4.215  36.644  60.180  1.00  0.00    -0.267 OA
BRANCH  13  16
HETATM   16  C   UNL     1       5.704  37.394  62.622  1.00  0.00     0.035 A 
HETATM   17  C   UNL     1       6.482  38.204  61.792  1.00  0.00     0.029 A 
HETATM   18  C   UNL     1       6.992  39.419  62.261  1.00  0.00     0.002 A 
HETATM   19  C   UNL     1       6.738  39.830  63.567  1.00  0.00     0.000 A 
HETATM   20  C   UNL     1       5.964  39.031  64.403  1.00  0.00     0.002 A 
HETATM   21  C   UNL     1       5.444  37.822  63.931  1.00  0.00     0.029 A 
ENDBRANCH  13  16
ENDBRANCH  10  12
BRANCH   9  22
HETATM   22  C   UNL     1       6.368  33.030  61.147  1.00  0.00    -0.025 A 
HETATM   23  C   UNL     1       7.654  32.736  60.661  1.00  0.00     0.046 A 
HETATM   24  C   UNL     1       8.641  32.278  61.529  1.00  0.00     0.066 A 
HETATM   25  C   UNL     1       8.380  32.107  62.883  1.00  0.00     0.036 A 
HETATM   26  C   UNL     1       7.105  32.372  63.376  1.00  0.00     0.003 A 
HETATM   27  C   UNL     1       6.103  32.821  62.515  1.00  0.00     0.010 A 
BRANCH  24  28
HETATM   28  O   UNL     1       9.895  31.979  61.085  1.00  0.00    -0.361 OA
HETATM   29  H   UNL     1      10.510  32.666  61.394  1.00  0.00     0.217 HD
ENDBRANCH  24  28
ENDBRANCH   9  22
BRANCH   7  30
HETATM   30  C   UNL     1       4.519  29.819  57.140  1.00  0.00     0.036 A 
HETATM   31  C   UNL     1       3.866  29.887  55.899  1.00  0.00     0.048 A 
HETATM   32 CL   UNL     1       2.820  31.189  55.445  1.00  0.00    -0.083 Cl
HETATM   33  C   UNL     1       4.085  28.894  54.933  1.00  0.00     0.025 A 
HETATM   34  C   UNL     1       4.954  27.834  55.189  1.00  0.00     0.002 A 
HETATM   35  C   UNL     1       5.614  27.760  56.412  1.00  0.00     0.001 A 
HETATM   36  C   UNL     1       5.399  28.746  57.378  1.00  0.00     0.017 A 
ENDBRANCH   7  30
TORSDOF 5
ENDMDL
MODEL 10
REMARK VINA RESULT:      -9.1      5.901     10.974
REMARK  5 active torsions:
REMARK  status: ('A' for Active; 'I' for Inactive)
REMARK    1  A    between atoms: C_7  and  C_8 
REMARK    2  A    between atoms: C_16  and  C_17 
REMARK    3  A    between atoms: C_19  and  O_20 
REMARK    4  A    between atoms: C_24  and  C_25 
REMARK       I    between atoms: C_25  and  N_26 
REMARK    5  A    between atoms: N_26  and  C_27 
ROOT
HETATM    1  C   UNL     1       3.660  34.086  56.412  1.00  0.00     0.070 C 
HETATM    2  C   UNL     1       4.310  33.430  57.604  1.00  0.00     0.037 C 
HETATM    3  N   UNL     1       4.666  34.290  58.645  1.00  0.00    -0.192 N 
HETATM    4  C   UNL     1       4.969  33.834  59.879  1.00  0.00     0.726 A 
HETATM    5  N   UNL     1       5.222  32.507  60.051  1.00  0.00    -0.083 N 
HETATM    6  N   UNL     1       5.388  32.189  61.348  1.00  0.00    -0.135 NA
HETATM    7  C   UNL     1       5.240  33.398  61.929  1.00  0.00     0.200 A 
HETATM    8  N   UNL     1       5.020  34.433  61.038  1.00  0.00    -0.041 NA
HETATM    9  C   UNL     1       5.231  31.533  58.958  1.00  0.00     0.202 C 
HETATM   10  C   UNL     1       4.539  32.094  57.718  1.00  0.00     0.062 C 
HETATM   11  H   UNL     1       4.337  35.251  58.573  1.00  0.00     0.184 HD
ENDROOT
BRANCH  10  12
HETATM   12  C   UNL     1       3.915  31.120  56.767  1.00  0.00     0.256 C 
HETATM   13  N   UNL     1       4.704  30.776  55.692  1.00  0.00    -0.323 N 
HETATM   14  H   UNL     1       5.576  31.268  55.552  1.00  0.00     0.169 HD
HETATM   15  O   UNL     1       2.809  30.660  57.028  1.00  0.00    -0.267 OA
BRANCH  13  16
HETATM   16  C   UNL     1       4.445  29.774  54.729  1.00  0.00     0.035 A 
HETATM   17  C   UNL     1       3.574  29.930  53.649  1.00  0.00     0.029 A 
HETATM   18  C   UNL     1       3.358  28.877  52.753  1.00  0.00     0.002 A 
HETATM   19  C   UNL     1       4.002  27.657  52.936  1.00  0.00     0.000 A 
HETATM   20  C   UNL     1       4.873  27.489  54.009  1.00  0.00     0.002 A 
HETATM   21  C   UNL     1       5.099  28.546  54.897  1.00  0.00     0.029 A 
ENDBRANCH  13  16
ENDBRANCH  10  12
BRANCH   9  22
HETATM   22  C   UNL     1       6.674  31.089  58.710  1.00  0.00    -0.025 A 
HETATM   23  C   UNL     1       7.736  31.902  59.145  1.00  0.00     0.046 A 
HETATM   24  C   UNL     1       9.053  31.504  58.932  1.00  0.00     0.066 A 
HETATM   25  C   UNL     1       9.343  30.305  58.293  1.00  0.00     0.036 A 
HETATM   26  C   UNL     1       8.304  29.500  57.835  1.00  0.00     0.003 A 
HETATM   27  C   UNL     1       6.979  29.892  58.033  1.00  0.00     0.010 A 
BRANCH  24  28
HETATM   28  O   UNL     1      10.102  32.274  59.337  1.00  0.00    -0.361 OA
HETATM   29  H   UNL     1      10.598  31.794  60.022  1.00  0.00     0.217 HD
ENDBRANCH  24  28
ENDBRANCH   9  22
BRANCH   7  30
HETATM   30  C   UNL     1       5.334  33.594  63.370  1.00  0.00     0.036 A 
HETATM   31  C   UNL     1       6.514  33.373  64.097  1.00  0.00     0.048 A 
HETATM   32 CL   UNL     1       8.007  32.893  63.365  1.00  0.00    -0.083 Cl
HETATM   33  C   UNL     1       6.538  33.590  65.483  1.00  0.00     0.025 A 
HETATM   34  C   UNL     1       5.396  34.029  66.152  1.00  0.00     0.002 A 
HETATM   35  C   UNL     1       4.223  34.260  65.441  1.00  0.00     0.001 A 
HETATM   36  C   UNL     1       4.194  34.046  64.061  1.00  0.00     0.017 A 
ENDBRANCH   7  30
TORSDOF 5
ENDMDL
