MODEL 1
REMARK VINA RESULT:     -10.1      0.000      0.000
REMARK  11 active torsions:
REMARK  status: ('A' for Active; 'I' for Inactive)
REMARK    1  A    between atoms: C_2  and  O_3 
REMARK    2  A    between atoms: O_3  and  C_4 
REMARK    3  A    between atoms: C_5  and  O_6 
REMARK    4  A    between atoms: O_6  and  C_7 
REMARK    5  A    between atoms: C_7  and  C_8 
REMARK       I    between atoms: C_8  and  N_9 
REMARK    6  A    between atoms: N_9  and  C_10 
REMARK    7  A    between atoms: C_11  and  O_12 
REMARK    8  A    between atoms: C_21  and  C_22 
REMARK    9  A    between atoms: C_27  and  C_28 
REMARK   10  A    between atoms: C_34  and  C_35 
REMARK   11  A    between atoms: C_35  and  C_36 
ROOT
HETATM    1  C   UNL     1       4.852  32.354  57.180  1.00  0.00     0.102 A 
HETATM    2  C   UNL     1       3.762  31.782  57.844  1.00  0.00     0.102 A 
HETATM    3  C   UNL     1       3.268  30.538  57.451  1.00  0.00     0.040 A 
HETATM    4  C   UNL     1       3.884  29.836  56.418  1.00  0.00     0.012 A 
HETATM    5  C   UNL     1       4.996  30.376  55.757  1.00  0.00    -0.028 A 
HETATM    6  C   UNL     1       5.493  31.626  56.173  1.00  0.00     0.049 A 
ENDROOT
BRANCH   5   7
HETATM    7  C   UNL     1       5.627  29.617  54.604  1.00  0.00     0.157 C 
HETATM    8  N   UNL     1       4.666  29.521  53.521  1.00  0.00    -0.354 N 
HETATM    9  C   UNL     1       4.699  28.540  52.585  1.00  0.00     0.173 C 
HETATM   10  H   UNL     1       4.132  30.348  53.278  1.00  0.00     0.163 HD
HETATM   11  S   UNL     1       3.836  28.664  51.173  1.00  0.00    -0.041 SA
HETATM   12  N   UNL     1       5.439  27.439  52.880  1.00  0.00    -0.332 N 
HETATM   13  C   UNL     1       6.105  27.243  54.069  1.00  0.00     0.057 C 
HETATM   14  H   UNL     1       5.391  26.668  52.219  1.00  0.00     0.168 HD
HETATM   15  C   UNL     1       6.203  28.264  54.943  1.00  0.00     0.047 C 
BRANCH  13  16
HETATM   16  C   UNL     1       6.684  25.904  54.252  1.00  0.00    -0.009 A 
HETATM   17  C   UNL     1       6.176  25.038  55.229  1.00  0.00     0.014 A 
HETATM   18  C   UNL     1       6.694  23.749  55.365  1.00  0.00     0.001 A 
HETATM   19  C   UNL     1       7.716  23.315  54.523  1.00  0.00     0.000 A 
HETATM   20  C   UNL     1       8.225  24.170  53.547  1.00  0.00     0.001 A 
HETATM   21  C   UNL     1       7.712  25.461  53.410  1.00  0.00     0.014 A 
ENDBRANCH  13  16
BRANCH  15  22
HETATM   22  C   UNL     1       6.847  28.080  56.275  1.00  0.00     0.193 C 
HETATM   23  O   UNL     1       6.289  27.449  57.167  1.00  0.00    -0.287 OA
BRANCH  22  24
HETATM   24  C   UNL     1       8.111  28.808  56.563  1.00  0.00     0.015 A 
HETATM   25  C   UNL     1       8.297  29.313  57.858  1.00  0.00     0.015 A 
HETATM   26  C   UNL     1       9.443  30.046  58.166  1.00  0.00     0.001 A 
HETATM   27  C   UNL     1      10.410  30.268  57.187  1.00  0.00     0.000 A 
HETATM   28  C   UNL     1      10.240  29.749  55.903  1.00  0.00     0.001 A 
HETATM   29  C   UNL     1       9.095  29.012  55.589  1.00  0.00     0.015 A 
ENDBRANCH  22  24
ENDBRANCH  15  22
ENDBRANCH   5   7
BRANCH   1  30
HETATM   30  O   UNL     1       5.266  33.598  57.576  1.00  0.00    -0.349 OA
BRANCH  30  31
HETATM   31  C   UNL     1       4.773  34.691  56.792  1.00  0.00     0.171 C 
HETATM   32  C   UNL     1       4.323  35.815  57.707  1.00  0.00     0.034 C 
ENDBRANCH  30  31
ENDBRANCH   1  30
BRANCH   2  33
HETATM   33  O   UNL     1       3.057  32.432  58.823  1.00  0.00    -0.339 OA
BRANCH  33  34
HETATM   34  C   UNL     1       3.237  31.849  60.122  1.00  0.00     0.278 C 
BRANCH  34  35
HETATM   35  C   UNL     1       4.137  32.731  61.003  1.00  0.00     0.246 C 
HETATM   36  N   UNL     1       4.699  32.020  62.053  1.00  0.00    -0.323 N 
HETATM   37  H   UNL     1       4.602  31.017  61.960  1.00  0.00     0.169 HD
HETATM   38  O   UNL     1       4.354  33.901  60.700  1.00  0.00    -0.271 OA
BRANCH  36  39
HETATM   39  C   UNL     1       5.629  32.489  63.003  1.00  0.00     0.068 A 
HETATM   40  C   UNL     1       5.295  33.202  64.169  1.00  0.00     0.095 A 
HETATM   41  C   UNL     1       6.325  33.664  65.000  1.00  0.00     0.039 A 
HETATM   42  C   UNL     1       7.664  33.386  64.705  1.00  0.00     0.003 A 
HETATM   43  C   UNL     1       7.986  32.624  63.590  1.00  0.00     0.002 A 
HETATM   44  C   UNL     1       6.973  32.168  62.749  1.00  0.00     0.032 A 
BRANCH  40  45
HETATM   45  O   UNL     1       3.966  33.304  64.480  1.00  0.00    -0.354 OA
HETATM   46  C   UNL     1       3.526  34.467  65.166  1.00  0.00     0.210 C 
ENDBRANCH  40  45
ENDBRANCH  36  39
ENDBRANCH  34  35
ENDBRANCH  33  34
ENDBRANCH   2  33
TORSDOF 11
ENDMDL
MODEL 2
REMARK VINA RESULT:      -9.9      2.662      9.924
REMARK  11 active torsions:
REMARK  status: ('A' for Active; 'I' for Inactive)
REMARK    1  A    between atoms: C_2  and  O_3 
REMARK    2  A    between atoms: O_3  and  C_4 
REMARK    3  A    between atoms: C_5  and  O_6 
REMARK    4  A    between atoms: O_6  and  C_7 
REMARK    5  A    between atoms: C_7  and  C_8 
REMARK       I    between atoms: C_8  and  N_9 
REMARK    6  A    between atoms: N_9  and  C_10 
REMARK    7  A    between atoms: C_11  and  O_12 
REMARK    8  A    between atoms: C_21  and  C_22 
REMARK    9  A    between atoms: C_27  and  C_28 
REMARK   10  A    between atoms: C_34  and  C_35 
REMARK   11  A    between atoms: C_35  and  C_36 
ROOT
HETATM    1  C   UNL     1       6.713  30.793  57.859  1.00  0.00     0.102 A 
HETATM    2  C   UNL     1       5.958  29.667  57.517  1.00  0.00     0.102 A 
HETATM    3  C   UNL     1       4.566  29.694  57.608  1.00  0.00     0.040 A 
HETATM    4  C   UNL     1       3.915  30.860  58.002  1.00  0.00     0.012 A 
HETATM    5  C   UNL     1       4.649  32.011  58.321  1.00  0.00    -0.028 A 
HETATM    6  C   UNL     1       6.052  31.974  58.212  1.00  0.00     0.049 A 
ENDROOT
BRANCH   5   7
HETATM    7  C   UNL     1       3.924  33.259  58.791  1.00  0.00     0.157 C 
HETATM    8  N   UNL     1       4.191  34.338  57.857  1.00  0.00    -0.354 N 
HETATM    9  C   UNL     1       4.125  35.649  58.200  1.00  0.00     0.173 C 
HETATM   10  H   UNL     1       4.145  34.136  56.865  1.00  0.00     0.163 HD
HETATM   11  S   UNL     1       4.067  36.842  57.048  1.00  0.00    -0.041 SA
HETATM   12  N   UNL     1       4.150  35.935  59.529  1.00  0.00    -0.332 N 
HETATM   13  C   UNL     1       4.283  34.994  60.526  1.00  0.00     0.057 C 
HETATM   14  H   UNL     1       4.191  36.918  59.782  1.00  0.00     0.168 HD
HETATM   15  C   UNL     1       4.202  33.687  60.211  1.00  0.00     0.047 C 
BRANCH  13  16
HETATM   16  C   UNL     1       4.478  35.536  61.879  1.00  0.00    -0.009 A 
HETATM   17  C   UNL     1       5.702  36.109  62.245  1.00  0.00     0.014 A 
HETATM   18  C   UNL     1       5.867  36.669  63.513  1.00  0.00     0.001 A 
HETATM   19  C   UNL     1       4.809  36.665  64.420  1.00  0.00     0.000 A 
HETATM   20  C   UNL     1       3.586  36.100  64.062  1.00  0.00     0.001 A 
HETATM   21  C   UNL     1       3.419  35.537  62.796  1.00  0.00     0.014 A 
ENDBRANCH  13  16
BRANCH  15  22
HETATM   22  C   UNL     1       4.415  32.630  61.242  1.00  0.00     0.193 C 
HETATM   23  O   UNL     1       3.528  31.831  61.524  1.00  0.00    -0.287 OA
BRANCH  22  24
HETATM   24  C   UNL     1       5.669  32.657  62.042  1.00  0.00     0.015 A 
HETATM   25  C   UNL     1       5.556  32.738  63.436  1.00  0.00     0.015 A 
HETATM   26  C   UNL     1       6.701  32.816  64.229  1.00  0.00     0.001 A 
HETATM   27  C   UNL     1       7.961  32.801  63.633  1.00  0.00     0.000 A 
HETATM   28  C   UNL     1       8.079  32.697  62.246  1.00  0.00     0.001 A 
HETATM   29  C   UNL     1       6.935  32.617  61.448  1.00  0.00     0.015 A 
ENDBRANCH  22  24
ENDBRANCH  15  22
ENDBRANCH   5   7
BRANCH   1  30
HETATM   30  O   UNL     1       8.078  30.695  57.796  1.00  0.00    -0.349 OA
BRANCH  30  31
HETATM   31  C   UNL     1       8.749  30.612  59.059  1.00  0.00     0.171 C 
HETATM   32  C   UNL     1       9.813  31.691  59.145  1.00  0.00     0.034 C 
ENDBRANCH  30  31
ENDBRANCH   1  30
BRANCH   2  33
HETATM   33  O   UNL     1       6.519  28.461  57.186  1.00  0.00    -0.339 OA
BRANCH  33  34
HETATM   34  C   UNL     1       6.590  28.248  55.768  1.00  0.00     0.278 C 
BRANCH  34  35
HETATM   35  C   UNL     1       6.356  26.769  55.420  1.00  0.00     0.246 C 
HETATM   36  N   UNL     1       7.488  26.171  54.886  1.00  0.00    -0.323 N 
HETATM   37  H   UNL     1       8.328  26.725  55.000  1.00  0.00     0.169 HD
HETATM   38  O   UNL     1       5.289  26.225  55.691  1.00  0.00    -0.271 OA
BRANCH  36  39
HETATM   39  C   UNL     1       7.655  24.818  54.530  1.00  0.00     0.068 A 
HETATM   40  C   UNL     1       7.860  23.768  55.444  1.00  0.00     0.095 A 
HETATM   41  C   UNL     1       8.074  22.472  54.952  1.00  0.00     0.039 A 
HETATM   42  C   UNL     1       8.039  22.213  53.578  1.00  0.00     0.003 A 
HETATM   43  C   UNL     1       7.768  23.240  52.683  1.00  0.00     0.002 A 
HETATM   44  C   UNL     1       7.565  24.534  53.158  1.00  0.00     0.032 A 
BRANCH  40  45
HETATM   45  O   UNL     1       7.727  24.061  56.774  1.00  0.00    -0.354 OA
HETATM   46  C   UNL     1       8.897  24.389  57.508  1.00  0.00     0.210 C 
ENDBRANCH  40  45
ENDBRANCH  36  39
ENDBRANCH  34  35
ENDBRANCH  33  34
ENDBRANCH   2  33
TORSDOF 11
ENDMDL
MODEL 3
REMARK VINA RESULT:      -9.9      2.734     10.053
REMARK  11 active torsions:
REMARK  status: ('A' for Active; 'I' for Inactive)
REMARK    1  A    between atoms: C_2  and  O_3 
REMARK    2  A    between atoms: O_3  and  C_4 
REMARK    3  A    between atoms: C_5  and  O_6 
REMARK    4  A    between atoms: O_6  and  C_7 
REMARK    5  A    between atoms: C_7  and  C_8 
REMARK       I    between atoms: C_8  and  N_9 
REMARK    6  A    between atoms: N_9  and  C_10 
REMARK    7  A    between atoms: C_11  and  O_12 
REMARK    8  A    between atoms: C_21  and  C_22 
REMARK    9  A    between atoms: C_27  and  C_28 
REMARK   10  A    between atoms: C_34  and  C_35 
REMARK   11  A    between atoms: C_35  and  C_36 
ROOT
HETATM    1  C   UNL     1       6.746  30.709  57.850  1.00  0.00     0.102 A 
HETATM    2  C   UNL     1       5.989  29.566  57.573  1.00  0.00     0.102 A 
HETATM    3  C   UNL     1       4.599  29.594  57.686  1.00  0.00     0.040 A 
HETATM    4  C   UNL     1       3.950  30.775  58.036  1.00  0.00     0.012 A 
HETATM    5  C   UNL     1       4.685  31.941  58.289  1.00  0.00    -0.028 A 
HETATM    6  C   UNL     1       6.086  31.903  58.159  1.00  0.00     0.049 A 
ENDROOT
BRANCH   5   7
HETATM    7  C   UNL     1       3.964  33.208  58.713  1.00  0.00     0.157 C 
HETATM    8  N   UNL     1       4.255  34.258  57.755  1.00  0.00    -0.354 N 
HETATM    9  C   UNL     1       4.195  35.578  58.061  1.00  0.00     0.173 C 
HETATM   10  H   UNL     1       4.224  34.030  56.768  1.00  0.00     0.163 HD
HETATM   11  S   UNL     1       4.167  36.740  56.876  1.00  0.00    -0.041 SA
HETATM   12  N   UNL     1       4.200  35.900  59.382  1.00  0.00    -0.332 N 
HETATM   13  C   UNL     1       4.309  34.986  60.406  1.00  0.00     0.057 C 
HETATM   14  H   UNL     1       4.246  36.890  59.608  1.00  0.00     0.168 HD
HETATM   15  C   UNL     1       4.221  33.672  60.125  1.00  0.00     0.047 C 
BRANCH  13  16
HETATM   16  C   UNL     1       4.486  35.564  61.747  1.00  0.00    -0.009 A 
HETATM   17  C   UNL     1       5.714  36.122  62.123  1.00  0.00     0.014 A 
HETATM   18  C   UNL     1       5.863  36.714  63.378  1.00  0.00     0.001 A 
HETATM   19  C   UNL     1       4.786  36.759  64.261  1.00  0.00     0.000 A 
HETATM   20  C   UNL     1       3.559  36.209  63.893  1.00  0.00     0.001 A 
HETATM   21  C   UNL     1       3.408  35.613  62.640  1.00  0.00     0.014 A 
ENDBRANCH  13  16
BRANCH  15  22
HETATM   22  C   UNL     1       4.408  32.642  61.188  1.00  0.00     0.193 C 
HETATM   23  O   UNL     1       3.503  31.871  61.490  1.00  0.00    -0.287 OA
BRANCH  22  24
HETATM   24  C   UNL     1       5.659  32.665  61.992  1.00  0.00     0.015 A 
HETATM   25  C   UNL     1       5.542  32.767  63.385  1.00  0.00     0.015 A 
HETATM   26  C   UNL     1       6.686  32.842  64.180  1.00  0.00     0.001 A 
HETATM   27  C   UNL     1       7.947  32.805  63.589  1.00  0.00     0.000 A 
HETATM   28  C   UNL     1       8.069  32.682  62.204  1.00  0.00     0.001 A 
HETATM   29  C   UNL     1       6.927  32.604  61.403  1.00  0.00     0.015 A 
ENDBRANCH  22  24
ENDBRANCH  15  22
ENDBRANCH   5   7
BRANCH   1  30
HETATM   30  O   UNL     1       8.109  30.612  57.769  1.00  0.00    -0.349 OA
BRANCH  30  31
HETATM   31  C   UNL     1       8.801  30.573  59.024  1.00  0.00     0.171 C 
HETATM   32  C   UNL     1       9.837  31.681  59.071  1.00  0.00     0.034 C 
ENDBRANCH  30  31
ENDBRANCH   1  30
BRANCH   2  33
HETATM   33  O   UNL     1       6.548  28.348  57.289  1.00  0.00    -0.339 OA
BRANCH  33  34
HETATM   34  C   UNL     1       5.857  27.644  56.247  1.00  0.00     0.278 C 
BRANCH  34  35
HETATM   35  C   UNL     1       6.834  26.809  55.402  1.00  0.00     0.246 C 
HETATM   36  N   UNL     1       6.603  25.448  55.529  1.00  0.00    -0.323 N 
HETATM   37  H   UNL     1       5.723  25.227  55.978  1.00  0.00     0.169 HD
HETATM   38  O   UNL     1       7.643  27.358  54.659  1.00  0.00    -0.271 OA
BRANCH  36  39
HETATM   39  C   UNL     1       7.253  24.402  54.843  1.00  0.00     0.068 A 
HETATM   40  C   UNL     1       6.914  23.958  53.552  1.00  0.00     0.095 A 
HETATM   41  C   UNL     1       7.603  22.864  53.008  1.00  0.00     0.039 A 
HETATM   42  C   UNL     1       8.641  22.248  53.714  1.00  0.00     0.003 A 
HETATM   43  C   UNL     1       9.018  22.732  54.960  1.00  0.00     0.002 A 
HETATM   44  C   UNL     1       8.334  23.811  55.517  1.00  0.00     0.032 A 
BRANCH  40  45
HETATM   45  O   UNL     1       6.000  24.701  52.855  1.00  0.00    -0.354 OA
HETATM   46  C   UNL     1       6.471  25.520  51.795  1.00  0.00     0.210 C 
ENDBRANCH  40  45
ENDBRANCH  36  39
ENDBRANCH  34  35
ENDBRANCH  33  34
ENDBRANCH   2  33
TORSDOF 11
ENDMDL
MODEL 4
REMARK VINA RESULT:      -9.8      0.759      1.692
REMARK  11 active torsions:
REMARK  status: ('A' for Active; 'I' for Inactive)
REMARK    1  A    between atoms: C_2  and  O_3 
REMARK    2  A    between atoms: O_3  and  C_4 
REMARK    3  A    between atoms: C_5  and  O_6 
REMARK    4  A    between atoms: O_6  and  C_7 
REMARK    5  A    between atoms: C_7  and  C_8 
REMARK       I    between atoms: C_8  and  N_9 
REMARK    6  A    between atoms: N_9  and  C_10 
REMARK    7  A    between atoms: C_11  and  O_12 
REMARK    8  A    between atoms: C_21  and  C_22 
REMARK    9  A    between atoms: C_27  and  C_28 
REMARK   10  A    between atoms: C_34  and  C_35 
REMARK   11  A    between atoms: C_35  and  C_36 
ROOT
HETATM    1  C   UNL     1       4.868  32.235  57.189  1.00  0.00     0.102 A 
HETATM    2  C   UNL     1       3.722  31.690  57.778  1.00  0.00     0.102 A 
HETATM    3  C   UNL     1       3.184  30.493  57.303  1.00  0.00     0.040 A 
HETATM    4  C   UNL     1       3.810  29.809  56.265  1.00  0.00     0.012 A 
HETATM    5  C   UNL     1       4.976  30.321  55.679  1.00  0.00    -0.028 A 
HETATM    6  C   UNL     1       5.516  31.522  56.176  1.00  0.00     0.049 A 
ENDROOT
BRANCH   5   7
HETATM    7  C   UNL     1       5.620  29.584  54.518  1.00  0.00     0.157 C 
HETATM    8  N   UNL     1       4.670  29.508  53.424  1.00  0.00    -0.354 N 
HETATM    9  C   UNL     1       4.714  28.545  52.469  1.00  0.00     0.173 C 
HETATM   10  H   UNL     1       4.138  30.338  53.191  1.00  0.00     0.163 HD
HETATM   11  S   UNL     1       3.866  28.694  51.051  1.00  0.00    -0.041 SA
HETATM   12  N   UNL     1       5.453  27.438  52.751  1.00  0.00    -0.332 N 
HETATM   13  C   UNL     1       6.107  27.221  53.943  1.00  0.00     0.057 C 
HETATM   14  H   UNL     1       5.412  26.681  52.076  1.00  0.00     0.168 HD
HETATM   15  C   UNL     1       6.194  28.225  54.837  1.00  0.00     0.047 C 
BRANCH  13  16
HETATM   16  C   UNL     1       6.686  25.879  54.107  1.00  0.00    -0.009 A 
HETATM   17  C   UNL     1       6.183  25.002  55.076  1.00  0.00     0.014 A 
HETATM   18  C   UNL     1       6.700  23.711  55.194  1.00  0.00     0.001 A 
HETATM   19  C   UNL     1       7.717  23.287  54.341  1.00  0.00     0.000 A 
HETATM   20  C   UNL     1       8.222  24.153  53.371  1.00  0.00     0.001 A 
HETATM   21  C   UNL     1       7.708  25.446  53.253  1.00  0.00     0.014 A 
ENDBRANCH  13  16
BRANCH  15  22
HETATM   22  C   UNL     1       6.826  28.017  56.172  1.00  0.00     0.193 C 
HETATM   23  O   UNL     1       6.285  27.322  57.027  1.00  0.00    -0.287 OA
BRANCH  22  24
HETATM   24  C   UNL     1       8.047  28.793  56.513  1.00  0.00     0.015 A 
HETATM   25  C   UNL     1       8.997  29.000  55.504  1.00  0.00     0.015 A 
HETATM   26  C   UNL     1      10.182  29.680  55.786  1.00  0.00     0.001 A 
HETATM   27  C   UNL     1      10.417  30.164  57.071  1.00  0.00     0.000 A 
HETATM   28  C   UNL     1       9.464  29.980  58.074  1.00  0.00     0.001 A 
HETATM   29  C   UNL     1       8.275  29.302  57.797  1.00  0.00     0.015 A 
ENDBRANCH  22  24
ENDBRANCH  15  22
ENDBRANCH   5   7
BRANCH   1  30
HETATM   30  O   UNL     1       5.325  33.435  57.663  1.00  0.00    -0.349 OA
BRANCH  30  31
HETATM   31  C   UNL     1       4.606  34.591  57.213  1.00  0.00     0.171 C 
HETATM   32  C   UNL     1       5.029  34.937  55.797  1.00  0.00     0.034 C 
ENDBRANCH  30  31
ENDBRANCH   1  30
BRANCH   2  33
HETATM   33  O   UNL     1       3.006  32.329  58.756  1.00  0.00    -0.339 OA
BRANCH  33  34
HETATM   34  C   UNL     1       3.186  31.743  60.053  1.00  0.00     0.278 C 
BRANCH  34  35
HETATM   35  C   UNL     1       4.078  32.628  60.940  1.00  0.00     0.246 C 
HETATM   36  N   UNL     1       4.761  31.891  61.896  1.00  0.00    -0.323 N 
HETATM   37  H   UNL     1       4.731  30.892  61.734  1.00  0.00     0.169 HD
HETATM   38  O   UNL     1       4.188  33.829  60.713  1.00  0.00    -0.271 OA
BRANCH  36  39
HETATM   39  C   UNL     1       5.717  32.361  62.818  1.00  0.00     0.068 A 
HETATM   40  C   UNL     1       7.106  32.169  62.702  1.00  0.00     0.095 A 
HETATM   41  C   UNL     1       7.944  32.637  63.724  1.00  0.00     0.039 A 
HETATM   42  C   UNL     1       7.419  33.325  64.823  1.00  0.00     0.003 A 
HETATM   43  C   UNL     1       6.054  33.573  64.901  1.00  0.00     0.002 A 
HETATM   44  C   UNL     1       5.209  33.103  63.897  1.00  0.00     0.032 A 
BRANCH  40  45
HETATM   45  O   UNL     1       7.567  31.630  61.531  1.00  0.00    -0.354 OA
HETATM   46  C   UNL     1       8.053  32.514  60.532  1.00  0.00     0.210 C 
ENDBRANCH  40  45
ENDBRANCH  36  39
ENDBRANCH  34  35
ENDBRANCH  33  34
ENDBRANCH   2  33
TORSDOF 11
ENDMDL
MODEL 5
REMARK VINA RESULT:      -9.7      1.777      2.335
REMARK  11 active torsions:
REMARK  status: ('A' for Active; 'I' for Inactive)
REMARK    1  A    between atoms: C_2  and  O_3 
REMARK    2  A    between atoms: O_3  and  C_4 
REMARK    3  A    between atoms: C_5  and  O_6 
REMARK    4  A    between atoms: O_6  and  C_7 
REMARK    5  A    between atoms: C_7  and  C_8 
REMARK       I    between atoms: C_8  and  N_9 
REMARK    6  A    between atoms: N_9  and  C_10 
REMARK    7  A    between atoms: C_11  and  O_12 
REMARK    8  A    between atoms: C_21  and  C_22 
REMARK    9  A    between atoms: C_27  and  C_28 
REMARK   10  A    between atoms: C_34  and  C_35 
REMARK   11  A    between atoms: C_35  and  C_36 
ROOT
HETATM    1  C   UNL     1       4.609  32.367  56.640  1.00  0.00     0.102 A 
HETATM    2  C   UNL     1       3.626  31.763  57.431  1.00  0.00     0.102 A 
HETATM    3  C   UNL     1       2.991  30.597  57.000  1.00  0.00     0.040 A 
HETATM    4  C   UNL     1       3.361  30.003  55.797  1.00  0.00     0.012 A 
HETATM    5  C   UNL     1       4.364  30.575  55.002  1.00  0.00    -0.028 A 
HETATM    6  C   UNL     1       5.006  31.744  55.454  1.00  0.00     0.049 A 
ENDROOT
BRANCH   5   7
HETATM    7  C   UNL     1       4.723  29.939  53.671  1.00  0.00     0.157 C 
HETATM    8  N   UNL     1       3.520  29.812  52.870  1.00  0.00    -0.354 N 
HETATM    9  C   UNL     1       3.378  28.888  51.886  1.00  0.00     0.173 C 
HETATM   10  H   UNL     1       2.881  30.597  52.836  1.00  0.00     0.163 HD
HETATM   11  S   UNL     1       2.166  29.005  50.759  1.00  0.00    -0.041 SA
HETATM   12  N   UNL     1       4.251  27.846  51.896  1.00  0.00    -0.332 N 
HETATM   13  C   UNL     1       5.220  27.650  52.855  1.00  0.00     0.057 C 
HETATM   14  H   UNL     1       4.088  27.110  51.215  1.00  0.00     0.168 HD
HETATM   15  C   UNL     1       5.468  28.628  53.747  1.00  0.00     0.047 C 
BRANCH  13  16
HETATM   16  C   UNL     1       5.926  26.362  52.781  1.00  0.00    -0.009 A 
HETATM   17  C   UNL     1       7.255  26.304  52.344  1.00  0.00     0.014 A 
HETATM   18  C   UNL     1       7.937  25.087  52.323  1.00  0.00     0.001 A 
HETATM   19  C   UNL     1       7.299  23.923  52.746  1.00  0.00     0.000 A 
HETATM   20  C   UNL     1       5.977  23.972  53.186  1.00  0.00     0.001 A 
HETATM   21  C   UNL     1       5.291  25.187  53.205  1.00  0.00     0.014 A 
ENDBRANCH  13  16
BRANCH  15  22
HETATM   22  C   UNL     1       6.454  28.435  54.850  1.00  0.00     0.193 C 
HETATM   23  O   UNL     1       7.445  29.151  54.947  1.00  0.00    -0.287 OA
BRANCH  22  24
HETATM   24  C   UNL     1       6.304  27.256  55.743  1.00  0.00     0.015 A 
HETATM   25  C   UNL     1       7.431  26.455  55.968  1.00  0.00     0.015 A 
HETATM   26  C   UNL     1       7.331  25.309  56.758  1.00  0.00     0.001 A 
HETATM   27  C   UNL     1       6.109  24.967  57.334  1.00  0.00     0.000 A 
HETATM   28  C   UNL     1       4.988  25.774  57.131  1.00  0.00     0.001 A 
HETATM   29  C   UNL     1       5.084  26.923  56.342  1.00  0.00     0.015 A 
ENDBRANCH  22  24
ENDBRANCH  15  22
ENDBRANCH   5   7
BRANCH   1  30
HETATM   30  O   UNL     1       5.166  33.535  57.089  1.00  0.00    -0.349 OA
BRANCH  30  31
HETATM   31  C   UNL     1       4.703  34.728  56.444  1.00  0.00     0.171 C 
HETATM   32  C   UNL     1       4.331  35.764  57.490  1.00  0.00     0.034 C 
ENDBRANCH  30  31
ENDBRANCH   1  30
BRANCH   2  33
HETATM   33  O   UNL     1       3.155  32.314  58.593  1.00  0.00    -0.339 OA
BRANCH  33  34
HETATM   34  C   UNL     1       3.609  31.622  59.765  1.00  0.00     0.278 C 
BRANCH  34  35
HETATM   35  C   UNL     1       4.376  32.568  60.704  1.00  0.00     0.246 C 
HETATM   36  N   UNL     1       4.886  31.906  61.811  1.00  0.00    -0.323 N 
HETATM   37  H   UNL     1       4.855  30.897  61.728  1.00  0.00     0.169 HD
HETATM   38  O   UNL     1       4.550  33.744  60.399  1.00  0.00    -0.271 OA
BRANCH  36  39
HETATM   39  C   UNL     1       5.701  32.441  62.828  1.00  0.00     0.068 A 
HETATM   40  C   UNL     1       5.236  33.231  63.896  1.00  0.00     0.095 A 
HETATM   41  C   UNL     1       6.165  33.754  64.808  1.00  0.00     0.039 A 
HETATM   42  C   UNL     1       7.528  33.461  64.690  1.00  0.00     0.003 A 
HETATM   43  C   UNL     1       7.974  32.625  63.675  1.00  0.00     0.002 A 
HETATM   44  C   UNL     1       7.063  32.109  62.755  1.00  0.00     0.032 A 
BRANCH  40  45
HETATM   45  O   UNL     1       3.881  33.349  64.043  1.00  0.00    -0.354 OA
HETATM   46  C   UNL     1       3.384  34.411  64.843  1.00  0.00     0.210 C 
ENDBRANCH  40  45
ENDBRANCH  36  39
ENDBRANCH  34  35
ENDBRANCH  33  34
ENDBRANCH   2  33
TORSDOF 11
ENDMDL
MODEL 6
REMARK VINA RESULT:      -9.2      2.797     10.089
REMARK  11 active torsions:
REMARK  status: ('A' for Active; 'I' for Inactive)
REMARK    1  A    between atoms: C_2  and  O_3 
REMARK    2  A    between atoms: O_3  and  C_4 
REMARK    3  A    between atoms: C_5  and  O_6 
REMARK    4  A    between atoms: O_6  and  C_7 
REMARK    5  A    between atoms: C_7  and  C_8 
REMARK       I    between atoms: C_8  and  N_9 
REMARK    6  A    between atoms: N_9  and  C_10 
REMARK    7  A    between atoms: C_11  and  O_12 
REMARK    8  A    between atoms: C_21  and  C_22 
REMARK    9  A    between atoms: C_27  and  C_28 
REMARK   10  A    between atoms: C_34  and  C_35 
REMARK   11  A    between atoms: C_35  and  C_36 
ROOT
HETATM    1  C   UNL     1       6.535  30.864  57.895  1.00  0.00     0.102 A 
HETATM    2  C   UNL     1       5.739  29.735  57.675  1.00  0.00     0.102 A 
HETATM    3  C   UNL     1       4.355  29.803  57.839  1.00  0.00     0.040 A 
HETATM    4  C   UNL     1       3.750  31.009  58.183  1.00  0.00     0.012 A 
HETATM    5  C   UNL     1       4.525  32.161  58.379  1.00  0.00    -0.028 A 
HETATM    6  C   UNL     1       5.919  32.082  58.198  1.00  0.00     0.049 A 
ENDROOT
BRANCH   5   7
HETATM    7  C   UNL     1       3.853  33.457  58.797  1.00  0.00     0.157 C 
HETATM    8  N   UNL     1       4.186  34.491  57.835  1.00  0.00    -0.354 N 
HETATM    9  C   UNL     1       4.176  35.814  58.136  1.00  0.00     0.173 C 
HETATM   10  H   UNL     1       4.146  34.260  56.849  1.00  0.00     0.163 HD
HETATM   11  S   UNL     1       4.194  36.971  56.947  1.00  0.00    -0.041 SA
HETATM   12  N   UNL     1       4.193  36.141  59.456  1.00  0.00    -0.332 N 
HETATM   13  C   UNL     1       4.266  35.227  60.484  1.00  0.00     0.057 C 
HETATM   14  H   UNL     1       4.278  37.128  59.678  1.00  0.00     0.168 HD
HETATM   15  C   UNL     1       4.128  33.916  60.208  1.00  0.00     0.047 C 
BRANCH  13  16
HETATM   16  C   UNL     1       4.465  35.803  61.823  1.00  0.00    -0.009 A 
HETATM   17  C   UNL     1       3.422  35.805  62.757  1.00  0.00     0.014 A 
HETATM   18  C   UNL     1       3.630  36.305  64.043  1.00  0.00     0.001 A 
HETATM   19  C   UNL     1       4.881  36.800  64.405  1.00  0.00     0.000 A 
HETATM   20  C   UNL     1       5.925  36.800  63.482  1.00  0.00     0.001 A 
HETATM   21  C   UNL     1       5.720  36.302  62.194  1.00  0.00     0.014 A 
ENDBRANCH  13  16
BRANCH  15  22
HETATM   22  C   UNL     1       4.275  32.884  61.275  1.00  0.00     0.193 C 
HETATM   23  O   UNL     1       3.330  32.172  61.602  1.00  0.00    -0.287 OA
BRANCH  22  24
HETATM   24  C   UNL     1       5.541  32.836  62.052  1.00  0.00     0.015 A 
HETATM   25  C   UNL     1       5.457  32.907  63.449  1.00  0.00     0.015 A 
HETATM   26  C   UNL     1       6.619  32.916  64.222  1.00  0.00     0.001 A 
HETATM   27  C   UNL     1       7.866  32.843  63.603  1.00  0.00     0.000 A 
HETATM   28  C   UNL     1       7.954  32.749  62.213  1.00  0.00     0.001 A 
HETATM   29  C   UNL     1       6.793  32.738  61.435  1.00  0.00     0.015 A 
ENDBRANCH  22  24
ENDBRANCH  15  22
ENDBRANCH   5   7
BRANCH   1  30
HETATM   30  O   UNL     1       7.891  30.729  57.767  1.00  0.00    -0.349 OA
BRANCH  30  31
HETATM   31  C   UNL     1       8.672  31.290  58.829  1.00  0.00     0.171 C 
HETATM   32  C   UNL     1      10.118  31.423  58.388  1.00  0.00     0.034 C 
ENDBRANCH  30  31
ENDBRANCH   1  30
BRANCH   2  33
HETATM   33  O   UNL     1       6.256  28.496  57.401  1.00  0.00    -0.339 OA
BRANCH  33  34
HETATM   34  C   UNL     1       5.332  27.646  56.705  1.00  0.00     0.278 C 
BRANCH  34  35
HETATM   35  C   UNL     1       5.776  27.423  55.250  1.00  0.00     0.246 C 
HETATM   36  N   UNL     1       4.701  27.173  54.409  1.00  0.00    -0.323 N 
HETATM   37  H   UNL     1       3.803  27.378  54.829  1.00  0.00     0.169 HD
HETATM   38  O   UNL     1       6.954  27.551  54.930  1.00  0.00    -0.271 OA
BRANCH  36  39
HETATM   39  C   UNL     1       4.732  27.002  53.010  1.00  0.00     0.068 A 
HETATM   40  C   UNL     1       5.107  25.814  52.356  1.00  0.00     0.095 A 
HETATM   41  C   UNL     1       5.153  25.797  50.954  1.00  0.00     0.039 A 
HETATM   42  C   UNL     1       4.789  26.926  50.211  1.00  0.00     0.003 A 
HETATM   43  C   UNL     1       4.354  28.074  50.860  1.00  0.00     0.002 A 
HETATM   44  C   UNL     1       4.315  28.108  52.252  1.00  0.00     0.032 A 
BRANCH  40  45
HETATM   45  O   UNL     1       5.298  24.705  53.133  1.00  0.00    -0.354 OA
HETATM   46  C   UNL     1       6.600  24.142  53.189  1.00  0.00     0.210 C 
ENDBRANCH  40  45
ENDBRANCH  36  39
ENDBRANCH  34  35
ENDBRANCH  33  34
ENDBRANCH   2  33
TORSDOF 11
ENDMDL
MODEL 7
REMARK VINA RESULT:      -9.1      3.028      9.472
REMARK  11 active torsions:
REMARK  status: ('A' for Active; 'I' for Inactive)
REMARK    1  A    between atoms: C_2  and  O_3 
REMARK    2  A    between atoms: O_3  and  C_4 
REMARK    3  A    between atoms: C_5  and  O_6 
REMARK    4  A    between atoms: O_6  and  C_7 
REMARK    5  A    between atoms: C_7  and  C_8 
REMARK       I    between atoms: C_8  and  N_9 
REMARK    6  A    between atoms: N_9  and  C_10 
REMARK    7  A    between atoms: C_11  and  O_12 
REMARK    8  A    between atoms: C_21  and  C_22 
REMARK    9  A    between atoms: C_27  and  C_28 
REMARK   10  A    between atoms: C_34  and  C_35 
REMARK   11  A    between atoms: C_35  and  C_36 
ROOT
HETATM    1  C   UNL     1       4.779  33.115  57.204  1.00  0.00     0.102 A 
HETATM    2  C   UNL     1       4.480  31.752  57.096  1.00  0.00     0.102 A 
HETATM    3  C   UNL     1       3.838  31.085  58.140  1.00  0.00     0.040 A 
HETATM    4  C   UNL     1       3.453  31.780  59.283  1.00  0.00     0.012 A 
HETATM    5  C   UNL     1       3.716  33.152  59.401  1.00  0.00    -0.028 A 
HETATM    6  C   UNL     1       4.351  33.817  58.335  1.00  0.00     0.049 A 
ENDROOT
BRANCH   5   7
HETATM    7  C   UNL     1       3.328  33.885  60.673  1.00  0.00     0.157 C 
HETATM    8  N   UNL     1       3.256  35.307  60.393  1.00  0.00    -0.354 N 
HETATM    9  C   UNL     1       3.419  36.259  61.345  1.00  0.00     0.173 C 
HETATM   10  H   UNL     1       2.794  35.606  59.542  1.00  0.00     0.163 HD
HETATM   11  S   UNL     1       2.970  37.834  61.079  1.00  0.00    -0.041 SA
HETATM   12  N   UNL     1       4.005  35.867  62.508  1.00  0.00    -0.332 N 
HETATM   13  C   UNL     1       4.476  34.596  62.753  1.00  0.00     0.057 C 
HETATM   14  H   UNL     1       4.209  36.597  63.184  1.00  0.00     0.168 HD
HETATM   15  C   UNL     1       4.190  33.610  61.880  1.00  0.00     0.047 C 
BRANCH  13  16
HETATM   16  C   UNL     1       5.243  34.439  63.998  1.00  0.00    -0.009 A 
HETATM   17  C   UNL     1       4.587  34.175  65.207  1.00  0.00     0.014 A 
HETATM   18  C   UNL     1       5.321  33.976  66.377  1.00  0.00     0.001 A 
HETATM   19  C   UNL     1       6.713  34.034  66.345  1.00  0.00     0.000 A 
HETATM   20  C   UNL     1       7.374  34.293  65.145  1.00  0.00     0.001 A 
HETATM   21  C   UNL     1       6.642  34.495  63.974  1.00  0.00     0.014 A 
ENDBRANCH  13  16
BRANCH  15  22
HETATM   22  C   UNL     1       4.740  32.236  62.062  1.00  0.00     0.193 C 
HETATM   23  O   UNL     1       4.053  31.335  62.532  1.00  0.00    -0.287 OA
BRANCH  22  24
HETATM   24  C   UNL     1       6.188  32.008  61.813  1.00  0.00     0.015 A 
HETATM   25  C   UNL     1       6.903  31.244  62.745  1.00  0.00     0.015 A 
HETATM   26  C   UNL     1       8.274  31.042  62.582  1.00  0.00     0.001 A 
HETATM   27  C   UNL     1       8.932  31.594  61.485  1.00  0.00     0.000 A 
HETATM   28  C   UNL     1       8.221  32.338  60.542  1.00  0.00     0.001 A 
HETATM   29  C   UNL     1       6.847  32.541  60.699  1.00  0.00     0.015 A 
ENDBRANCH  22  24
ENDBRANCH  15  22
ENDBRANCH   5   7
BRANCH   1  30
HETATM   30  O   UNL     1       5.451  33.709  56.170  1.00  0.00    -0.349 OA
BRANCH  30  31
HETATM   31  C   UNL     1       4.715  34.702  55.445  1.00  0.00     0.171 C 
HETATM   32  C   UNL     1       5.398  36.050  55.588  1.00  0.00     0.034 C 
ENDBRANCH  30  31
ENDBRANCH   1  30
BRANCH   2  33
HETATM   33  O   UNL     1       4.881  30.979  56.039  1.00  0.00    -0.339 OA
BRANCH  33  34
HETATM   34  C   UNL     1       4.316  29.660  56.064  1.00  0.00     0.278 C 
BRANCH  34  35
HETATM   35  C   UNL     1       5.369  28.601  55.697  1.00  0.00     0.246 C 
HETATM   36  N   UNL     1       4.798  27.363  55.442  1.00  0.00    -0.323 N 
HETATM   37  H   UNL     1       3.792  27.397  55.334  1.00  0.00     0.169 HD
HETATM   38  O   UNL     1       6.551  28.910  55.580  1.00  0.00    -0.271 OA
BRANCH  36  39
HETATM   39  C   UNL     1       5.451  26.193  55.005  1.00  0.00     0.068 A 
HETATM   40  C   UNL     1       6.261  25.377  55.815  1.00  0.00     0.095 A 
HETATM   41  C   UNL     1       6.904  24.272  55.238  1.00  0.00     0.039 A 
HETATM   42  C   UNL     1       6.711  23.955  53.889  1.00  0.00     0.003 A 
HETATM   43  C   UNL     1       5.856  24.723  53.110  1.00  0.00     0.002 A 
HETATM   44  C   UNL     1       5.221  25.830  53.668  1.00  0.00     0.032 A 
BRANCH  40  45
HETATM   45  O   UNL     1       6.283  25.651  57.156  1.00  0.00    -0.354 OA
HETATM   46  C   UNL     1       7.505  26.089  57.730  1.00  0.00     0.210 C 
ENDBRANCH  40  45
ENDBRANCH  36  39
ENDBRANCH  34  35
ENDBRANCH  33  34
ENDBRANCH   2  33
TORSDOF 11
ENDMDL
MODEL 8
REMARK VINA RESULT:      -9.1      2.841      5.631
REMARK  11 active torsions:
REMARK  status: ('A' for Active; 'I' for Inactive)
REMARK    1  A    between atoms: C_2  and  O_3 
REMARK    2  A    between atoms: O_3  and  C_4 
REMARK    3  A    between atoms: C_5  and  O_6 
REMARK    4  A    between atoms: O_6  and  C_7 
REMARK    5  A    between atoms: C_7  and  C_8 
REMARK       I    between atoms: C_8  and  N_9 
REMARK    6  A    between atoms: N_9  and  C_10 
REMARK    7  A    between atoms: C_11  and  O_12 
REMARK    8  A    between atoms: C_21  and  C_22 
REMARK    9  A    between atoms: C_27  and  C_28 
REMARK   10  A    between atoms: C_34  and  C_35 
REMARK   11  A    between atoms: C_35  and  C_36 
ROOT
HETATM    1  C   UNL     1       5.920  28.953  56.046  1.00  0.00     0.102 A 
HETATM    2  C   UNL     1       4.767  29.659  56.405  1.00  0.00     0.102 A 
HETATM    3  C   UNL     1       3.947  30.218  55.425  1.00  0.00     0.040 A 
HETATM    4  C   UNL     1       4.248  30.042  54.077  1.00  0.00     0.012 A 
HETATM    5  C   UNL     1       5.382  29.313  53.693  1.00  0.00    -0.028 A 
HETATM    6  C   UNL     1       6.194  28.742  54.691  1.00  0.00     0.049 A 
ENDROOT
BRANCH   5   7
HETATM    7  C   UNL     1       5.719  29.168  52.219  1.00  0.00     0.157 C 
HETATM    8  N   UNL     1       5.652  30.474  51.591  1.00  0.00    -0.354 N 
HETATM    9  C   UNL     1       5.415  30.648  50.266  1.00  0.00     0.173 C 
HETATM   10  H   UNL     1       6.069  31.261  52.073  1.00  0.00     0.163 HD
HETATM   11  S   UNL     1       5.709  32.100  49.519  1.00  0.00    -0.041 SA
HETATM   12  N   UNL     1       4.888  29.589  49.595  1.00  0.00    -0.332 N 
HETATM   13  C   UNL     1       4.543  28.390  50.179  1.00  0.00     0.057 C 
HETATM   14  H   UNL     1       4.627  29.749  48.627  1.00  0.00     0.168 HD
HETATM   15  C   UNL     1       4.907  28.152  51.454  1.00  0.00     0.047 C 
BRANCH  13  16
HETATM   16  C   UNL     1       3.815  27.455  49.309  1.00  0.00    -0.009 A 
HETATM   17  C   UNL     1       2.497  27.726  48.920  1.00  0.00     0.014 A 
HETATM   18  C   UNL     1       1.827  26.861  48.053  1.00  0.00     0.001 A 
HETATM   19  C   UNL     1       2.470  25.726  47.565  1.00  0.00     0.000 A 
HETATM   20  C   UNL     1       3.783  25.450  47.946  1.00  0.00     0.001 A 
HETATM   21  C   UNL     1       4.455  26.311  48.815  1.00  0.00     0.014 A 
ENDBRANCH  13  16
BRANCH  15  22
HETATM   22  C   UNL     1       4.491  26.902  52.154  1.00  0.00     0.193 C 
HETATM   23  O   UNL     1       3.341  26.752  52.553  1.00  0.00    -0.287 OA
BRANCH  22  24
HETATM   24  C   UNL     1       5.533  25.900  52.504  1.00  0.00     0.015 A 
HETATM   25  C   UNL     1       6.625  25.759  51.637  1.00  0.00     0.015 A 
HETATM   26  C   UNL     1       7.605  24.800  51.895  1.00  0.00     0.001 A 
HETATM   27  C   UNL     1       7.502  23.987  53.022  1.00  0.00     0.000 A 
HETATM   28  C   UNL     1       6.427  24.139  53.900  1.00  0.00     0.001 A 
HETATM   29  C   UNL     1       5.445  25.100  53.648  1.00  0.00     0.015 A 
ENDBRANCH  22  24
ENDBRANCH  15  22
ENDBRANCH   5   7
BRANCH   1  30
HETATM   30  O   UNL     1       6.714  28.466  57.050  1.00  0.00    -0.349 OA
BRANCH  30  31
HETATM   31  C   UNL     1       7.788  27.616  56.630  1.00  0.00     0.171 C 
HETATM   32  C   UNL     1       7.469  26.175  56.987  1.00  0.00     0.034 C 
ENDBRANCH  30  31
ENDBRANCH   1  30
BRANCH   2  33
HETATM   33  O   UNL     1       4.433  29.937  57.704  1.00  0.00    -0.339 OA
BRANCH  33  34
HETATM   34  C   UNL     1       4.185  31.332  57.932  1.00  0.00     0.278 C 
BRANCH  34  35
HETATM   35  C   UNL     1       5.423  32.024  58.527  1.00  0.00     0.246 C 
HETATM   36  N   UNL     1       6.107  31.202  59.411  1.00  0.00    -0.323 N 
HETATM   37  H   UNL     1       5.816  30.233  59.369  1.00  0.00     0.169 HD
HETATM   38  O   UNL     1       5.753  33.145  58.151  1.00  0.00    -0.271 OA
BRANCH  36  39
HETATM   39  C   UNL     1       7.319  31.479  60.074  1.00  0.00     0.068 A 
HETATM   40  C   UNL     1       8.598  31.264  59.530  1.00  0.00     0.095 A 
HETATM   41  C   UNL     1       9.726  31.526  60.322  1.00  0.00     0.039 A 
HETATM   42  C   UNL     1       9.588  32.036  61.617  1.00  0.00     0.003 A 
HETATM   43  C   UNL     1       8.326  32.312  62.126  1.00  0.00     0.002 A 
HETATM   44  C   UNL     1       7.197  32.045  61.354  1.00  0.00     0.032 A 
BRANCH  40  45
HETATM   45  O   UNL     1       8.665  30.915  58.208  1.00  0.00    -0.354 OA
HETATM   46  C   UNL     1       9.885  30.379  57.718  1.00  0.00     0.210 C 
ENDBRANCH  40  45
ENDBRANCH  36  39
ENDBRANCH  34  35
ENDBRANCH  33  34
ENDBRANCH   2  33
TORSDOF 11
ENDMDL
MODEL 9
REMARK VINA RESULT:      -8.9      2.712      9.932
REMARK  11 active torsions:
REMARK  status: ('A' for Active; 'I' for Inactive)
REMARK    1  A    between atoms: C_2  and  O_3 
REMARK    2  A    between atoms: O_3  and  C_4 
REMARK    3  A    between atoms: C_5  and  O_6 
REMARK    4  A    between atoms: O_6  and  C_7 
REMARK    5  A    between atoms: C_7  and  C_8 
REMARK       I    between atoms: C_8  and  N_9 
REMARK    6  A    between atoms: N_9  and  C_10 
REMARK    7  A    between atoms: C_11  and  O_12 
REMARK    8  A    between atoms: C_21  and  C_22 
REMARK    9  A    between atoms: C_27  and  C_28 
REMARK   10  A    between atoms: C_34  and  C_35 
REMARK   11  A    between atoms: C_35  and  C_36 
ROOT
HETATM    1  C   UNL     1       4.692  29.983  57.064  1.00  0.00     0.102 A 
HETATM    2  C   UNL     1       6.070  29.882  57.284  1.00  0.00     0.102 A 
HETATM    3  C   UNL     1       6.758  30.903  57.939  1.00  0.00     0.040 A 
HETATM    4  C   UNL     1       6.070  32.015  58.417  1.00  0.00     0.012 A 
HETATM    5  C   UNL     1       4.685  32.125  58.235  1.00  0.00    -0.028 A 
HETATM    6  C   UNL     1       4.000  31.081  57.584  1.00  0.00     0.049 A 
ENDROOT
BRANCH   5   7
HETATM    7  C   UNL     1       3.958  33.365  58.723  1.00  0.00     0.157 C 
HETATM    8  N   UNL     1       4.233  34.461  57.813  1.00  0.00    -0.354 N 
HETATM    9  C   UNL     1       4.165  35.765  58.181  1.00  0.00     0.173 C 
HETATM   10  H   UNL     1       4.194  34.279  56.817  1.00  0.00     0.163 HD
HETATM   11  S   UNL     1       4.118  36.980  57.052  1.00  0.00    -0.041 SA
HETATM   12  N   UNL     1       4.180  36.025  59.515  1.00  0.00    -0.332 N 
HETATM   13  C   UNL     1       4.305  35.065  60.495  1.00  0.00     0.057 C 
HETATM   14  H   UNL     1       4.221  37.003  59.787  1.00  0.00     0.168 HD
HETATM   15  C   UNL     1       4.224  33.765  60.154  1.00  0.00     0.047 C 
BRANCH  13  16
HETATM   16  C   UNL     1       4.490  35.581  61.860  1.00  0.00    -0.009 A 
HETATM   17  C   UNL     1       5.711  36.147  62.245  1.00  0.00     0.014 A 
HETATM   18  C   UNL     1       5.866  36.682  63.525  1.00  0.00     0.001 A 
HETATM   19  C   UNL     1       4.802  36.660  64.424  1.00  0.00     0.000 A 
HETATM   20  C   UNL     1       3.582  36.100  64.047  1.00  0.00     0.001 A 
HETATM   21  C   UNL     1       3.424  35.562  62.769  1.00  0.00     0.014 A 
ENDBRANCH  13  16
BRANCH  15  22
HETATM   22  C   UNL     1       4.429  32.688  61.166  1.00  0.00     0.193 C 
HETATM   23  O   UNL     1       3.544  31.875  61.413  1.00  0.00    -0.287 OA
BRANCH  22  24
HETATM   24  C   UNL     1       5.666  32.708  61.989  1.00  0.00     0.015 A 
HETATM   25  C   UNL     1       6.898  32.627  61.325  1.00  0.00     0.015 A 
HETATM   26  C   UNL     1       8.087  32.593  62.055  1.00  0.00     0.001 A 
HETATM   27  C   UNL     1       8.050  32.650  63.447  1.00  0.00     0.000 A 
HETATM   28  C   UNL     1       6.826  32.754  64.112  1.00  0.00     0.001 A 
HETATM   29  C   UNL     1       5.633  32.791  63.386  1.00  0.00     0.015 A 
ENDBRANCH  22  24
ENDBRANCH  15  22
ENDBRANCH   5   7
BRANCH   1  30
HETATM   30  O   UNL     1       4.076  28.974  56.374  1.00  0.00    -0.349 OA
BRANCH  30  31
HETATM   31  C   UNL     1       4.406  28.885  54.983  1.00  0.00     0.171 C 
HETATM   32  C   UNL     1       3.618  29.922  54.203  1.00  0.00     0.034 C 
ENDBRANCH  30  31
ENDBRANCH   1  30
BRANCH   2  33
HETATM   33  O   UNL     1       6.834  28.857  56.790  1.00  0.00    -0.339 OA
BRANCH  33  34
HETATM   34  C   UNL     1       7.048  27.808  57.745  1.00  0.00     0.278 C 
BRANCH  34  35
HETATM   35  C   UNL     1       7.681  26.575  57.078  1.00  0.00     0.246 C 
HETATM   36  N   UNL     1       6.907  26.090  56.034  1.00  0.00    -0.323 N 
HETATM   37  H   UNL     1       6.174  26.726  55.745  1.00  0.00     0.169 HD
HETATM   38  O   UNL     1       8.787  26.175  57.429  1.00  0.00    -0.271 OA
BRANCH  36  39
HETATM   39  C   UNL     1       7.218  25.030  55.160  1.00  0.00     0.068 A 
HETATM   40  C   UNL     1       7.463  25.172  53.782  1.00  0.00     0.095 A 
HETATM   41  C   UNL     1       7.701  24.024  53.013  1.00  0.00     0.039 A 
HETATM   42  C   UNL     1       7.740  22.758  53.607  1.00  0.00     0.003 A 
HETATM   43  C   UNL     1       7.564  22.628  54.979  1.00  0.00     0.002 A 
HETATM   44  C   UNL     1       7.316  23.760  55.753  1.00  0.00     0.032 A 
BRANCH  40  45
HETATM   45  O   UNL     1       7.567  26.446  53.294  1.00  0.00    -0.354 OA
HETATM   46  C   UNL     1       6.501  26.948  52.502  1.00  0.00     0.210 C 
ENDBRANCH  40  45
ENDBRANCH  36  39
ENDBRANCH  34  35
ENDBRANCH  33  34
ENDBRANCH   2  33
TORSDOF 11
ENDMDL
MODEL 10
REMARK VINA RESULT:      -8.7      2.635      9.663
REMARK  11 active torsions:
REMARK  status: ('A' for Active; 'I' for Inactive)
REMARK    1  A    between atoms: C_2  and  O_3 
REMARK    2  A    between atoms: O_3  and  C_4 
REMARK    3  A    between atoms: C_5  and  O_6 
REMARK    4  A    between atoms: O_6  and  C_7 
REMARK    5  A    between atoms: C_7  and  C_8 
REMARK       I    between atoms: C_8  and  N_9 
REMARK    6  A    between atoms: N_9  and  C_10 
REMARK    7  A    between atoms: C_11  and  O_12 
REMARK    8  A    between atoms: C_21  and  C_22 
REMARK    9  A    between atoms: C_27  and  C_28 
REMARK   10  A    between atoms: C_34  and  C_35 
REMARK   11  A    between atoms: C_35  and  C_36 
ROOT
HETATM    1  C   UNL     1       6.789  29.625  56.626  1.00  0.00     0.102 A 
HETATM    2  C   UNL     1       6.239  28.345  56.503  1.00  0.00     0.102 A 
HETATM    3  C   UNL     1       4.856  28.175  56.432  1.00  0.00     0.040 A 
HETATM    4  C   UNL     1       4.013  29.283  56.441  1.00  0.00     0.012 A 
HETATM    5  C   UNL     1       4.544  30.577  56.534  1.00  0.00    -0.028 A 
HETATM    6  C   UNL     1       5.942  30.736  56.592  1.00  0.00     0.049 A 
ENDROOT
BRANCH   5   7
HETATM    7  C   UNL     1       3.608  31.771  56.588  1.00  0.00     0.157 C 
HETATM    8  N   UNL     1       3.925  32.668  55.492  1.00  0.00    -0.354 N 
HETATM    9  C   UNL     1       3.649  33.996  55.516  1.00  0.00     0.173 C 
HETATM   10  H   UNL     1       4.092  32.266  54.577  1.00  0.00     0.163 HD
HETATM   11  S   UNL     1       3.679  34.910  54.132  1.00  0.00    -0.041 SA
HETATM   12  N   UNL     1       3.388  34.543  56.733  1.00  0.00    -0.332 N 
HETATM   13  C   UNL     1       3.434  33.853  57.924  1.00  0.00     0.057 C 
HETATM   14  H   UNL     1       3.271  35.552  56.762  1.00  0.00     0.168 HD
HETATM   15  C   UNL     1       3.561  32.513  57.902  1.00  0.00     0.047 C 
BRANCH  13  16
HETATM   16  C   UNL     1       3.306  34.680  59.134  1.00  0.00    -0.009 A 
HETATM   17  C   UNL     1       2.150  34.612  59.921  1.00  0.00     0.014 A 
HETATM   18  C   UNL     1       2.053  35.360  61.096  1.00  0.00     0.001 A 
HETATM   19  C   UNL     1       3.112  36.172  61.494  1.00  0.00     0.000 A 
HETATM   20  C   UNL     1       4.268  36.243  60.718  1.00  0.00     0.001 A 
HETATM   21  C   UNL     1       4.367  35.499  59.541  1.00  0.00     0.014 A 
ENDBRANCH  13  16
BRANCH  15  22
HETATM   22  C   UNL     1       3.691  31.729  59.165  1.00  0.00     0.193 C 
HETATM   23  O   UNL     1       2.847  30.898  59.484  1.00  0.00    -0.287 OA
BRANCH  22  24
HETATM   24  C   UNL     1       4.779  32.083  60.115  1.00  0.00     0.015 A 
HETATM   25  C   UNL     1       4.428  32.345  61.446  1.00  0.00     0.015 A 
HETATM   26  C   UNL     1       5.405  32.729  62.365  1.00  0.00     0.001 A 
HETATM   27  C   UNL     1       6.734  32.841  61.962  1.00  0.00     0.000 A 
HETATM   28  C   UNL     1       7.091  32.560  60.642  1.00  0.00     0.001 A 
HETATM   29  C   UNL     1       6.118  32.173  59.718  1.00  0.00     0.015 A 
ENDBRANCH  22  24
ENDBRANCH  15  22
ENDBRANCH   5   7
BRANCH   1  30
HETATM   30  O   UNL     1       8.150  29.731  56.740  1.00  0.00    -0.349 OA
BRANCH  30  31
HETATM   31  C   UNL     1       8.620  30.422  57.903  1.00  0.00     0.171 C 
HETATM   32  C   UNL     1      10.136  30.353  57.962  1.00  0.00     0.034 C 
ENDBRANCH  30  31
ENDBRANCH   1  30
BRANCH   2  33
HETATM   33  O   UNL     1       6.988  27.199  56.553  1.00  0.00    -0.339 OA
BRANCH  33  34
HETATM   34  C   UNL     1       7.472  26.790  55.266  1.00  0.00     0.278 C 
BRANCH  34  35
HETATM   35  C   UNL     1       7.036  25.351  54.944  1.00  0.00     0.246 C 
HETATM   36  N   UNL     1       8.119  24.519  54.702  1.00  0.00    -0.323 N 
HETATM   37  H   UNL     1       9.007  24.922  54.972  1.00  0.00     0.169 HD
HETATM   38  O   UNL     1       5.852  25.031  54.997  1.00  0.00    -0.271 OA
BRANCH  36  39
HETATM   39  C   UNL     1       8.093  23.131  54.455  1.00  0.00     0.068 A 
HETATM   40  C   UNL     1       8.264  22.139  55.438  1.00  0.00     0.095 A 
HETATM   41  C   UNL     1       8.278  20.792  55.046  1.00  0.00     0.039 A 
HETATM   42  C   UNL     1       8.081  20.432  53.709  1.00  0.00     0.003 A 
HETATM   43  C   UNL     1       7.845  21.411  52.753  1.00  0.00     0.002 A 
HETATM   44  C   UNL     1       7.840  22.754  53.126  1.00  0.00     0.032 A 
BRANCH  40  45
HETATM   45  O   UNL     1       8.294  22.549  56.743  1.00  0.00    -0.354 OA
HETATM   46  C   UNL     1       8.308  21.556  57.757  1.00  0.00     0.210 C 
ENDBRANCH  40  45
ENDBRANCH  36  39
ENDBRANCH  34  35
ENDBRANCH  33  34
ENDBRANCH   2  33
TORSDOF 11
ENDMDL
