MODEL 1
REMARK VINA RESULT:      -9.8      0.000      0.000
REMARK  2 active torsions:
REMARK  status: ('A' for Active; 'I' for Inactive)
REMARK    1  A    between atoms: C_3  and  C_4 
REMARK       I    between atoms: C_4  and  N_5 
REMARK    2  A    between atoms: N_5  and  N_6 
ROOT
HETATM    1  N   UNL     1       7.762  31.055  61.540  1.00  0.00    -0.282 N 
HETATM    2  C   UNL     1       6.670  31.789  61.726  1.00  0.00     0.127 C 
HETATM    3  C   UNL     1       6.500  32.521  63.006  1.00  0.00     0.015 A 
HETATM    4  C   UNL     1       5.204  32.910  63.399  1.00  0.00    -0.042 A 
HETATM    5  C   UNL     1       4.995  33.564  64.620  1.00  0.00     0.008 A 
HETATM    6  C   UNL     1       6.077  33.875  65.437  1.00  0.00     0.001 A 
HETATM    7  C   UNL     1       7.368  33.536  65.042  1.00  0.00     0.001 A 
HETATM    8  C   UNL     1       7.581  32.866  63.835  1.00  0.00     0.016 A 
HETATM    9  C   UNL     1       4.040  32.580  62.498  1.00  0.00     0.069 C 
HETATM   10  C   UNL     1       4.449  32.635  61.011  1.00  0.00     0.028 C 
HETATM   11  C   UNL     1       3.367  31.966  60.156  1.00  0.00     0.038 C 
HETATM   12  C   UNL     1       4.685  34.066  60.518  1.00  0.00     0.038 C 
HETATM   13  N   UNL     1       5.708  31.865  60.807  1.00  0.00    -0.366 N 
HETATM   14  H   UNL     1       5.821  31.345  59.953  1.00  0.00     0.162 HD
HETATM   15  H   UNL     1       8.386  30.934  62.347  1.00  0.00     0.188 HD
ENDROOT
BRANCH   1  16
HETATM   16  N   UNL     1       8.130  30.398  60.443  1.00  0.00    -0.264 N 
HETATM   17  C   UNL     1       8.623  31.190  59.416  1.00  0.00     0.270 C 
HETATM   18  O   UNL     1       8.687  32.412  59.539  1.00  0.00    -0.266 OA
HETATM   19  H   UNL     1       7.943  29.412  60.307  1.00  0.00     0.190 HD
BRANCH  17  20
HETATM   20  C   UNL     1       8.998  30.502  58.157  1.00  0.00     0.039 A 
HETATM   21  C   UNL     1       8.066  29.908  57.282  1.00  0.00    -0.046 A 
HETATM   22  C   UNL     1       6.589  29.840  57.553  1.00  0.00     0.049 C 
HETATM   23  C   UNL     1       8.544  29.327  56.095  1.00  0.00     0.007 A 
HETATM   24  C   UNL     1       9.911  29.295  55.809  1.00  0.00     0.001 A 
HETATM   25  C   UNL     1      10.825  29.842  56.703  1.00  0.00     0.001 A 
HETATM   26  C   UNL     1      10.371  30.444  57.875  1.00  0.00     0.017 A 
ENDBRANCH  17  20
ENDBRANCH   1  16
TORSDOF 2
ENDMDL
MODEL 2
REMARK VINA RESULT:      -9.7      5.304      9.836
REMARK  2 active torsions:
REMARK  status: ('A' for Active; 'I' for Inactive)
REMARK    1  A    between atoms: C_3  and  C_4 
REMARK       I    between atoms: C_4  and  N_5 
REMARK    2  A    between atoms: N_5  and  N_6 
ROOT
HETATM    1  N   UNL     1       7.937  26.232  55.704  1.00  0.00    -0.282 N 
HETATM    2  C   UNL     1       7.409  25.583  54.671  1.00  0.00     0.127 C 
HETATM    3  C   UNL     1       7.694  24.135  54.504  1.00  0.00     0.015 A 
HETATM    4  C   UNL     1       7.540  23.556  53.229  1.00  0.00    -0.042 A 
HETATM    5  C   UNL     1       7.840  22.204  53.020  1.00  0.00     0.008 A 
HETATM    6  C   UNL     1       8.252  21.409  54.086  1.00  0.00     0.001 A 
HETATM    7  C   UNL     1       8.366  21.957  55.360  1.00  0.00     0.001 A 
HETATM    8  C   UNL     1       8.088  23.309  55.571  1.00  0.00     0.016 A 
HETATM    9  C   UNL     1       7.081  24.424  52.085  1.00  0.00     0.069 C 
HETATM   10  C   UNL     1       6.097  25.511  52.567  1.00  0.00     0.028 C 
HETATM   11  C   UNL     1       5.926  26.571  51.472  1.00  0.00     0.038 C 
HETATM   12  C   UNL     1       4.727  24.938  52.946  1.00  0.00     0.038 C 
HETATM   13  N   UNL     1       6.655  26.200  53.763  1.00  0.00    -0.366 N 
HETATM   14  H   UNL     1       6.488  27.187  53.871  1.00  0.00     0.162 HD
HETATM   15  H   UNL     1       8.619  25.720  56.277  1.00  0.00     0.188 HD
ENDROOT
BRANCH   1  16
HETATM   16  N   UNL     1       7.736  27.496  56.065  1.00  0.00    -0.264 N 
HETATM   17  C   UNL     1       7.645  27.714  57.432  1.00  0.00     0.270 C 
HETATM   18  O   UNL     1       7.733  26.778  58.226  1.00  0.00    -0.266 OA
HETATM   19  H   UNL     1       7.530  28.230  55.398  1.00  0.00     0.190 HD
BRANCH  17  20
HETATM   20  C   UNL     1       7.372  29.102  57.876  1.00  0.00     0.039 A 
HETATM   21  C   UNL     1       6.138  29.756  57.685  1.00  0.00    -0.046 A 
HETATM   22  C   UNL     1       4.975  29.152  56.949  1.00  0.00     0.049 C 
HETATM   23  C   UNL     1       5.989  31.058  58.194  1.00  0.00     0.007 A 
HETATM   24  C   UNL     1       7.049  31.707  58.830  1.00  0.00     0.001 A 
HETATM   25  C   UNL     1       8.277  31.069  58.971  1.00  0.00     0.001 A 
HETATM   26  C   UNL     1       8.440  29.770  58.494  1.00  0.00     0.017 A 
ENDBRANCH  17  20
ENDBRANCH   1  16
TORSDOF 2
ENDMDL
MODEL 3
REMARK VINA RESULT:      -9.6      8.083     11.421
REMARK  2 active torsions:
REMARK  status: ('A' for Active; 'I' for Inactive)
REMARK    1  A    between atoms: C_3  and  C_4 
REMARK       I    between atoms: C_4  and  N_5 
REMARK    2  A    between atoms: N_5  and  N_6 
ROOT
HETATM    1  N   UNL     1       5.899  24.747  52.257  1.00  0.00    -0.282 N 
HETATM    2  C   UNL     1       5.574  26.034  52.300  1.00  0.00     0.127 C 
HETATM    3  C   UNL     1       5.226  26.735  51.038  1.00  0.00     0.015 A 
HETATM    4  C   UNL     1       5.328  28.140  50.992  1.00  0.00    -0.042 A 
HETATM    5  C   UNL     1       5.051  28.835  49.808  1.00  0.00     0.008 A 
HETATM    6  C   UNL     1       4.627  28.144  48.676  1.00  0.00     0.001 A 
HETATM    7  C   UNL     1       4.480  26.760  48.721  1.00  0.00     0.001 A 
HETATM    8  C   UNL     1       4.774  26.059  49.892  1.00  0.00     0.016 A 
HETATM    9  C   UNL     1       5.773  28.879  52.227  1.00  0.00     0.069 C 
HETATM   10  C   UNL     1       5.274  28.180  53.509  1.00  0.00     0.028 C 
HETATM   11  C   UNL     1       6.022  28.741  54.725  1.00  0.00     0.038 C 
HETATM   12  C   UNL     1       3.765  28.337  53.716  1.00  0.00     0.038 C 
HETATM   13  N   UNL     1       5.580  26.724  53.440  1.00  0.00    -0.366 N 
HETATM   14  H   UNL     1       5.842  26.246  54.286  1.00  0.00     0.162 HD
HETATM   15  H   UNL     1       6.008  24.324  51.327  1.00  0.00     0.188 HD
ENDROOT
BRANCH   1  16
HETATM   16  N   UNL     1       6.160  23.934  53.277  1.00  0.00    -0.264 N 
HETATM   17  C   UNL     1       7.489  23.560  53.411  1.00  0.00     0.270 C 
HETATM   18  O   UNL     1       8.338  23.958  52.615  1.00  0.00    -0.266 OA
HETATM   19  H   UNL     1       5.432  23.507  53.837  1.00  0.00     0.190 HD
BRANCH  17  20
HETATM   20  C   UNL     1       7.815  22.614  54.505  1.00  0.00     0.039 A 
HETATM   21  C   UNL     1       8.019  21.232  54.311  1.00  0.00    -0.046 A 
HETATM   22  C   UNL     1       7.862  20.541  52.986  1.00  0.00     0.049 C 
HETATM   23  C   UNL     1       8.369  20.449  55.424  1.00  0.00     0.007 A 
HETATM   24  C   UNL     1       8.468  21.012  56.699  1.00  0.00     0.001 A 
HETATM   25  C   UNL     1       8.218  22.367  56.885  1.00  0.00     0.001 A 
HETATM   26  C   UNL     1       7.892  23.168  55.792  1.00  0.00     0.017 A 
ENDBRANCH  17  20
ENDBRANCH   1  16
TORSDOF 2
ENDMDL
MODEL 4
REMARK VINA RESULT:      -9.2      8.488     11.484
REMARK  2 active torsions:
REMARK  status: ('A' for Active; 'I' for Inactive)
REMARK    1  A    between atoms: C_3  and  C_4 
REMARK       I    between atoms: C_4  and  N_5 
REMARK    2  A    between atoms: N_5  and  N_6 
ROOT
HETATM    1  N   UNL     1       7.342  24.269  52.374  1.00  0.00    -0.282 N 
HETATM    2  C   UNL     1       7.551  23.964  53.650  1.00  0.00     0.127 C 
HETATM    3  C   UNL     1       7.903  22.568  54.012  1.00  0.00     0.015 A 
HETATM    4  C   UNL     1       7.682  22.134  55.335  1.00  0.00    -0.042 A 
HETATM    5  C   UNL     1       7.960  20.813  55.706  1.00  0.00     0.008 A 
HETATM    6  C   UNL     1       8.502  19.927  54.778  1.00  0.00     0.001 A 
HETATM    7  C   UNL     1       8.766  20.354  53.480  1.00  0.00     0.001 A 
HETATM    8  C   UNL     1       8.472  21.665  53.098  1.00  0.00     0.016 A 
HETATM    9  C   UNL     1       7.109  23.106  56.334  1.00  0.00     0.069 C 
HETATM   10  C   UNL     1       7.598  24.544  56.062  1.00  0.00     0.028 C 
HETATM   11  C   UNL     1       6.742  25.537  56.856  1.00  0.00     0.038 C 
HETATM   12  C   UNL     1       9.076  24.740  56.417  1.00  0.00     0.038 C 
HETATM   13  N   UNL     1       7.425  24.870  54.619  1.00  0.00    -0.366 N 
HETATM   14  H   UNL     1       7.161  25.807  54.366  1.00  0.00     0.162 HD
HETATM   15  H   UNL     1       7.319  23.488  51.706  1.00  0.00     0.188 HD
ENDROOT
BRANCH   1  16
HETATM   16  N   UNL     1       7.099  25.466  51.846  1.00  0.00    -0.264 N 
HETATM   17  C   UNL     1       5.761  25.746  51.608  1.00  0.00     0.270 C 
HETATM   18  O   UNL     1       4.889  24.918  51.863  1.00  0.00    -0.266 OA
HETATM   19  H   UNL     1       7.834  26.078  51.516  1.00  0.00     0.190 HD
BRANCH  17  20
HETATM   20  C   UNL     1       5.450  27.051  50.974  1.00  0.00     0.039 A 
HETATM   21  C   UNL     1       5.535  28.287  51.646  1.00  0.00    -0.046 A 
HETATM   22  C   UNL     1       5.881  28.427  53.102  1.00  0.00     0.049 C 
HETATM   23  C   UNL     1       5.259  29.459  50.920  1.00  0.00     0.007 A 
HETATM   24  C   UNL     1       4.866  29.401  49.581  1.00  0.00     0.001 A 
HETATM   25  C   UNL     1       4.741  28.171  48.942  1.00  0.00     0.001 A 
HETATM   26  C   UNL     1       5.031  26.998  49.636  1.00  0.00     0.017 A 
ENDBRANCH  17  20
ENDBRANCH   1  16
TORSDOF 2
ENDMDL
MODEL 5
REMARK VINA RESULT:      -9.1      8.101     11.540
REMARK  2 active torsions:
REMARK  status: ('A' for Active; 'I' for Inactive)
REMARK    1  A    between atoms: C_3  and  C_4 
REMARK       I    between atoms: C_4  and  N_5 
REMARK    2  A    between atoms: N_5  and  N_6 
ROOT
HETATM    1  N   UNL     1       6.503  25.537  51.475  1.00  0.00    -0.282 N 
HETATM    2  C   UNL     1       6.600  25.521  52.801  1.00  0.00     0.127 C 
HETATM    3  C   UNL     1       7.165  24.323  53.470  1.00  0.00     0.015 A 
HETATM    4  C   UNL     1       6.863  24.098  54.828  1.00  0.00    -0.042 A 
HETATM    5  C   UNL     1       7.340  22.957  55.485  1.00  0.00     0.008 A 
HETATM    6  C   UNL     1       8.158  22.056  54.810  1.00  0.00     0.001 A 
HETATM    7  C   UNL     1       8.501  22.287  53.481  1.00  0.00     0.001 A 
HETATM    8  C   UNL     1       8.011  23.412  52.814  1.00  0.00     0.016 A 
HETATM    9  C   UNL     1       5.988  25.089  55.553  1.00  0.00     0.069 C 
HETATM   10  C   UNL     1       6.222  26.525  55.038  1.00  0.00     0.028 C 
HETATM   11  C   UNL     1       5.094  27.438  55.533  1.00  0.00     0.038 C 
HETATM   12  C   UNL     1       7.575  27.095  55.476  1.00  0.00     0.038 C 
HETATM   13  N   UNL     1       6.177  26.539  53.549  1.00  0.00    -0.366 N 
HETATM   14  H   UNL     1       5.771  27.336  53.087  1.00  0.00     0.162 HD
HETATM   15  H   UNL     1       6.718  24.662  50.982  1.00  0.00     0.188 HD
ENDROOT
BRANCH   1  16
HETATM   16  N   UNL     1       6.103  26.538  50.695  1.00  0.00    -0.264 N 
HETATM   17  C   UNL     1       4.889  26.340  50.054  1.00  0.00     0.270 C 
HETATM   18  O   UNL     1       4.260  25.295  50.207  1.00  0.00    -0.266 OA
HETATM   19  H   UNL     1       6.696  27.329  50.474  1.00  0.00     0.190 HD
BRANCH  17  20
HETATM   20  C   UNL     1       4.431  27.411  49.136  1.00  0.00     0.039 A 
HETATM   21  C   UNL     1       3.645  27.175  47.990  1.00  0.00    -0.046 A 
HETATM   22  C   UNL     1       3.235  25.807  47.522  1.00  0.00     0.049 C 
HETATM   23  C   UNL     1       3.236  28.281  47.225  1.00  0.00     0.007 A 
HETATM   24  C   UNL     1       3.635  29.577  47.562  1.00  0.00     0.001 A 
HETATM   25  C   UNL     1       4.450  29.792  48.669  1.00  0.00     0.001 A 
HETATM   26  C   UNL     1       4.849  28.712  49.454  1.00  0.00     0.017 A 
ENDBRANCH  17  20
ENDBRANCH   1  16
TORSDOF 2
ENDMDL
MODEL 6
REMARK VINA RESULT:      -9.1      7.796     11.117
REMARK  2 active torsions:
REMARK  status: ('A' for Active; 'I' for Inactive)
REMARK    1  A    between atoms: C_3  and  C_4 
REMARK       I    between atoms: C_4  and  N_5 
REMARK    2  A    between atoms: N_5  and  N_6 
ROOT
HETATM    1  N   UNL     1       5.449  24.652  52.396  1.00  0.00    -0.282 N 
HETATM    2  C   UNL     1       5.998  24.797  53.597  1.00  0.00     0.127 C 
HETATM    3  C   UNL     1       7.024  23.822  54.046  1.00  0.00     0.015 A 
HETATM    4  C   UNL     1       7.271  23.685  55.427  1.00  0.00    -0.042 A 
HETATM    5  C   UNL     1       8.200  22.746  55.894  1.00  0.00     0.008 A 
HETATM    6  C   UNL     1       8.920  21.969  54.991  1.00  0.00     0.001 A 
HETATM    7  C   UNL     1       8.718  22.125  53.623  1.00  0.00     0.001 A 
HETATM    8  C   UNL     1       7.779  23.045  53.151  1.00  0.00     0.016 A 
HETATM    9  C   UNL     1       6.496  24.542  56.395  1.00  0.00     0.069 C 
HETATM   10  C   UNL     1       6.193  25.931  55.795  1.00  0.00     0.028 C 
HETATM   11  C   UNL     1       5.126  26.635  56.642  1.00  0.00     0.038 C 
HETATM   12  C   UNL     1       7.441  26.816  55.702  1.00  0.00     0.038 C 
HETATM   13  N   UNL     1       5.635  25.777  54.423  1.00  0.00    -0.366 N 
HETATM   14  H   UNL     1       4.920  26.418  54.120  1.00  0.00     0.162 HD
HETATM   15  H   UNL     1       5.678  23.794  51.879  1.00  0.00     0.188 HD
ENDROOT
BRANCH   1  16
HETATM   16  N   UNL     1       4.582  25.458  51.789  1.00  0.00    -0.264 N 
HETATM   17  C   UNL     1       5.126  26.615  51.251  1.00  0.00     0.270 C 
HETATM   18  O   UNL     1       6.327  26.855  51.358  1.00  0.00    -0.266 OA
HETATM   19  H   UNL     1       3.580  25.314  51.830  1.00  0.00     0.190 HD
BRANCH  17  20
HETATM   20  C   UNL     1       4.185  27.565  50.609  1.00  0.00     0.039 A 
HETATM   21  C   UNL     1       3.833  27.517  49.245  1.00  0.00    -0.046 A 
HETATM   22  C   UNL     1       4.420  26.542  48.262  1.00  0.00     0.049 C 
HETATM   23  C   UNL     1       2.894  28.446  48.767  1.00  0.00     0.007 A 
HETATM   24  C   UNL     1       2.356  29.424  49.607  1.00  0.00     0.001 A 
HETATM   25  C   UNL     1       2.747  29.491  50.941  1.00  0.00     0.001 A 
HETATM   26  C   UNL     1       3.661  28.565  51.441  1.00  0.00     0.017 A 
ENDBRANCH  17  20
ENDBRANCH   1  16
TORSDOF 2
ENDMDL
MODEL 7
REMARK VINA RESULT:      -9.1      9.081     12.285
REMARK  2 active torsions:
REMARK  status: ('A' for Active; 'I' for Inactive)
REMARK    1  A    between atoms: C_3  and  C_4 
REMARK       I    between atoms: C_4  and  N_5 
REMARK    2  A    between atoms: N_5  and  N_6 
ROOT
HETATM    1  N   UNL     1       5.733  25.855  50.567  1.00  0.00    -0.282 N 
HETATM    2  C   UNL     1       5.032  26.944  50.268  1.00  0.00     0.127 C 
HETATM    3  C   UNL     1       4.114  26.916  49.102  1.00  0.00     0.015 A 
HETATM    4  C   UNL     1       3.731  28.136  48.510  1.00  0.00    -0.042 A 
HETATM    5  C   UNL     1       2.902  28.151  47.382  1.00  0.00     0.008 A 
HETATM    6  C   UNL     1       2.412  26.957  46.861  1.00  0.00     0.001 A 
HETATM    7  C   UNL     1       2.746  25.747  47.461  1.00  0.00     0.001 A 
HETATM    8  C   UNL     1       3.589  25.723  48.575  1.00  0.00     0.016 A 
HETATM    9  C   UNL     1       4.257  29.424  49.091  1.00  0.00     0.069 C 
HETATM   10  C   UNL     1       4.421  29.322  50.622  1.00  0.00     0.028 C 
HETATM   11  C   UNL     1       5.269  30.495  51.127  1.00  0.00     0.038 C 
HETATM   12  C   UNL     1       3.077  29.305  51.358  1.00  0.00     0.038 C 
HETATM   13  N   UNL     1       5.151  28.071  50.968  1.00  0.00    -0.366 N 
HETATM   14  H   UNL     1       5.795  28.088  51.742  1.00  0.00     0.162 HD
HETATM   15  H   UNL     1       5.692  25.076  49.898  1.00  0.00     0.188 HD
ENDROOT
BRANCH   1  16
HETATM   16  N   UNL     1       6.537  25.659  51.608  1.00  0.00    -0.264 N 
HETATM   17  C   UNL     1       6.000  24.900  52.638  1.00  0.00     0.270 C 
HETATM   18  O   UNL     1       4.852  24.467  52.567  1.00  0.00    -0.266 OA
HETATM   19  H   UNL     1       7.425  26.135  51.711  1.00  0.00     0.190 HD
BRANCH  17  20
HETATM   20  C   UNL     1       6.847  24.700  53.839  1.00  0.00     0.039 A 
HETATM   21  C   UNL     1       7.753  23.631  53.988  1.00  0.00    -0.046 A 
HETATM   22  C   UNL     1       7.921  22.528  52.980  1.00  0.00     0.049 C 
HETATM   23  C   UNL     1       8.534  23.578  55.156  1.00  0.00     0.007 A 
HETATM   24  C   UNL     1       8.384  24.532  56.165  1.00  0.00     0.001 A 
HETATM   25  C   UNL     1       7.452  25.556  56.027  1.00  0.00     0.001 A 
HETATM   26  C   UNL     1       6.684  25.640  54.867  1.00  0.00     0.017 A 
ENDBRANCH  17  20
ENDBRANCH   1  16
TORSDOF 2
ENDMDL
MODEL 8
REMARK VINA RESULT:      -8.5      5.262     10.056
REMARK  2 active torsions:
REMARK  status: ('A' for Active; 'I' for Inactive)
REMARK    1  A    between atoms: C_3  and  C_4 
REMARK       I    between atoms: C_4  and  N_5 
REMARK    2  A    between atoms: N_5  and  N_6 
ROOT
HETATM    1  N   UNL     1       6.349  28.708  53.856  1.00  0.00    -0.282 N 
HETATM    2  C   UNL     1       6.335  27.516  53.270  1.00  0.00     0.127 C 
HETATM    3  C   UNL     1       5.694  27.372  51.938  1.00  0.00     0.015 A 
HETATM    4  C   UNL     1       5.271  26.094  51.523  1.00  0.00    -0.042 A 
HETATM    5  C   UNL     1       4.623  25.922  50.293  1.00  0.00     0.008 A 
HETATM    6  C   UNL     1       4.431  27.012  49.449  1.00  0.00     0.001 A 
HETATM    7  C   UNL     1       4.882  28.274  49.827  1.00  0.00     0.001 A 
HETATM    8  C   UNL     1       5.511  28.455  51.061  1.00  0.00     0.016 A 
HETATM    9  C   UNL     1       5.497  24.919  52.440  1.00  0.00     0.069 C 
HETATM   10  C   UNL     1       6.803  25.080  53.246  1.00  0.00     0.028 C 
HETATM   11  C   UNL     1       6.825  24.067  54.397  1.00  0.00     0.038 C 
HETATM   12  C   UNL     1       8.055  24.902  52.380  1.00  0.00     0.038 C 
HETATM   13  N   UNL     1       6.854  26.438  53.855  1.00  0.00    -0.366 N 
HETATM   14  H   UNL     1       7.264  26.540  54.769  1.00  0.00     0.162 HD
HETATM   15  H   UNL     1       5.805  29.456  53.407  1.00  0.00     0.188 HD
ENDROOT
BRANCH   1  16
HETATM   16  N   UNL     1       6.938  29.052  54.998  1.00  0.00    -0.264 N 
HETATM   17  C   UNL     1       6.094  29.581  55.964  1.00  0.00     0.270 C 
HETATM   18  O   UNL     1       4.894  29.723  55.741  1.00  0.00    -0.266 OA
HETATM   19  H   UNL     1       7.944  29.058  55.115  1.00  0.00     0.190 HD
BRANCH  17  20
HETATM   20  C   UNL     1       6.719  30.024  57.234  1.00  0.00     0.039 A 
HETATM   21  C   UNL     1       7.753  29.321  57.884  1.00  0.00    -0.046 A 
HETATM   22  C   UNL     1       8.299  28.003  57.408  1.00  0.00     0.049 C 
HETATM   23  C   UNL     1       8.295  29.870  59.059  1.00  0.00     0.007 A 
HETATM   24  C   UNL     1       7.793  31.057  59.597  1.00  0.00     0.001 A 
HETATM   25  C   UNL     1       6.740  31.717  58.971  1.00  0.00     0.001 A 
HETATM   26  C   UNL     1       6.203  31.203  57.793  1.00  0.00     0.017 A 
ENDBRANCH  17  20
ENDBRANCH   1  16
TORSDOF 2
ENDMDL
MODEL 9
REMARK VINA RESULT:      -8.3      6.698     10.347
REMARK  2 active torsions:
REMARK  status: ('A' for Active; 'I' for Inactive)
REMARK    1  A    between atoms: C_3  and  C_4 
REMARK       I    between atoms: C_4  and  N_5 
REMARK    2  A    between atoms: N_5  and  N_6 
ROOT
HETATM    1  N   UNL     1       4.353  26.377  53.172  1.00  0.00    -0.282 N 
HETATM    2  C   UNL     1       5.258  26.349  54.144  1.00  0.00     0.127 C 
HETATM    3  C   UNL     1       6.146  25.166  54.272  1.00  0.00     0.015 A 
HETATM    4  C   UNL     1       6.766  24.913  55.512  1.00  0.00    -0.042 A 
HETATM    5  C   UNL     1       7.576  23.784  55.687  1.00  0.00     0.008 A 
HETATM    6  C   UNL     1       7.812  22.924  54.618  1.00  0.00     0.001 A 
HETATM    7  C   UNL     1       7.242  23.185  53.376  1.00  0.00     0.001 A 
HETATM    8  C   UNL     1       6.416  24.298  53.200  1.00  0.00     0.016 A 
HETATM    9  C   UNL     1       6.514  25.860  56.658  1.00  0.00     0.069 C 
HETATM   10  C   UNL     1       6.340  27.310  56.159  1.00  0.00     0.028 C 
HETATM   11  C   UNL     1       5.749  28.172  57.282  1.00  0.00     0.038 C 
HETATM   12  C   UNL     1       7.655  27.928  55.675  1.00  0.00     0.038 C 
HETATM   13  N   UNL     1       5.373  27.340  55.027  1.00  0.00    -0.366 N 
HETATM   14  H   UNL     1       4.749  28.126  54.948  1.00  0.00     0.162 HD
HETATM   15  H   UNL     1       4.232  25.517  52.622  1.00  0.00     0.188 HD
ENDROOT
BRANCH   1  16
HETATM   16  N   UNL     1       3.529  27.370  52.848  1.00  0.00    -0.264 N 
HETATM   17  C   UNL     1       3.964  28.185  51.812  1.00  0.00     0.270 C 
HETATM   18  O   UNL     1       5.046  27.985  51.265  1.00  0.00    -0.266 OA
HETATM   19  H   UNL     1       2.711  27.604  53.397  1.00  0.00     0.190 HD
BRANCH  17  20
HETATM   20  C   UNL     1       3.099  29.335  51.453  1.00  0.00     0.039 A 
HETATM   21  C   UNL     1       3.165  30.593  52.087  1.00  0.00    -0.046 A 
HETATM   22  C   UNL     1       4.070  30.899  53.247  1.00  0.00     0.049 C 
HETATM   23  C   UNL     1       2.322  31.617  51.623  1.00  0.00     0.007 A 
HETATM   24  C   UNL     1       1.408  31.385  50.592  1.00  0.00     0.001 A 
HETATM   25  C   UNL     1       1.319  30.126  50.006  1.00  0.00     0.001 A 
HETATM   26  C   UNL     1       2.161  29.102  50.436  1.00  0.00     0.017 A 
ENDBRANCH  17  20
ENDBRANCH   1  16
TORSDOF 2
ENDMDL
MODEL 10
REMARK VINA RESULT:      -8.2      2.544      3.935
REMARK  2 active torsions:
REMARK  status: ('A' for Active; 'I' for Inactive)
REMARK    1  A    between atoms: C_3  and  C_4 
REMARK       I    between atoms: C_4  and  N_5 
REMARK    2  A    between atoms: N_5  and  N_6 
ROOT
HETATM    1  N   UNL     1       7.056  33.357  63.966  1.00  0.00    -0.282 N 
HETATM    2  C   UNL     1       6.225  34.325  64.338  1.00  0.00     0.127 C 
HETATM    3  C   UNL     1       5.990  34.559  65.785  1.00  0.00     0.015 A 
HETATM    4  C   UNL     1       4.817  35.233  66.181  1.00  0.00    -0.042 A 
HETATM    5  C   UNL     1       4.536  35.436  67.538  1.00  0.00     0.008 A 
HETATM    6  C   UNL     1       5.439  35.010  68.508  1.00  0.00     0.001 A 
HETATM    7  C   UNL     1       6.622  34.382  68.130  1.00  0.00     0.001 A 
HETATM    8  C   UNL     1       6.899  34.159  66.779  1.00  0.00     0.016 A 
HETATM    9  C   UNL     1       3.854  35.703  65.121  1.00  0.00     0.069 C 
HETATM   10  C   UNL     1       4.596  36.128  63.837  1.00  0.00     0.028 C 
HETATM   11  C   UNL     1       3.594  36.261  62.684  1.00  0.00     0.038 C 
HETATM   12  C   UNL     1       5.362  37.444  64.008  1.00  0.00     0.038 C 
HETATM   13  N   UNL     1       5.575  35.074  63.449  1.00  0.00    -0.366 N 
HETATM   14  H   UNL     1       5.722  34.890  62.471  1.00  0.00     0.162 HD
HETATM   15  H   UNL     1       7.407  32.734  64.705  1.00  0.00     0.188 HD
ENDROOT
BRANCH   1  16
HETATM   16  N   UNL     1       7.455  33.048  62.735  1.00  0.00    -0.264 N 
HETATM   17  C   UNL     1       6.866  31.917  62.188  1.00  0.00     0.270 C 
HETATM   18  O   UNL     1       6.048  31.261  62.830  1.00  0.00    -0.266 OA
HETATM   19  H   UNL     1       8.227  33.516  62.276  1.00  0.00     0.190 HD
BRANCH  17  20
HETATM   20  C   UNL     1       7.319  31.509  60.837  1.00  0.00     0.039 A 
HETATM   21  C   UNL     1       8.504  30.784  60.595  1.00  0.00    -0.046 A 
HETATM   22  C   UNL     1       9.483  30.397  61.667  1.00  0.00     0.049 C 
HETATM   23  C   UNL     1       8.800  30.416  59.271  1.00  0.00     0.007 A 
HETATM   24  C   UNL     1       7.969  30.798  58.215  1.00  0.00     0.001 A 
HETATM   25  C   UNL     1       6.828  31.555  58.461  1.00  0.00     0.001 A 
HETATM   26  C   UNL     1       6.503  31.911  59.769  1.00  0.00     0.017 A 
ENDBRANCH  17  20
ENDBRANCH   1  16
TORSDOF 2
ENDMDL
