MODEL 1
REMARK VINA RESULT:     -10.1      0.000      0.000
REMARK  7 active torsions:
REMARK  status: ('A' for Active; 'I' for Inactive)
REMARK    1  A    between atoms: C_12  and  S_13 
REMARK    2  A    between atoms: S_13  and  C_14 
REMARK    3  A    between atoms: C_14  and  C_15 
REMARK       I    between atoms: C_15  and  N_16 
REMARK    4  A    between atoms: N_16  and  C_17 
REMARK    5  A    between atoms: C_17  and  C_18 
REMARK    6  A    between atoms: C_18  and  C_19 
REMARK    7  A    between atoms: C_22  and  O_23 
ROOT
HETATM    1  S   UNL     1       7.270  28.391  56.231  1.00  0.00    -0.080 SA
ENDROOT
BRANCH   1   2
HETATM    2  C   UNL     1       7.720  26.817  56.795  1.00  0.00     0.197 A 
HETATM    3  N   UNL     1       7.868  25.660  56.045  1.00  0.00    -0.271 N 
HETATM    4  C   UNL     1       7.741  25.343  54.660  1.00  0.00     0.054 A 
HETATM    5  C   UNL     1       8.214  24.705  56.996  1.00  0.00     0.159 A 
HETATM    6  C   UNL     1       7.981  23.995  54.291  1.00  0.00    -0.003 A 
HETATM    7  C   UNL     1       7.402  26.282  53.680  1.00  0.00     0.031 A 
HETATM    8  C   UNL     1       8.348  22.989  55.321  1.00  0.00    -0.046 A 
HETATM    9  C   UNL     1       7.867  23.637  52.937  1.00  0.00     0.014 A 
HETATM   10  C   UNL     1       8.604  21.561  54.928  1.00  0.00     0.049 C 
HETATM   11  C   UNL     1       8.449  23.371  56.605  1.00  0.00     0.060 A 
HETATM   12  C   UNL     1       7.527  24.582  51.969  1.00  0.00     0.001 A 
HETATM   13  C   UNL     1       7.296  25.900  52.341  1.00  0.00     0.002 A 
HETATM   14  N   UNL     1       8.270  25.247  58.193  1.00  0.00    -0.129 NA
HETATM   15  N   UNL     1       7.962  26.570  58.065  1.00  0.00    -0.122 NA
ENDBRANCH   1   2
BRANCH   1  16
HETATM   16  C   UNL     1       7.536  29.377  57.736  1.00  0.00     0.185 C 
BRANCH  16  17
HETATM   17  C   UNL     1       8.937  29.974  57.736  1.00  0.00     0.227 C 
HETATM   18  N   UNL     1       9.423  30.516  58.894  1.00  0.00    -0.360 N 
HETATM   19  H   UNL     1      10.356  30.901  58.789  1.00  0.00     0.162 HD
HETATM   20  O   UNL     1       9.676  29.963  56.750  1.00  0.00    -0.273 OA
BRANCH  18  21
HETATM   21  C   UNL     1       8.746  30.627  60.175  1.00  0.00     0.127 C 
BRANCH  21  22
HETATM   22  C   UNL     1       8.800  32.051  60.727  1.00  0.00     0.058 C 
BRANCH  22  23
HETATM   23  C   UNL     1       7.773  32.271  61.806  1.00  0.00    -0.057 A 
HETATM   24  C   UNL     1       6.407  32.240  61.504  1.00  0.00     0.010 A 
HETATM   25  C   UNL     1       5.458  32.464  62.503  1.00  0.00     0.037 A 
HETATM   26  C   UNL     1       5.854  32.726  63.817  1.00  0.00     0.068 A 
HETATM   27  C   UNL     1       7.213  32.764  64.122  1.00  0.00     0.037 A 
HETATM   28  C   UNL     1       8.166  32.539  63.123  1.00  0.00     0.010 A 
BRANCH  26  29
HETATM   29  O   UNL     1       4.824  32.926  64.694  1.00  0.00    -0.356 OA
HETATM   30  C   UNL     1       5.070  33.806  65.784  1.00  0.00     0.210 C 
ENDBRANCH  26  29
ENDBRANCH  22  23
ENDBRANCH  21  22
ENDBRANCH  18  21
ENDBRANCH  16  17
ENDBRANCH   1  16
TORSDOF 7
ENDMDL
MODEL 2
REMARK VINA RESULT:      -9.7      1.760      3.223
REMARK  7 active torsions:
REMARK  status: ('A' for Active; 'I' for Inactive)
REMARK    1  A    between atoms: C_12  and  S_13 
REMARK    2  A    between atoms: S_13  and  C_14 
REMARK    3  A    between atoms: C_14  and  C_15 
REMARK       I    between atoms: C_15  and  N_16 
REMARK    4  A    between atoms: N_16  and  C_17 
REMARK    5  A    between atoms: C_17  and  C_18 
REMARK    6  A    between atoms: C_18  and  C_19 
REMARK    7  A    between atoms: C_22  and  O_23 
ROOT
HETATM    1  S   UNL     1       7.718  25.998  57.358  1.00  0.00    -0.080 SA
ENDROOT
BRANCH   1   2
HETATM    2  C   UNL     1       7.641  25.513  55.698  1.00  0.00     0.197 A 
HETATM    3  N   UNL     1       7.805  24.237  55.181  1.00  0.00    -0.271 N 
HETATM    4  C   UNL     1       8.056  22.952  55.749  1.00  0.00     0.054 A 
HETATM    5  C   UNL     1       7.664  24.426  53.810  1.00  0.00     0.159 A 
HETATM    6  C   UNL     1       8.162  21.865  54.844  1.00  0.00    -0.003 A 
HETATM    7  C   UNL     1       8.194  22.729  57.123  1.00  0.00     0.031 A 
HETATM    8  C   UNL     1       8.011  22.089  53.383  1.00  0.00    -0.046 A 
HETATM    9  C   UNL     1       8.409  20.582  55.360  1.00  0.00     0.014 A 
HETATM   10  C   UNL     1       8.122  20.936  52.425  1.00  0.00     0.049 C 
HETATM   11  C   UNL     1       7.774  23.331  52.929  1.00  0.00     0.060 A 
HETATM   12  C   UNL     1       8.547  20.372  56.731  1.00  0.00     0.001 A 
HETATM   13  C   UNL     1       8.438  21.442  57.609  1.00  0.00     0.002 A 
HETATM   14  N   UNL     1       7.435  25.693  53.542  1.00  0.00    -0.129 NA
HETATM   15  N   UNL     1       7.419  26.372  54.725  1.00  0.00    -0.122 NA
ENDBRANCH   1   2
BRANCH   1  16
HETATM   16  C   UNL     1       8.139  27.758  57.176  1.00  0.00     0.185 C 
BRANCH  16  17
HETATM   17  C   UNL     1       6.981  28.630  57.641  1.00  0.00     0.227 C 
HETATM   18  N   UNL     1       7.236  29.668  58.493  1.00  0.00    -0.360 N 
HETATM   19  H   UNL     1       6.401  30.179  58.757  1.00  0.00     0.162 HD
HETATM   20  O   UNL     1       5.820  28.471  57.259  1.00  0.00    -0.273 OA
BRANCH  18  21
HETATM   21  C   UNL     1       8.517  30.056  59.061  1.00  0.00     0.127 C 
BRANCH  21  22
HETATM   22  C   UNL     1       8.632  31.570  59.227  1.00  0.00     0.058 C 
BRANCH  22  23
HETATM   23  C   UNL     1       8.100  32.028  60.561  1.00  0.00    -0.057 A 
HETATM   24  C   UNL     1       8.849  31.837  61.727  1.00  0.00     0.010 A 
HETATM   25  C   UNL     1       8.343  32.245  62.963  1.00  0.00     0.037 A 
HETATM   26  C   UNL     1       7.085  32.842  63.058  1.00  0.00     0.068 A 
HETATM   27  C   UNL     1       6.332  33.028  61.900  1.00  0.00     0.037 A 
HETATM   28  C   UNL     1       6.836  32.622  60.659  1.00  0.00     0.010 A 
BRANCH  26  29
HETATM   29  O   UNL     1       6.713  33.193  64.327  1.00  0.00    -0.356 OA
HETATM   30  C   UNL     1       6.183  34.500  64.503  1.00  0.00     0.210 C 
ENDBRANCH  26  29
ENDBRANCH  22  23
ENDBRANCH  21  22
ENDBRANCH  18  21
ENDBRANCH  16  17
ENDBRANCH   1  16
TORSDOF 7
ENDMDL
MODEL 3
REMARK VINA RESULT:      -9.6      2.613     10.685
REMARK  7 active torsions:
REMARK  status: ('A' for Active; 'I' for Inactive)
REMARK    1  A    between atoms: C_12  and  S_13 
REMARK    2  A    between atoms: S_13  and  C_14 
REMARK    3  A    between atoms: C_14  and  C_15 
REMARK       I    between atoms: C_15  and  N_16 
REMARK    4  A    between atoms: N_16  and  C_17 
REMARK    5  A    between atoms: C_17  and  C_18 
REMARK    6  A    between atoms: C_18  and  C_19 
REMARK    7  A    between atoms: C_22  and  O_23 
ROOT
HETATM    1  S   UNL     1       6.757  30.810  57.844  1.00  0.00    -0.080 SA
ENDROOT
BRANCH   1   2
HETATM    2  C   UNL     1       7.607  30.799  59.352  1.00  0.00     0.197 A 
HETATM    3  N   UNL     1       7.362  31.584  60.468  1.00  0.00    -0.271 N 
HETATM    4  C   UNL     1       6.405  32.592  60.791  1.00  0.00     0.054 A 
HETATM    5  C   UNL     1       8.343  31.178  61.367  1.00  0.00     0.159 A 
HETATM    6  C   UNL     1       6.501  33.172  62.081  1.00  0.00    -0.003 A 
HETATM    7  C   UNL     1       5.402  33.016  59.911  1.00  0.00     0.031 A 
HETATM    8  C   UNL     1       7.557  32.726  63.027  1.00  0.00    -0.046 A 
HETATM    9  C   UNL     1       5.578  34.168  62.442  1.00  0.00     0.014 A 
HETATM   10  C   UNL     1       7.656  33.339  64.395  1.00  0.00     0.049 C 
HETATM   11  C   UNL     1       8.419  31.769  62.645  1.00  0.00     0.060 A 
HETATM   12  C   UNL     1       4.585  34.584  61.557  1.00  0.00     0.001 A 
HETATM   13  C   UNL     1       4.498  34.008  60.296  1.00  0.00     0.002 A 
HETATM   14  N   UNL     1       9.093  30.238  60.835  1.00  0.00    -0.129 NA
HETATM   15  N   UNL     1       8.631  30.001  59.573  1.00  0.00    -0.122 NA
ENDBRANCH   1   2
BRANCH   1  16
HETATM   16  C   UNL     1       6.635  29.027  57.511  1.00  0.00     0.185 C 
BRANCH  16  17
HETATM   17  C   UNL     1       7.439  28.664  56.270  1.00  0.00     0.227 C 
HETATM   18  N   UNL     1       7.058  27.579  55.530  1.00  0.00    -0.360 N 
HETATM   19  H   UNL     1       7.663  27.411  54.734  1.00  0.00     0.162 HD
HETATM   20  O   UNL     1       8.402  29.323  55.873  1.00  0.00    -0.273 OA
BRANCH  18  21
HETATM   21  C   UNL     1       5.955  26.670  55.791  1.00  0.00     0.127 C 
BRANCH  21  22
HETATM   22  C   UNL     1       5.568  25.871  54.548  1.00  0.00     0.058 C 
BRANCH  22  23
HETATM   23  C   UNL     1       6.421  24.640  54.386  1.00  0.00    -0.057 A 
HETATM   24  C   UNL     1       6.880  23.942  55.509  1.00  0.00     0.010 A 
HETATM   25  C   UNL     1       7.687  22.813  55.355  1.00  0.00     0.037 A 
HETATM   26  C   UNL     1       8.053  22.365  54.084  1.00  0.00     0.068 A 
HETATM   27  C   UNL     1       7.604  23.061  52.963  1.00  0.00     0.037 A 
HETATM   28  C   UNL     1       6.794  24.192  53.113  1.00  0.00     0.010 A 
BRANCH  26  29
HETATM   29  O   UNL     1       8.845  21.249  54.078  1.00  0.00    -0.356 OA
HETATM   30  C   UNL     1       8.643  20.324  53.017  1.00  0.00     0.210 C 
ENDBRANCH  26  29
ENDBRANCH  22  23
ENDBRANCH  21  22
ENDBRANCH  18  21
ENDBRANCH  16  17
ENDBRANCH   1  16
TORSDOF 7
ENDMDL
MODEL 4
REMARK VINA RESULT:      -9.6      5.039      8.860
REMARK  7 active torsions:
REMARK  status: ('A' for Active; 'I' for Inactive)
REMARK    1  A    between atoms: C_12  and  S_13 
REMARK    2  A    between atoms: S_13  and  C_14 
REMARK    3  A    between atoms: C_14  and  C_15 
REMARK       I    between atoms: C_15  and  N_16 
REMARK    4  A    between atoms: N_16  and  C_17 
REMARK    5  A    between atoms: C_17  and  C_18 
REMARK    6  A    between atoms: C_18  and  C_19 
REMARK    7  A    between atoms: C_22  and  O_23 
ROOT
HETATM    1  S   UNL     1       7.547  28.511  55.481  1.00  0.00    -0.080 SA
ENDROOT
BRANCH   1   2
HETATM    2  C   UNL     1       7.784  27.102  56.457  1.00  0.00     0.197 A 
HETATM    3  N   UNL     1       7.858  25.783  56.036  1.00  0.00    -0.271 N 
HETATM    4  C   UNL     1       7.794  25.134  54.766  1.00  0.00     0.054 A 
HETATM    5  C   UNL     1       8.033  25.077  57.221  1.00  0.00     0.159 A 
HETATM    6  C   UNL     1       7.912  23.720  54.767  1.00  0.00    -0.003 A 
HETATM    7  C   UNL     1       7.627  25.817  53.557  1.00  0.00     0.031 A 
HETATM    8  C   UNL     1       8.096  22.984  56.045  1.00  0.00    -0.046 A 
HETATM    9  C   UNL     1       7.855  23.039  53.540  1.00  0.00     0.014 A 
HETATM   10  C   UNL     1       8.224  21.487  56.045  1.00  0.00     0.049 C 
HETATM   11  C   UNL     1       8.149  23.672  57.198  1.00  0.00     0.060 A 
HETATM   12  C   UNL     1       7.686  23.730  52.341  1.00  0.00     0.001 A 
HETATM   13  C   UNL     1       7.573  25.114  52.350  1.00  0.00     0.002 A 
HETATM   14  N   UNL     1       8.064  25.901  58.246  1.00  0.00    -0.129 NA
HETATM   15  N   UNL     1       7.909  27.168  57.766  1.00  0.00    -0.122 NA
ENDBRANCH   1   2
BRANCH   1  16
HETATM   16  C   UNL     1       5.864  28.987  55.979  1.00  0.00     0.185 C 
BRANCH  16  17
HETATM   17  C   UNL     1       4.883  27.867  55.664  1.00  0.00     0.227 C 
HETATM   18  N   UNL     1       4.256  27.860  54.448  1.00  0.00    -0.360 N 
HETATM   19  H   UNL     1       3.612  27.084  54.339  1.00  0.00     0.162 HD
HETATM   20  O   UNL     1       4.647  26.937  56.438  1.00  0.00    -0.273 OA
BRANCH  18  21
HETATM   21  C   UNL     1       4.386  28.834  53.378  1.00  0.00     0.127 C 
BRANCH  21  22
HETATM   22  C   UNL     1       5.357  28.364  52.295  1.00  0.00     0.058 C 
BRANCH  22  23
HETATM   23  C   UNL     1       4.635  27.952  51.038  1.00  0.00    -0.057 A 
HETATM   24  C   UNL     1       3.577  28.721  50.542  1.00  0.00     0.010 A 
HETATM   25  C   UNL     1       2.898  28.325  49.388  1.00  0.00     0.037 A 
HETATM   26  C   UNL     1       3.258  27.156  48.714  1.00  0.00     0.068 A 
HETATM   27  C   UNL     1       4.307  26.382  49.208  1.00  0.00     0.037 A 
HETATM   28  C   UNL     1       4.990  26.777  50.364  1.00  0.00     0.010 A 
BRANCH  26  29
HETATM   29  O   UNL     1       2.512  26.886  47.600  1.00  0.00    -0.356 OA
HETATM   30  C   UNL     1       2.753  25.645  46.950  1.00  0.00     0.210 C 
ENDBRANCH  26  29
ENDBRANCH  22  23
ENDBRANCH  21  22
ENDBRANCH  18  21
ENDBRANCH  16  17
ENDBRANCH   1  16
TORSDOF 7
ENDMDL
MODEL 5
REMARK VINA RESULT:      -9.5      1.701      2.326
REMARK  7 active torsions:
REMARK  status: ('A' for Active; 'I' for Inactive)
REMARK    1  A    between atoms: C_12  and  S_13 
REMARK    2  A    between atoms: S_13  and  C_14 
REMARK    3  A    between atoms: C_14  and  C_15 
REMARK       I    between atoms: C_15  and  N_16 
REMARK    4  A    between atoms: N_16  and  C_17 
REMARK    5  A    between atoms: C_17  and  C_18 
REMARK    6  A    between atoms: C_18  and  C_19 
REMARK    7  A    between atoms: C_22  and  O_23 
ROOT
HETATM    1  S   UNL     1       7.864  28.520  55.446  1.00  0.00    -0.080 SA
ENDROOT
BRANCH   1   2
HETATM    2  C   UNL     1       7.956  27.060  56.371  1.00  0.00     0.197 A 
HETATM    3  N   UNL     1       7.890  25.756  55.903  1.00  0.00    -0.271 N 
HETATM    4  C   UNL     1       7.754  25.162  54.613  1.00  0.00     0.054 A 
HETATM    5  C   UNL     1       7.993  24.994  57.062  1.00  0.00     0.159 A 
HETATM    6  C   UNL     1       7.724  23.745  54.564  1.00  0.00    -0.003 A 
HETATM    7  C   UNL     1       7.656  25.901  53.429  1.00  0.00     0.031 A 
HETATM    8  C   UNL     1       7.834  22.949  55.814  1.00  0.00    -0.046 A 
HETATM    9  C   UNL     1       7.592  23.117  53.314  1.00  0.00     0.014 A 
HETATM   10  C   UNL     1       7.804  21.448  55.761  1.00  0.00     0.049 C 
HETATM   11  C   UNL     1       7.961  23.587  56.989  1.00  0.00     0.060 A 
HETATM   12  C   UNL     1       7.493  23.864  52.141  1.00  0.00     0.001 A 
HETATM   13  C   UNL     1       7.526  25.251  52.199  1.00  0.00     0.002 A 
HETATM   14  N   UNL     1       8.113  25.774  58.115  1.00  0.00    -0.129 NA
HETATM   15  N   UNL     1       8.091  27.067  57.681  1.00  0.00    -0.122 NA
ENDBRANCH   1   2
BRANCH   1  16
HETATM   16  C   UNL     1       6.083  28.870  55.543  1.00  0.00     0.185 C 
BRANCH  16  17
HETATM   17  C   UNL     1       5.564  28.584  56.946  1.00  0.00     0.227 C 
HETATM   18  N   UNL     1       5.783  29.505  57.932  1.00  0.00    -0.360 N 
HETATM   19  H   UNL     1       5.414  29.218  58.832  1.00  0.00     0.162 HD
HETATM   20  O   UNL     1       4.919  27.574  57.234  1.00  0.00    -0.273 OA
BRANCH  18  21
HETATM   21  C   UNL     1       6.498  30.766  57.826  1.00  0.00     0.127 C 
BRANCH  21  22
HETATM   22  C   UNL     1       7.890  30.687  58.453  1.00  0.00     0.058 C 
BRANCH  22  23
HETATM   23  C   UNL     1       7.891  31.183  59.875  1.00  0.00    -0.057 A 
HETATM   24  C   UNL     1       8.882  30.767  60.771  1.00  0.00     0.010 A 
HETATM   25  C   UNL     1       8.867  31.212  62.095  1.00  0.00     0.037 A 
HETATM   26  C   UNL     1       7.866  32.074  62.547  1.00  0.00     0.068 A 
HETATM   27  C   UNL     1       6.872  32.486  61.660  1.00  0.00     0.037 A 
HETATM   28  C   UNL     1       6.884  32.042  60.333  1.00  0.00     0.010 A 
BRANCH  26  29
HETATM   29  O   UNL     1       7.972  32.432  63.863  1.00  0.00    -0.356 OA
HETATM   30  C   UNL     1       7.262  33.594  64.271  1.00  0.00     0.210 C 
ENDBRANCH  26  29
ENDBRANCH  22  23
ENDBRANCH  21  22
ENDBRANCH  18  21
ENDBRANCH  16  17
ENDBRANCH   1  16
TORSDOF 7
ENDMDL
MODEL 6
REMARK VINA RESULT:      -9.0      4.795      9.716
REMARK  7 active torsions:
REMARK  status: ('A' for Active; 'I' for Inactive)
REMARK    1  A    between atoms: C_12  and  S_13 
REMARK    2  A    between atoms: S_13  and  C_14 
REMARK    3  A    between atoms: C_14  and  C_15 
REMARK       I    between atoms: C_15  and  N_16 
REMARK    4  A    between atoms: N_16  and  C_17 
REMARK    5  A    between atoms: C_17  and  C_18 
REMARK    6  A    between atoms: C_18  and  C_19 
REMARK    7  A    between atoms: C_22  and  O_23 
ROOT
HETATM    1  S   UNL     1       3.990  28.279  53.124  1.00  0.00    -0.080 SA
ENDROOT
BRANCH   1   2
HETATM    2  C   UNL     1       4.137  29.666  54.150  1.00  0.00     0.197 A 
HETATM    3  N   UNL     1       4.934  29.805  55.276  1.00  0.00    -0.271 N 
HETATM    4  C   UNL     1       5.863  28.961  55.954  1.00  0.00     0.054 A 
HETATM    5  C   UNL     1       4.648  31.094  55.713  1.00  0.00     0.159 A 
HETATM    6  C   UNL     1       6.485  29.497  57.110  1.00  0.00    -0.003 A 
HETATM    7  C   UNL     1       6.177  27.664  55.534  1.00  0.00     0.031 A 
HETATM    8  C   UNL     1       6.165  30.876  57.562  1.00  0.00    -0.046 A 
HETATM    9  C   UNL     1       7.407  28.701  57.810  1.00  0.00     0.014 A 
HETATM   10  C   UNL     1       6.826  31.445  58.786  1.00  0.00     0.049 C 
HETATM   11  C   UNL     1       5.279  31.607  56.865  1.00  0.00     0.060 A 
HETATM   12  C   UNL     1       7.711  27.409  57.383  1.00  0.00     0.001 A 
HETATM   13  C   UNL     1       7.098  26.893  56.249  1.00  0.00     0.002 A 
HETATM   14  N   UNL     1       3.769  31.665  54.918  1.00  0.00    -0.129 NA
HETATM   15  N   UNL     1       3.451  30.770  53.939  1.00  0.00    -0.122 NA
ENDBRANCH   1   2
BRANCH   1  16
HETATM   16  C   UNL     1       5.440  28.498  52.050  1.00  0.00     0.185 C 
BRANCH  16  17
HETATM   17  C   UNL     1       5.431  27.464  50.933  1.00  0.00     0.227 C 
HETATM   18  N   UNL     1       6.031  26.253  51.148  1.00  0.00    -0.360 N 
HETATM   19  H   UNL     1       5.986  25.640  50.342  1.00  0.00     0.162 HD
HETATM   20  O   UNL     1       4.877  27.646  49.847  1.00  0.00    -0.273 OA
BRANCH  18  21
HETATM   21  C   UNL     1       6.728  25.809  52.343  1.00  0.00     0.127 C 
BRANCH  21  22
HETATM   22  C   UNL     1       7.748  24.714  52.034  1.00  0.00     0.058 C 
BRANCH  22  23
HETATM   23  C   UNL     1       7.724  23.619  53.069  1.00  0.00    -0.057 A 
HETATM   24  C   UNL     1       7.353  23.898  54.389  1.00  0.00     0.010 A 
HETATM   25  C   UNL     1       7.351  22.885  55.350  1.00  0.00     0.037 A 
HETATM   26  C   UNL     1       7.723  21.582  55.014  1.00  0.00     0.068 A 
HETATM   27  C   UNL     1       8.101  21.300  53.702  1.00  0.00     0.037 A 
HETATM   28  C   UNL     1       8.103  22.313  52.736  1.00  0.00     0.010 A 
BRANCH  26  29
HETATM   29  O   UNL     1       7.676  20.689  56.049  1.00  0.00    -0.356 OA
HETATM   30  C   UNL     1       8.453  20.999  57.200  1.00  0.00     0.210 C 
ENDBRANCH  26  29
ENDBRANCH  22  23
ENDBRANCH  21  22
ENDBRANCH  18  21
ENDBRANCH  16  17
ENDBRANCH   1  16
TORSDOF 7
ENDMDL
MODEL 7
REMARK VINA RESULT:      -9.0      2.935     10.567
REMARK  7 active torsions:
REMARK  status: ('A' for Active; 'I' for Inactive)
REMARK    1  A    between atoms: C_12  and  S_13 
REMARK    2  A    between atoms: S_13  and  C_14 
REMARK    3  A    between atoms: C_14  and  C_15 
REMARK       I    between atoms: C_15  and  N_16 
REMARK    4  A    between atoms: N_16  and  C_17 
REMARK    5  A    between atoms: C_17  and  C_18 
REMARK    6  A    between atoms: C_18  and  C_19 
REMARK    7  A    between atoms: C_22  and  O_23 
ROOT
HETATM    1  S   UNL     1       6.065  31.021  57.273  1.00  0.00    -0.080 SA
ENDROOT
BRANCH   1   2
HETATM    2  C   UNL     1       5.003  31.564  58.527  1.00  0.00     0.197 A 
HETATM    3  N   UNL     1       5.341  31.939  59.819  1.00  0.00    -0.271 N 
HETATM    4  C   UNL     1       6.566  32.034  60.545  1.00  0.00     0.054 A 
HETATM    5  C   UNL     1       4.114  32.260  60.390  1.00  0.00     0.159 A 
HETATM    6  C   UNL     1       6.476  32.470  61.891  1.00  0.00    -0.003 A 
HETATM    7  C   UNL     1       7.816  31.726  59.995  1.00  0.00     0.031 A 
HETATM    8  C   UNL     1       5.156  32.806  62.484  1.00  0.00    -0.046 A 
HETATM    9  C   UNL     1       7.658  32.579  62.644  1.00  0.00     0.014 A 
HETATM   10  C   UNL     1       5.062  33.270  63.910  1.00  0.00     0.049 C 
HETATM   11  C   UNL     1       4.049  32.691  61.731  1.00  0.00     0.060 A 
HETATM   12  C   UNL     1       8.897  32.267  62.086  1.00  0.00     0.001 A 
HETATM   13  C   UNL     1       8.975  31.843  60.766  1.00  0.00     0.002 A 
HETATM   14  N   UNL     1       3.144  32.095  59.518  1.00  0.00    -0.129 NA
HETATM   15  N   UNL     1       3.702  31.660  58.352  1.00  0.00    -0.122 NA
ENDBRANCH   1   2
BRANCH   1  16
HETATM   16  C   UNL     1       5.790  29.225  57.352  1.00  0.00     0.185 C 
BRANCH  16  17
HETATM   17  C   UNL     1       7.120  28.491  57.462  1.00  0.00     0.227 C 
HETATM   18  N   UNL     1       7.486  27.634  56.461  1.00  0.00    -0.360 N 
HETATM   19  H   UNL     1       8.378  27.183  56.632  1.00  0.00     0.162 HD
HETATM   20  O   UNL     1       7.908  28.656  58.395  1.00  0.00    -0.273 OA
BRANCH  18  21
HETATM   21  C   UNL     1       6.734  27.294  55.264  1.00  0.00     0.127 C 
BRANCH  21  22
HETATM   22  C   UNL     1       5.970  25.980  55.425  1.00  0.00     0.058 C 
BRANCH  22  23
HETATM   23  C   UNL     1       6.780  24.802  54.951  1.00  0.00    -0.057 A 
HETATM   24  C   UNL     1       7.257  24.751  53.637  1.00  0.00     0.010 A 
HETATM   25  C   UNL     1       7.991  23.647  53.196  1.00  0.00     0.037 A 
HETATM   26  C   UNL     1       8.256  22.577  54.053  1.00  0.00     0.068 A 
HETATM   27  C   UNL     1       7.777  22.621  55.362  1.00  0.00     0.037 A 
HETATM   28  C   UNL     1       7.042  23.725  55.807  1.00  0.00     0.010 A 
BRANCH  26  29
HETATM   29  O   UNL     1       8.984  21.564  53.494  1.00  0.00    -0.356 OA
HETATM   30  C   UNL     1       8.252  20.502  52.895  1.00  0.00     0.210 C 
ENDBRANCH  26  29
ENDBRANCH  22  23
ENDBRANCH  21  22
ENDBRANCH  18  21
ENDBRANCH  16  17
ENDBRANCH   1  16
TORSDOF 7
ENDMDL
MODEL 8
REMARK VINA RESULT:      -8.9      6.896     10.688
REMARK  7 active torsions:
REMARK  status: ('A' for Active; 'I' for Inactive)
REMARK    1  A    between atoms: C_12  and  S_13 
REMARK    2  A    between atoms: S_13  and  C_14 
REMARK    3  A    between atoms: C_14  and  C_15 
REMARK       I    between atoms: C_15  and  N_16 
REMARK    4  A    between atoms: N_16  and  C_17 
REMARK    5  A    between atoms: C_17  and  C_18 
REMARK    6  A    between atoms: C_18  and  C_19 
REMARK    7  A    between atoms: C_22  and  O_23 
ROOT
HETATM    1  S   UNL     1       7.331  25.345  52.267  1.00  0.00    -0.080 SA
ENDROOT
BRANCH   1   2
HETATM    2  C   UNL     1       7.519  25.189  53.981  1.00  0.00     0.197 A 
HETATM    3  N   UNL     1       7.789  24.036  54.701  1.00  0.00    -0.271 N 
HETATM    4  C   UNL     1       8.015  22.670  54.355  1.00  0.00     0.054 A 
HETATM    5  C   UNL     1       7.813  24.480  56.019  1.00  0.00     0.159 A 
HETATM    6  C   UNL     1       8.261  21.774  55.426  1.00  0.00    -0.003 A 
HETATM    7  C   UNL     1       8.005  22.195  53.039  1.00  0.00     0.031 A 
HETATM    8  C   UNL     1       8.280  22.267  56.828  1.00  0.00    -0.046 A 
HETATM    9  C   UNL     1       8.488  20.419  55.132  1.00  0.00     0.014 A 
HETATM   10  C   UNL     1       8.544  21.317  57.962  1.00  0.00     0.049 C 
HETATM   11  C   UNL     1       8.060  23.571  57.068  1.00  0.00     0.060 A 
HETATM   12  C   UNL     1       8.474  19.957  53.817  1.00  0.00     0.001 A 
HETATM   13  C   UNL     1       8.234  20.843  52.775  1.00  0.00     0.002 A 
HETATM   14  N   UNL     1       7.583  25.774  56.073  1.00  0.00    -0.129 NA
HETATM   15  N   UNL     1       7.400  26.217  54.796  1.00  0.00    -0.122 NA
ENDBRANCH   1   2
BRANCH   1  16
HETATM   16  C   UNL     1       6.520  26.969  52.162  1.00  0.00     0.185 C 
BRANCH  16  17
HETATM   17  C   UNL     1       5.006  26.805  52.171  1.00  0.00     0.227 C 
HETATM   18  N   UNL     1       4.357  26.605  50.983  1.00  0.00    -0.360 N 
HETATM   19  H   UNL     1       3.352  26.523  51.090  1.00  0.00     0.162 HD
HETATM   20  O   UNL     1       4.332  26.807  53.202  1.00  0.00    -0.273 OA
BRANCH  18  21
HETATM   21  C   UNL     1       4.939  26.550  49.652  1.00  0.00     0.127 C 
BRANCH  21  22
HETATM   22  C   UNL     1       4.606  27.796  48.832  1.00  0.00     0.058 C 
BRANCH  22  23
HETATM   23  C   UNL     1       3.247  27.696  48.190  1.00  0.00    -0.057 A 
HETATM   24  C   UNL     1       2.303  28.714  48.364  1.00  0.00     0.010 A 
HETATM   25  C   UNL     1       1.038  28.608  47.783  1.00  0.00     0.037 A 
HETATM   26  C   UNL     1       0.691  27.487  47.026  1.00  0.00     0.068 A 
HETATM   27  C   UNL     1       1.626  26.467  46.855  1.00  0.00     0.037 A 
HETATM   28  C   UNL     1       2.895  26.570  47.435  1.00  0.00     0.010 A 
BRANCH  26  29
HETATM   29  O   UNL     1      -0.577  27.512  46.515  1.00  0.00    -0.356 OA
HETATM   30  C   UNL     1      -0.720  27.957  45.172  1.00  0.00     0.210 C 
ENDBRANCH  26  29
ENDBRANCH  22  23
ENDBRANCH  21  22
ENDBRANCH  18  21
ENDBRANCH  16  17
ENDBRANCH   1  16
TORSDOF 7
ENDMDL
MODEL 9
REMARK VINA RESULT:      -8.8      2.557      3.788
REMARK  7 active torsions:
REMARK  status: ('A' for Active; 'I' for Inactive)
REMARK    1  A    between atoms: C_12  and  S_13 
REMARK    2  A    between atoms: S_13  and  C_14 
REMARK    3  A    between atoms: C_14  and  C_15 
REMARK       I    between atoms: C_15  and  N_16 
REMARK    4  A    between atoms: N_16  and  C_17 
REMARK    5  A    between atoms: C_17  and  C_18 
REMARK    6  A    between atoms: C_18  and  C_19 
REMARK    7  A    between atoms: C_22  and  O_23 
ROOT
HETATM    1  S   UNL     1       7.365  27.319  54.198  1.00  0.00    -0.080 SA
ENDROOT
BRANCH   1   2
HETATM    2  C   UNL     1       7.702  26.362  55.601  1.00  0.00     0.197 A 
HETATM    3  N   UNL     1       7.891  24.990  55.663  1.00  0.00    -0.271 N 
HETATM    4  C   UNL     1       7.900  23.936  54.701  1.00  0.00     0.054 A 
HETATM    5  C   UNL     1       8.105  24.758  57.018  1.00  0.00     0.159 A 
HETATM    6  C   UNL     1       8.134  22.627  55.193  1.00  0.00    -0.003 A 
HETATM    7  C   UNL     1       7.697  24.139  53.332  1.00  0.00     0.031 A 
HETATM    8  C   UNL     1       8.358  22.399  56.644  1.00  0.00    -0.046 A 
HETATM    9  C   UNL     1       8.153  21.558  54.280  1.00  0.00     0.014 A 
HETATM   10  C   UNL     1       8.609  21.011  57.163  1.00  0.00     0.049 C 
HETATM   11  C   UNL     1       8.336  23.447  57.484  1.00  0.00     0.060 A 
HETATM   12  C   UNL     1       7.946  21.772  52.918  1.00  0.00     0.001 A 
HETATM   13  C   UNL     1       7.720  23.059  52.446  1.00  0.00     0.002 A 
HETATM   14  N   UNL     1       8.052  25.886  57.692  1.00  0.00    -0.129 NA
HETATM   15  N   UNL     1       7.801  26.890  56.803  1.00  0.00    -0.122 NA
ENDBRANCH   1   2
BRANCH   1  16
HETATM   16  C   UNL     1       5.580  27.599  54.402  1.00  0.00     0.185 C 
BRANCH  16  17
HETATM   17  C   UNL     1       5.210  29.004  53.948  1.00  0.00     0.227 C 
HETATM   18  N   UNL     1       5.095  29.992  54.886  1.00  0.00    -0.360 N 
HETATM   19  H   UNL     1       4.831  30.887  54.489  1.00  0.00     0.162 HD
HETATM   20  O   UNL     1       5.043  29.311  52.766  1.00  0.00    -0.273 OA
BRANCH  18  21
HETATM   21  C   UNL     1       5.261  29.873  56.325  1.00  0.00     0.127 C 
BRANCH  21  22
HETATM   22  C   UNL     1       5.503  31.230  56.986  1.00  0.00     0.058 C 
BRANCH  22  23
HETATM   23  C   UNL     1       6.505  31.135  58.106  1.00  0.00    -0.057 A 
HETATM   24  C   UNL     1       6.508  32.081  59.137  1.00  0.00     0.010 A 
HETATM   25  C   UNL     1       7.452  32.002  60.164  1.00  0.00     0.037 A 
HETATM   26  C   UNL     1       8.407  30.983  60.177  1.00  0.00     0.068 A 
HETATM   27  C   UNL     1       8.412  30.042  59.149  1.00  0.00     0.037 A 
HETATM   28  C   UNL     1       7.468  30.119  58.119  1.00  0.00     0.010 A 
BRANCH  26  29
HETATM   29  O   UNL     1       9.269  31.023  61.239  1.00  0.00    -0.356 OA
HETATM   30  C   UNL     1       8.831  30.410  62.445  1.00  0.00     0.210 C 
ENDBRANCH  26  29
ENDBRANCH  22  23
ENDBRANCH  21  22
ENDBRANCH  18  21
ENDBRANCH  16  17
ENDBRANCH   1  16
TORSDOF 7
ENDMDL
MODEL 10
REMARK VINA RESULT:      -8.8      5.846      9.609
REMARK  7 active torsions:
REMARK  status: ('A' for Active; 'I' for Inactive)
REMARK    1  A    between atoms: C_12  and  S_13 
REMARK    2  A    between atoms: S_13  and  C_14 
REMARK    3  A    between atoms: C_14  and  C_15 
REMARK       I    between atoms: C_15  and  N_16 
REMARK    4  A    between atoms: N_16  and  C_17 
REMARK    5  A    between atoms: C_17  and  C_18 
REMARK    6  A    between atoms: C_18  and  C_19 
REMARK    7  A    between atoms: C_22  and  O_23 
ROOT
HETATM    1  S   UNL     1       4.945  27.655  55.105  1.00  0.00    -0.080 SA
ENDROOT
BRANCH   1   2
HETATM    2  C   UNL     1       5.328  26.292  54.109  1.00  0.00     0.197 A 
HETATM    3  N   UNL     1       6.288  25.318  54.342  1.00  0.00    -0.271 N 
HETATM    4  C   UNL     1       7.225  25.066  55.388  1.00  0.00     0.054 A 
HETATM    5  C   UNL     1       6.181  24.491  53.228  1.00  0.00     0.159 A 
HETATM    6  C   UNL     1       8.057  23.928  55.237  1.00  0.00    -0.003 A 
HETATM    7  C   UNL     1       7.351  25.874  56.523  1.00  0.00     0.031 A 
HETATM    8  C   UNL     1       7.929  23.058  54.039  1.00  0.00    -0.046 A 
HETATM    9  C   UNL     1       8.995  23.642  56.244  1.00  0.00     0.014 A 
HETATM   10  C   UNL     1       8.809  21.850  53.882  1.00  0.00     0.049 C 
HETATM   11  C   UNL     1       7.018  23.364  53.100  1.00  0.00     0.060 A 
HETATM   12  C   UNL     1       9.113  24.455  57.370  1.00  0.00     0.001 A 
HETATM   13  C   UNL     1       8.292  25.567  57.508  1.00  0.00     0.002 A 
HETATM   14  N   UNL     1       5.244  24.932  52.416  1.00  0.00    -0.129 NA
HETATM   15  N   UNL     1       4.711  26.059  52.970  1.00  0.00    -0.122 NA
ENDBRANCH   1   2
BRANCH   1  16
HETATM   16  C   UNL     1       4.093  28.722  53.903  1.00  0.00     0.185 C 
BRANCH  16  17
HETATM   17  C   UNL     1       4.510  30.173  54.096  1.00  0.00     0.227 C 
HETATM   18  N   UNL     1       4.482  31.017  53.020  1.00  0.00    -0.360 N 
HETATM   19  H   UNL     1       4.790  31.957  53.246  1.00  0.00     0.162 HD
HETATM   20  O   UNL     1       4.840  30.642  55.187  1.00  0.00    -0.273 OA
BRANCH  18  21
HETATM   21  C   UNL     1       4.115  30.698  51.651  1.00  0.00     0.127 C 
BRANCH  21  22
HETATM   22  C   UNL     1       5.338  30.363  50.797  1.00  0.00     0.058 C 
BRANCH  22  23
HETATM   23  C   UNL     1       5.049  29.256  49.817  1.00  0.00    -0.057 A 
HETATM   24  C   UNL     1       4.878  27.940  50.262  1.00  0.00     0.010 A 
HETATM   25  C   UNL     1       4.630  26.914  49.349  1.00  0.00     0.037 A 
HETATM   26  C   UNL     1       4.553  27.179  47.980  1.00  0.00     0.068 A 
HETATM   27  C   UNL     1       4.729  28.487  47.531  1.00  0.00     0.037 A 
HETATM   28  C   UNL     1       4.976  29.518  48.444  1.00  0.00     0.010 A 
BRANCH  26  29
HETATM   29  O   UNL     1       4.305  26.084  47.199  1.00  0.00    -0.356 OA
HETATM   30  C   UNL     1       2.958  25.633  47.134  1.00  0.00     0.210 C 
ENDBRANCH  26  29
ENDBRANCH  22  23
ENDBRANCH  21  22
ENDBRANCH  18  21
ENDBRANCH  16  17
ENDBRANCH   1  16
TORSDOF 7
ENDMDL
