MODEL 1
REMARK VINA RESULT:     -11.2      0.000      0.000
REMARK  3 active torsions:
REMARK  status: ('A' for Active; 'I' for Inactive)
REMARK    1  A    between atoms: C_2  and  N_3 
REMARK    2  A    between atoms: C_6  and  C_7 
REMARK       I    between atoms: C_7  and  N_8 
REMARK    3  A    between atoms: N_8  and  C_9 
ROOT
HETATM    1  C   UNL     1       7.059  29.026  56.423  1.00  0.00     0.036 A 
HETATM    2  C   UNL     1       7.870  29.452  57.475  1.00  0.00     0.049 A 
HETATM    3  C   UNL     1       7.526  30.574  58.265  1.00  0.00     0.061 A 
HETATM    4  C   UNL     1       6.355  31.287  57.979  1.00  0.00     0.050 A 
HETATM    5  N   UNL     1       5.857  32.394  58.685  1.00  0.00    -0.324 N 
HETATM    6  C   UNL     1       5.992  32.696  60.012  1.00  0.00     0.245 C 
HETATM    7  O   UNL     1       5.330  33.634  60.461  1.00  0.00    -0.271 OA
HETATM    8  C   UNL     1       6.773  31.731  60.899  1.00  0.00     0.180 C 
HETATM    9  N   UNL     1       8.143  31.584  60.437  1.00  0.00    -0.334 N 
HETATM   10  C   UNL     1       8.545  30.986  59.267  1.00  0.00     0.256 C 
HETATM   11  O   UNL     1       9.732  30.772  59.027  1.00  0.00    -0.267 OA
HETATM   12  C   UNL     1       6.910  32.251  62.335  1.00  0.00     0.037 C 
HETATM   13  C   UNL     1       8.269  31.722  62.774  1.00  0.00     0.022 C 
HETATM   14  C   UNL     1       9.094  31.846  61.504  1.00  0.00     0.127 C 
HETATM   15  C   UNL     1       5.579  30.893  56.877  1.00  0.00     0.033 A 
HETATM   16  C   UNL     1       5.916  29.766  56.123  1.00  0.00     0.032 A 
HETATM   17  H   UNL     1       5.149  32.969  58.242  1.00  0.00     0.169 HD
ENDROOT
BRANCH   1  18
HETATM   18  N   UNL     1       7.317  27.892  55.624  1.00  0.00    -0.323 N 
HETATM   19  C   UNL     1       6.493  26.802  55.413  1.00  0.00     0.257 C 
HETATM   20  O   UNL     1       5.360  26.652  55.856  1.00  0.00    -0.267 OA
HETATM   21  H   UNL     1       8.187  27.903  55.109  1.00  0.00     0.169 HD
BRANCH  19  22
HETATM   22  C   UNL     1       7.029  25.758  54.498  1.00  0.00     0.044 A 
HETATM   23  C   UNL     1       7.342  24.440  54.921  1.00  0.00     0.008 A 
HETATM   24  C   UNL     1       7.892  23.546  53.984  1.00  0.00     0.045 A 
HETATM   25  C   UNL     1       7.198  23.711  56.138  1.00  0.00     0.032 A 
HETATM   26  N   UNL     1       8.138  22.354  54.645  1.00  0.00    -0.352 N 
HETATM   27  C   UNL     1       8.094  23.921  52.643  1.00  0.00     0.030 A 
HETATM   28  C   UNL     1       7.713  22.452  55.948  1.00  0.00     0.092 A 
HETATM   29  C   UNL     1       7.742  25.210  52.241  1.00  0.00     0.003 A 
HETATM   30  C   UNL     1       7.220  26.118  53.152  1.00  0.00     0.018 A 
BRANCH  26  31
HETATM   31  C   UNL     1       8.730  21.130  54.098  1.00  0.00     0.081 C 
HETATM   32  C   UNL     1       7.955  20.572  52.903  1.00  0.00     0.032 C 
HETATM   33  C   UNL     1       8.978  20.074  55.174  1.00  0.00     0.032 C 
ENDBRANCH  26  31
ENDBRANCH  19  22
ENDBRANCH   1  18
TORSDOF 3
ENDMDL
MODEL 2
REMARK VINA RESULT:     -11.0      2.019      9.976
REMARK  3 active torsions:
REMARK  status: ('A' for Active; 'I' for Inactive)
REMARK    1  A    between atoms: C_2  and  N_3 
REMARK    2  A    between atoms: C_6  and  C_7 
REMARK       I    between atoms: C_7  and  N_8 
REMARK    3  A    between atoms: N_8  and  C_9 
ROOT
HETATM    1  C   UNL     1       6.389  28.220  57.406  1.00  0.00     0.036 A 
HETATM    2  C   UNL     1       6.879  26.931  57.193  1.00  0.00     0.049 A 
HETATM    3  C   UNL     1       6.432  26.141  56.108  1.00  0.00     0.061 A 
HETATM    4  C   UNL     1       5.465  26.654  55.233  1.00  0.00     0.050 A 
HETATM    5  N   UNL     1       4.947  26.016  54.095  1.00  0.00    -0.324 N 
HETATM    6  C   UNL     1       5.556  25.116  53.265  1.00  0.00     0.245 C 
HETATM    7  O   UNL     1       4.973  24.807  52.222  1.00  0.00    -0.271 OA
HETATM    8  C   UNL     1       6.999  24.719  53.559  1.00  0.00     0.180 C 
HETATM    9  N   UNL     1       7.119  24.111  54.873  1.00  0.00    -0.334 N 
HETATM   10  C   UNL     1       6.946  24.745  56.080  1.00  0.00     0.256 C 
HETATM   11  O   UNL     1       7.214  24.192  57.144  1.00  0.00    -0.267 OA
HETATM   12  C   UNL     1       7.508  23.641  52.594  1.00  0.00     0.037 C 
HETATM   13  C   UNL     1       8.467  22.826  53.451  1.00  0.00     0.022 C 
HETATM   14  C   UNL     1       7.772  22.815  54.802  1.00  0.00     0.127 C 
HETATM   15  C   UNL     1       4.929  27.924  55.493  1.00  0.00     0.033 A 
HETATM   16  C   UNL     1       5.399  28.705  56.553  1.00  0.00     0.032 A 
HETATM   17  H   UNL     1       4.087  26.373  53.692  1.00  0.00     0.169 HD
ENDROOT
BRANCH   1  18
HETATM   18  N   UNL     1       6.821  29.078  58.440  1.00  0.00    -0.323 N 
HETATM   19  C   UNL     1       7.826  30.025  58.387  1.00  0.00     0.257 C 
HETATM   20  O   UNL     1       8.495  30.319  57.403  1.00  0.00    -0.267 OA
HETATM   21  H   UNL     1       6.301  29.023  59.306  1.00  0.00     0.169 HD
BRANCH  19  22
HETATM   22  C   UNL     1       8.047  30.800  59.639  1.00  0.00     0.044 A 
HETATM   23  C   UNL     1       7.122  31.756  60.134  1.00  0.00     0.008 A 
HETATM   24  C   UNL     1       7.454  32.470  61.301  1.00  0.00     0.045 A 
HETATM   25  C   UNL     1       5.820  32.193  59.750  1.00  0.00     0.032 A 
HETATM   26  N   UNL     1       6.417  33.354  61.552  1.00  0.00    -0.352 N 
HETATM   27  C   UNL     1       8.651  32.223  61.995  1.00  0.00     0.030 A 
HETATM   28  C   UNL     1       5.426  33.182  60.616  1.00  0.00     0.092 A 
HETATM   29  C   UNL     1       9.527  31.250  61.512  1.00  0.00     0.003 A 
HETATM   30  C   UNL     1       9.233  30.549  60.350  1.00  0.00     0.018 A 
BRANCH  26  31
HETATM   31  C   UNL     1       6.314  34.329  62.642  1.00  0.00     0.081 C 
HETATM   32  C   UNL     1       5.801  33.717  63.946  1.00  0.00     0.032 C 
HETATM   33  C   UNL     1       5.527  35.574  62.235  1.00  0.00     0.032 C 
ENDBRANCH  26  31
ENDBRANCH  19  22
ENDBRANCH   1  18
TORSDOF 3
ENDMDL
MODEL 3
REMARK VINA RESULT:     -10.3      1.641      2.046
REMARK  3 active torsions:
REMARK  status: ('A' for Active; 'I' for Inactive)
REMARK    1  A    between atoms: C_2  and  N_3 
REMARK    2  A    between atoms: C_6  and  C_7 
REMARK       I    between atoms: C_7  and  N_8 
REMARK    3  A    between atoms: N_8  and  C_9 
ROOT
HETATM    1  C   UNL     1       5.591  28.803  55.698  1.00  0.00     0.036 A 
HETATM    2  C   UNL     1       6.179  29.463  56.778  1.00  0.00     0.049 A 
HETATM    3  C   UNL     1       5.614  30.640  57.322  1.00  0.00     0.061 A 
HETATM    4  C   UNL     1       4.445  31.168  56.758  1.00  0.00     0.050 A 
HETATM    5  N   UNL     1       3.742  32.301  57.200  1.00  0.00    -0.324 N 
HETATM    6  C   UNL     1       3.634  32.801  58.469  1.00  0.00     0.245 C 
HETATM    7  O   UNL     1       2.827  33.713  58.662  1.00  0.00    -0.271 OA
HETATM    8  C   UNL     1       4.343  32.066  59.601  1.00  0.00     0.180 C 
HETATM    9  N   UNL     1       5.778  32.011  59.374  1.00  0.00    -0.334 N 
HETATM   10  C   UNL     1       6.416  31.302  58.385  1.00  0.00     0.256 C 
HETATM   11  O   UNL     1       7.640  31.191  58.359  1.00  0.00    -0.267 OA
HETATM   12  C   UNL     1       4.199  32.797  60.942  1.00  0.00     0.037 C 
HETATM   13  C   UNL     1       5.510  32.492  61.653  1.00  0.00     0.022 C 
HETATM   14  C   UNL     1       6.516  32.527  60.514  1.00  0.00     0.127 C 
HETATM   15  C   UNL     1       3.897  30.537  55.631  1.00  0.00     0.033 A 
HETATM   16  C   UNL     1       4.450  29.359  55.121  1.00  0.00     0.032 A 
HETATM   17  H   UNL     1       3.067  32.723  56.573  1.00  0.00     0.169 HD
ENDROOT
BRANCH   1  18
HETATM   18  N   UNL     1       6.075  27.604  55.135  1.00  0.00    -0.323 N 
HETATM   19  C   UNL     1       7.230  27.423  54.397  1.00  0.00     0.257 C 
HETATM   20  O   UNL     1       8.069  28.279  54.141  1.00  0.00    -0.267 OA
HETATM   21  H   UNL     1       5.535  26.772  55.335  1.00  0.00     0.169 HD
BRANCH  19  22
HETATM   22  C   UNL     1       7.494  26.030  53.945  1.00  0.00     0.044 A 
HETATM   23  C   UNL     1       7.751  24.958  54.839  1.00  0.00     0.008 A 
HETATM   24  C   UNL     1       8.039  23.690  54.302  1.00  0.00     0.045 A 
HETATM   25  C   UNL     1       7.759  24.807  56.257  1.00  0.00     0.032 A 
HETATM   26  N   UNL     1       8.286  22.837  55.367  1.00  0.00    -0.352 N 
HETATM   27  C   UNL     1       8.033  23.462  52.915  1.00  0.00     0.030 A 
HETATM   28  C   UNL     1       8.111  23.513  56.550  1.00  0.00     0.092 A 
HETATM   29  C   UNL     1       7.737  24.521  52.056  1.00  0.00     0.003 A 
HETATM   30  C   UNL     1       7.473  25.788  52.560  1.00  0.00     0.018 A 
BRANCH  26  31
HETATM   31  C   UNL     1       8.653  21.419  55.313  1.00  0.00     0.081 C 
HETATM   32  C   UNL     1       7.785  20.612  54.347  1.00  0.00     0.032 C 
HETATM   33  C   UNL     1       8.720  20.785  56.702  1.00  0.00     0.032 C 
ENDBRANCH  26  31
ENDBRANCH  19  22
ENDBRANCH   1  18
TORSDOF 3
ENDMDL
MODEL 4
REMARK VINA RESULT:     -10.2      2.393     10.021
REMARK  3 active torsions:
REMARK  status: ('A' for Active; 'I' for Inactive)
REMARK    1  A    between atoms: C_2  and  N_3 
REMARK    2  A    between atoms: C_6  and  C_7 
REMARK       I    between atoms: C_7  and  N_8 
REMARK    3  A    between atoms: N_8  and  C_9 
ROOT
HETATM    1  C   UNL     1       7.555  27.853  57.585  1.00  0.00     0.036 A 
HETATM    2  C   UNL     1       7.262  28.046  56.235  1.00  0.00     0.049 A 
HETATM    3  C   UNL     1       7.273  26.971  55.315  1.00  0.00     0.061 A 
HETATM    4  C   UNL     1       7.600  25.684  55.762  1.00  0.00     0.050 A 
HETATM    5  N   UNL     1       7.621  24.511  54.989  1.00  0.00    -0.324 N 
HETATM    6  C   UNL     1       6.862  24.191  53.897  1.00  0.00     0.245 C 
HETATM    7  O   UNL     1       6.925  23.036  53.470  1.00  0.00    -0.271 OA
HETATM    8  C   UNL     1       5.829  25.202  53.410  1.00  0.00     0.180 C 
HETATM    9  N   UNL     1       6.458  26.458  53.037  1.00  0.00    -0.334 N 
HETATM   10  C   UNL     1       7.067  27.346  53.891  1.00  0.00     0.256 C 
HETATM   11  O   UNL     1       7.439  28.454  53.511  1.00  0.00    -0.267 OA
HETATM   12  C   UNL     1       5.125  24.735  52.130  1.00  0.00     0.037 C 
HETATM   13  C   UNL     1       4.851  26.034  51.385  1.00  0.00     0.022 C 
HETATM   14  C   UNL     1       6.093  26.855  51.688  1.00  0.00     0.127 C 
HETATM   15  C   UNL     1       7.958  25.509  57.108  1.00  0.00     0.033 A 
HETATM   16  C   UNL     1       7.917  26.575  58.011  1.00  0.00     0.032 A 
HETATM   17  H   UNL     1       8.106  23.701  55.357  1.00  0.00     0.169 HD
ENDROOT
BRANCH   1  18
HETATM   18  N   UNL     1       7.520  28.869  58.563  1.00  0.00    -0.323 N 
HETATM   19  C   UNL     1       8.420  29.903  58.740  1.00  0.00     0.257 C 
HETATM   20  O   UNL     1       9.394  30.145  58.037  1.00  0.00    -0.267 OA
HETATM   21  H   UNL     1       6.716  28.864  59.177  1.00  0.00     0.169 HD
BRANCH  19  22
HETATM   22  C   UNL     1       8.113  30.841  59.854  1.00  0.00     0.044 A 
HETATM   23  C   UNL     1       6.971  31.684  59.867  1.00  0.00     0.008 A 
HETATM   24  C   UNL     1       6.803  32.570  60.947  1.00  0.00     0.045 A 
HETATM   25  C   UNL     1       5.836  31.857  59.022  1.00  0.00     0.032 A 
HETATM   26  N   UNL     1       5.649  33.298  60.708  1.00  0.00    -0.352 N 
HETATM   27  C   UNL     1       7.714  32.603  62.018  1.00  0.00     0.030 A 
HETATM   28  C   UNL     1       5.061  32.862  59.545  1.00  0.00     0.092 A 
HETATM   29  C   UNL     1       8.808  31.736  62.003  1.00  0.00     0.003 A 
HETATM   30  C   UNL     1       9.008  30.868  60.938  1.00  0.00     0.018 A 
BRANCH  26  31
HETATM   31  C   UNL     1       5.071  34.361  61.535  1.00  0.00     0.081 C 
HETATM   32  C   UNL     1       4.220  33.827  62.688  1.00  0.00     0.032 C 
HETATM   33  C   UNL     1       4.331  35.407  60.703  1.00  0.00     0.032 C 
ENDBRANCH  26  31
ENDBRANCH  19  22
ENDBRANCH   1  18
TORSDOF 3
ENDMDL
MODEL 5
REMARK VINA RESULT:     -10.0      5.613      9.596
REMARK  3 active torsions:
REMARK  status: ('A' for Active; 'I' for Inactive)
REMARK    1  A    between atoms: C_2  and  N_3 
REMARK    2  A    between atoms: C_6  and  C_7 
REMARK       I    between atoms: C_7  and  N_8 
REMARK    3  A    between atoms: N_8  and  C_9 
ROOT
HETATM    1  C   UNL     1       5.498  25.600  52.218  1.00  0.00     0.036 A 
HETATM    2  C   UNL     1       6.302  24.476  52.404  1.00  0.00     0.049 A 
HETATM    3  C   UNL     1       7.073  24.305  53.578  1.00  0.00     0.061 A 
HETATM    4  C   UNL     1       7.044  25.291  54.572  1.00  0.00     0.050 A 
HETATM    5  N   UNL     1       7.718  25.257  55.803  1.00  0.00    -0.324 N 
HETATM    6  C   UNL     1       8.058  24.172  56.563  1.00  0.00     0.245 C 
HETATM    7  O   UNL     1       8.500  24.378  57.696  1.00  0.00    -0.271 OA
HETATM    8  C   UNL     1       7.671  22.785  56.062  1.00  0.00     0.180 C 
HETATM    9  N   UNL     1       8.278  22.504  54.771  1.00  0.00    -0.334 N 
HETATM   10  C   UNL     1       7.977  23.124  53.582  1.00  0.00     0.256 C 
HETATM   11  O   UNL     1       8.430  22.721  52.512  1.00  0.00    -0.267 OA
HETATM   12  C   UNL     1       8.198  21.673  56.978  1.00  0.00     0.037 C 
HETATM   13  C   UNL     1       8.485  20.529  56.015  1.00  0.00     0.022 C 
HETATM   14  C   UNL     1       9.019  21.255  54.792  1.00  0.00     0.127 C 
HETATM   15  C   UNL     1       6.285  26.450  54.348  1.00  0.00     0.033 A 
HETATM   16  C   UNL     1       5.506  26.594  53.196  1.00  0.00     0.032 A 
HETATM   17  H   UNL     1       7.820  26.122  56.321  1.00  0.00     0.169 HD
ENDROOT
BRANCH   1  18
HETATM   18  N   UNL     1       4.671  25.814  51.094  1.00  0.00    -0.323 N 
HETATM   19  C   UNL     1       4.768  26.823  50.154  1.00  0.00     0.257 C 
HETATM   20  O   UNL     1       5.630  27.692  50.109  1.00  0.00    -0.267 OA
HETATM   21  H   UNL     1       3.953  25.120  50.936  1.00  0.00     0.169 HD
BRANCH  19  22
HETATM   22  C   UNL     1       3.758  26.783  49.061  1.00  0.00     0.044 A 
HETATM   23  C   UNL     1       2.843  27.838  48.809  1.00  0.00     0.008 A 
HETATM   24  C   UNL     1       1.896  27.674  47.782  1.00  0.00     0.045 A 
HETATM   25  C   UNL     1       2.638  29.143  49.344  1.00  0.00     0.032 A 
HETATM   26  N   UNL     1       1.107  28.813  47.763  1.00  0.00    -0.352 N 
HETATM   27  C   UNL     1       1.871  26.516  46.985  1.00  0.00     0.030 A 
HETATM   28  C   UNL     1       1.560  29.705  48.705  1.00  0.00     0.092 A 
HETATM   29  C   UNL     1       2.807  25.509  47.224  1.00  0.00     0.003 A 
HETATM   30  C   UNL     1       3.736  25.636  48.247  1.00  0.00     0.018 A 
BRANCH  26  31
HETATM   31  C   UNL     1      -0.030  29.102  46.884  1.00  0.00     0.081 C 
HETATM   32  C   UNL     1      -0.657  27.844  46.282  1.00  0.00     0.032 C 
HETATM   33  C   UNL     1       0.307  30.148  45.823  1.00  0.00     0.032 C 
ENDBRANCH  26  31
ENDBRANCH  19  22
ENDBRANCH   1  18
TORSDOF 3
ENDMDL
MODEL 6
REMARK VINA RESULT:      -9.9      4.901      7.880
REMARK  3 active torsions:
REMARK  status: ('A' for Active; 'I' for Inactive)
REMARK    1  A    between atoms: C_2  and  N_3 
REMARK    2  A    between atoms: C_6  and  C_7 
REMARK       I    between atoms: C_7  and  N_8 
REMARK    3  A    between atoms: N_8  and  C_9 
ROOT
HETATM    1  C   UNL     1       4.792  27.666  53.162  1.00  0.00     0.036 A 
HETATM    2  C   UNL     1       4.610  27.633  51.779  1.00  0.00     0.049 A 
HETATM    3  C   UNL     1       3.828  28.607  51.114  1.00  0.00     0.061 A 
HETATM    4  C   UNL     1       3.208  29.619  51.857  1.00  0.00     0.050 A 
HETATM    5  N   UNL     1       2.434  30.674  51.348  1.00  0.00    -0.324 N 
HETATM    6  C   UNL     1       2.533  31.303  50.137  1.00  0.00     0.245 C 
HETATM    7  O   UNL     1       1.859  32.321  49.960  1.00  0.00    -0.271 OA
HETATM    8  C   UNL     1       3.619  30.847  49.170  1.00  0.00     0.180 C 
HETATM    9  N   UNL     1       3.455  29.446  48.817  1.00  0.00    -0.334 N 
HETATM   10  C   UNL     1       3.619  28.373  49.660  1.00  0.00     0.256 C 
HETATM   11  O   UNL     1       3.607  27.217  49.241  1.00  0.00    -0.267 OA
HETATM   12  C   UNL     1       3.545  31.586  47.828  1.00  0.00     0.037 C 
HETATM   13  C   UNL     1       4.014  30.544  46.823  1.00  0.00     0.022 C 
HETATM   14  C   UNL     1       3.415  29.262  47.377  1.00  0.00     0.127 C 
HETATM   15  C   UNL     1       3.340  29.606  53.254  1.00  0.00     0.033 A 
HETATM   16  C   UNL     1       4.139  28.655  53.896  1.00  0.00     0.032 A 
HETATM   17  H   UNL     1       1.841  31.189  51.989  1.00  0.00     0.169 HD
ENDROOT
BRANCH   1  18
HETATM   18  N   UNL     1       5.593  26.756  53.884  1.00  0.00    -0.323 N 
HETATM   19  C   UNL     1       6.942  26.857  54.167  1.00  0.00     0.257 C 
HETATM   20  O   UNL     1       7.676  27.793  53.874  1.00  0.00    -0.267 OA
HETATM   21  H   UNL     1       5.110  25.959  54.279  1.00  0.00     0.169 HD
BRANCH  19  22
HETATM   22  C   UNL     1       7.516  25.743  54.971  1.00  0.00     0.044 A 
HETATM   23  C   UNL     1       7.716  24.436  54.456  1.00  0.00     0.008 A 
HETATM   24  C   UNL     1       8.219  23.444  55.317  1.00  0.00     0.045 A 
HETATM   25  C   UNL     1       7.563  23.822  53.178  1.00  0.00     0.032 A 
HETATM   26  N   UNL     1       8.286  22.264  54.594  1.00  0.00    -0.352 N 
HETATM   27  C   UNL     1       8.561  23.735  56.650  1.00  0.00     0.030 A 
HETATM   28  C   UNL     1       7.894  22.495  53.297  1.00  0.00     0.092 A 
HETATM   29  C   UNL     1       8.395  25.037  57.123  1.00  0.00     0.003 A 
HETATM   30  C   UNL     1       7.878  26.028  56.300  1.00  0.00     0.018 A 
BRANCH  26  31
HETATM   31  C   UNL     1       8.723  20.947  55.065  1.00  0.00     0.081 C 
HETATM   32  C   UNL     1       8.948  19.949  53.929  1.00  0.00     0.032 C 
HETATM   33  C   UNL     1       7.812  20.389  56.157  1.00  0.00     0.032 C 
ENDBRANCH  26  31
ENDBRANCH  19  22
ENDBRANCH   1  18
TORSDOF 3
ENDMDL
MODEL 7
REMARK VINA RESULT:      -9.8      2.205      9.982
REMARK  3 active torsions:
REMARK  status: ('A' for Active; 'I' for Inactive)
REMARK    1  A    between atoms: C_2  and  N_3 
REMARK    2  A    between atoms: C_6  and  C_7 
REMARK       I    between atoms: C_7  and  N_8 
REMARK    3  A    between atoms: N_8  and  C_9 
ROOT
HETATM    1  C   UNL     1       4.702  29.576  56.971  1.00  0.00     0.036 A 
HETATM    2  C   UNL     1       5.250  28.305  57.146  1.00  0.00     0.049 A 
HETATM    3  C   UNL     1       5.248  27.350  56.102  1.00  0.00     0.061 A 
HETATM    4  C   UNL     1       4.670  27.677  54.868  1.00  0.00     0.050 A 
HETATM    5  N   UNL     1       4.619  26.861  53.727  1.00  0.00    -0.324 N 
HETATM    6  C   UNL     1       5.504  25.900  53.320  1.00  0.00     0.245 C 
HETATM    7  O   UNL     1       5.354  25.418  52.195  1.00  0.00    -0.271 OA
HETATM    8  C   UNL     1       6.738  25.642  54.178  1.00  0.00     0.180 C 
HETATM    9  N   UNL     1       6.368  25.223  55.519  1.00  0.00    -0.334 N 
HETATM   10  C   UNL     1       5.751  25.999  56.470  1.00  0.00     0.256 C 
HETATM   11  O   UNL     1       5.611  25.611  57.628  1.00  0.00    -0.267 OA
HETATM   12  C   UNL     1       7.583  24.480  53.638  1.00  0.00     0.037 C 
HETATM   13  C   UNL     1       8.163  23.851  54.896  1.00  0.00     0.022 C 
HETATM   14  C   UNL     1       7.016  23.974  55.884  1.00  0.00     0.127 C 
HETATM   15  C   UNL     1       4.061  28.933  54.722  1.00  0.00     0.033 A 
HETATM   16  C   UNL     1       4.095  29.877  55.753  1.00  0.00     0.032 A 
HETATM   17  H   UNL     1       3.967  27.104  52.989  1.00  0.00     0.169 HD
ENDROOT
BRANCH   1  18
HETATM   18  N   UNL     1       4.708  30.590  57.952  1.00  0.00    -0.323 N 
HETATM   19  C   UNL     1       5.789  31.328  58.397  1.00  0.00     0.257 C 
HETATM   20  O   UNL     1       6.938  31.259  57.976  1.00  0.00    -0.267 OA
HETATM   21  H   UNL     1       3.807  30.835  58.340  1.00  0.00     0.169 HD
BRANCH  19  22
HETATM   22  C   UNL     1       5.486  32.350  59.436  1.00  0.00     0.044 A 
HETATM   23  C   UNL     1       6.071  32.341  60.729  1.00  0.00     0.008 A 
HETATM   24  C   UNL     1       5.675  33.326  61.652  1.00  0.00     0.045 A 
HETATM   25  C   UNL     1       7.064  31.552  61.381  1.00  0.00     0.032 A 
HETATM   26  N   UNL     1       6.354  33.079  62.835  1.00  0.00    -0.352 N 
HETATM   27  C   UNL     1       4.755  34.330  61.304  1.00  0.00     0.030 A 
HETATM   28  C   UNL     1       7.198  32.008  62.668  1.00  0.00     0.092 A 
HETATM   29  C   UNL     1       4.223  34.344  60.014  1.00  0.00     0.003 A 
HETATM   30  C   UNL     1       4.579  33.369  59.092  1.00  0.00     0.018 A 
BRANCH  26  31
HETATM   31  C   UNL     1       6.257  33.820  64.096  1.00  0.00     0.081 C 
HETATM   32  C   UNL     1       7.516  33.707  64.956  1.00  0.00     0.032 C 
HETATM   33  C   UNL     1       4.988  33.475  64.875  1.00  0.00     0.032 C 
ENDBRANCH  26  31
ENDBRANCH  19  22
ENDBRANCH   1  18
TORSDOF 3
ENDMDL
MODEL 8
REMARK VINA RESULT:      -9.6      4.111      6.267
REMARK  3 active torsions:
REMARK  status: ('A' for Active; 'I' for Inactive)
REMARK    1  A    between atoms: C_2  and  N_3 
REMARK    2  A    between atoms: C_6  and  C_7 
REMARK       I    between atoms: C_7  and  N_8 
REMARK    3  A    between atoms: N_8  and  C_9 
ROOT
HETATM    1  C   UNL     1       4.796  28.365  55.032  1.00  0.00     0.036 A 
HETATM    2  C   UNL     1       4.392  28.723  53.746  1.00  0.00     0.049 A 
HETATM    3  C   UNL     1       3.596  29.870  53.515  1.00  0.00     0.061 A 
HETATM    4  C   UNL     1       3.189  30.658  54.599  1.00  0.00     0.050 A 
HETATM    5  N   UNL     1       2.433  31.840  54.536  1.00  0.00    -0.324 N 
HETATM    6  C   UNL     1       2.388  32.776  53.540  1.00  0.00     0.245 C 
HETATM    7  O   UNL     1       1.782  33.826  53.763  1.00  0.00    -0.271 OA
HETATM    8  C   UNL     1       3.263  32.567  52.309  1.00  0.00     0.180 C 
HETATM    9  N   UNL     1       2.929  31.327  51.630  1.00  0.00    -0.334 N 
HETATM   10  C   UNL     1       3.137  30.057  52.112  1.00  0.00     0.256 C 
HETATM   11  O   UNL     1       2.962  29.063  51.409  1.00  0.00    -0.267 OA
HETATM   12  C   UNL     1       3.035  33.652  51.248  1.00  0.00     0.037 C 
HETATM   13  C   UNL     1       3.249  32.913  49.935  1.00  0.00     0.022 C 
HETATM   14  C   UNL     1       2.642  31.550  50.223  1.00  0.00     0.127 C 
HETATM   15  C   UNL     1       3.544  30.253  55.895  1.00  0.00     0.033 A 
HETATM   16  C   UNL     1       4.353  29.134  56.107  1.00  0.00     0.032 A 
HETATM   17  H   UNL     1       1.996  32.178  55.386  1.00  0.00     0.169 HD
ENDROOT
BRANCH   1  18
HETATM   18  N   UNL     1       5.624  27.262  55.331  1.00  0.00    -0.323 N 
HETATM   19  C   UNL     1       6.992  27.161  55.158  1.00  0.00     0.257 C 
HETATM   20  O   UNL     1       7.739  28.044  54.752  1.00  0.00    -0.267 OA
HETATM   21  H   UNL     1       5.167  26.471  55.765  1.00  0.00     0.169 HD
BRANCH  19  22
HETATM   22  C   UNL     1       7.601  25.871  55.584  1.00  0.00     0.044 A 
HETATM   23  C   UNL     1       7.672  24.730  54.743  1.00  0.00     0.008 A 
HETATM   24  C   UNL     1       8.223  23.545  55.263  1.00  0.00     0.045 A 
HETATM   25  C   UNL     1       7.337  24.457  53.384  1.00  0.00     0.032 A 
HETATM   26  N   UNL     1       8.144  22.582  54.270  1.00  0.00    -0.352 N 
HETATM   27  C   UNL     1       8.736  23.488  56.571  1.00  0.00     0.030 A 
HETATM   28  C   UNL     1       7.612  23.136  53.131  1.00  0.00     0.092 A 
HETATM   29  C   UNL     1       8.693  24.633  57.366  1.00  0.00     0.003 A 
HETATM   30  C   UNL     1       8.133  25.808  56.884  1.00  0.00     0.018 A 
BRANCH  26  31
HETATM   31  C   UNL     1       8.567  21.181  54.344  1.00  0.00     0.081 C 
HETATM   32  C   UNL     1       8.507  20.465  52.994  1.00  0.00     0.032 C 
HETATM   33  C   UNL     1       7.836  20.411  55.443  1.00  0.00     0.032 C 
ENDBRANCH  26  31
ENDBRANCH  19  22
ENDBRANCH   1  18
TORSDOF 3
ENDMDL
MODEL 9
REMARK VINA RESULT:      -9.5      2.162      3.133
REMARK  3 active torsions:
REMARK  status: ('A' for Active; 'I' for Inactive)
REMARK    1  A    between atoms: C_2  and  N_3 
REMARK    2  A    between atoms: C_6  and  C_7 
REMARK       I    between atoms: C_7  and  N_8 
REMARK    3  A    between atoms: N_8  and  C_9 
ROOT
HETATM    1  C   UNL     1       5.776  28.941  56.556  1.00  0.00     0.036 A 
HETATM    2  C   UNL     1       6.017  29.949  57.490  1.00  0.00     0.049 A 
HETATM    3  C   UNL     1       5.320  31.179  57.446  1.00  0.00     0.061 A 
HETATM    4  C   UNL     1       4.377  31.402  56.434  1.00  0.00     0.050 A 
HETATM    5  N   UNL     1       3.580  32.547  56.273  1.00  0.00    -0.324 N 
HETATM    6  C   UNL     1       3.099  33.398  57.229  1.00  0.00     0.245 C 
HETATM    7  O   UNL     1       2.276  34.249  56.883  1.00  0.00    -0.271 OA
HETATM    8  C   UNL     1       3.432  33.111  58.689  1.00  0.00     0.180 C 
HETATM    9  N   UNL     1       4.868  33.119  58.912  1.00  0.00    -0.334 N 
HETATM   10  C   UNL     1       5.770  32.204  58.426  1.00  0.00     0.256 C 
HETATM   11  O   UNL     1       6.945  32.201  58.787  1.00  0.00    -0.267 OA
HETATM   12  C   UNL     1       2.897  34.199  59.628  1.00  0.00     0.037 C 
HETATM   13  C   UNL     1       3.933  34.246  60.742  1.00  0.00     0.022 C 
HETATM   14  C   UNL     1       5.234  34.023  59.989  1.00  0.00     0.127 C 
HETATM   15  C   UNL     1       4.189  30.411  55.459  1.00  0.00     0.033 A 
HETATM   16  C   UNL     1       4.864  29.189  55.531  1.00  0.00     0.032 A 
HETATM   17  H   UNL     1       3.126  32.696  55.378  1.00  0.00     0.169 HD
ENDROOT
BRANCH   1  18
HETATM   18  N   UNL     1       6.400  27.676  56.566  1.00  0.00    -0.323 N 
HETATM   19  C   UNL     1       7.320  27.180  55.661  1.00  0.00     0.257 C 
HETATM   20  O   UNL     1       7.793  27.782  54.703  1.00  0.00    -0.267 OA
HETATM   21  H   UNL     1       6.183  27.082  57.355  1.00  0.00     0.169 HD
BRANCH  19  22
HETATM   22  C   UNL     1       7.824  25.808  55.940  1.00  0.00     0.044 A 
HETATM   23  C   UNL     1       7.765  24.751  54.995  1.00  0.00     0.008 A 
HETATM   24  C   UNL     1       8.224  23.478  55.381  1.00  0.00     0.045 A 
HETATM   25  C   UNL     1       7.366  24.639  53.631  1.00  0.00     0.032 A 
HETATM   26  N   UNL     1       8.028  22.625  54.307  1.00  0.00    -0.352 N 
HETATM   27  C   UNL     1       8.769  23.251  56.658  1.00  0.00     0.030 A 
HETATM   28  C   UNL     1       7.514  23.330  53.246  1.00  0.00     0.092 A 
HETATM   29  C   UNL     1       8.854  24.315  57.557  1.00  0.00     0.003 A 
HETATM   30  C   UNL     1       8.387  25.575  57.208  1.00  0.00     0.018 A 
BRANCH  26  31
HETATM   31  C   UNL     1       8.326  21.192  54.234  1.00  0.00     0.081 C 
HETATM   32  C   UNL     1       7.980  20.577  52.877  1.00  0.00     0.032 C 
HETATM   33  C   UNL     1       7.716  20.413  55.398  1.00  0.00     0.032 C 
ENDBRANCH  26  31
ENDBRANCH  19  22
ENDBRANCH   1  18
TORSDOF 3
ENDMDL
MODEL 10
REMARK VINA RESULT:      -9.4      2.671      4.214
REMARK  3 active torsions:
REMARK  status: ('A' for Active; 'I' for Inactive)
REMARK    1  A    between atoms: C_2  and  N_3 
REMARK    2  A    between atoms: C_6  and  C_7 
REMARK       I    between atoms: C_7  and  N_8 
REMARK    3  A    between atoms: N_8  and  C_9 
ROOT
HETATM    1  C   UNL     1       6.125  29.844  56.213  1.00  0.00     0.036 A 
HETATM    2  C   UNL     1       7.144  29.812  57.166  1.00  0.00     0.049 A 
HETATM    3  C   UNL     1       7.201  30.756  58.218  1.00  0.00     0.061 A 
HETATM    4  C   UNL     1       6.224  31.757  58.301  1.00  0.00     0.050 A 
HETATM    5  N   UNL     1       6.119  32.740  59.298  1.00  0.00    -0.324 N 
HETATM    6  C   UNL     1       6.493  32.673  60.612  1.00  0.00     0.245 C 
HETATM    7  O   UNL     1       6.155  33.596  61.356  1.00  0.00    -0.271 OA
HETATM    8  C   UNL     1       7.106  31.374  61.125  1.00  0.00     0.180 C 
HETATM    9  N   UNL     1       8.324  31.047  60.403  1.00  0.00    -0.334 N 
HETATM   10  C   UNL     1       8.409  30.678  59.082  1.00  0.00     0.256 C 
HETATM   11  O   UNL     1       9.462  30.273  58.592  1.00  0.00    -0.267 OA
HETATM   12  C   UNL     1       7.552  31.486  62.589  1.00  0.00     0.037 C 
HETATM   13  C   UNL     1       8.775  30.582  62.655  1.00  0.00     0.022 C 
HETATM   14  C   UNL     1       9.437  30.826  61.310  1.00  0.00     0.127 C 
HETATM   15  C   UNL     1       5.242  31.823  57.302  1.00  0.00     0.033 A 
HETATM   16  C   UNL     1       5.181  30.868  56.283  1.00  0.00     0.032 A 
HETATM   17  H   UNL     1       5.531  33.547  59.118  1.00  0.00     0.169 HD
ENDROOT
BRANCH   1  18
HETATM   18  N   UNL     1       5.982  28.911  55.165  1.00  0.00    -0.323 N 
HETATM   19  C   UNL     1       5.211  27.763  55.155  1.00  0.00     0.257 C 
HETATM   20  O   UNL     1       4.471  27.378  56.053  1.00  0.00    -0.267 OA
HETATM   21  H   UNL     1       6.465  29.134  54.305  1.00  0.00     0.169 HD
BRANCH  19  22
HETATM   22  C   UNL     1       5.243  26.977  53.892  1.00  0.00     0.044 A 
HETATM   23  C   UNL     1       5.133  27.567  52.606  1.00  0.00     0.008 A 
HETATM   24  C   UNL     1       5.124  26.725  51.478  1.00  0.00     0.045 A 
HETATM   25  C   UNL     1       5.060  28.903  52.112  1.00  0.00     0.032 A 
HETATM   26  N   UNL     1       4.971  27.532  50.362  1.00  0.00    -0.352 N 
HETATM   27  C   UNL     1       5.263  25.332  51.603  1.00  0.00     0.030 A 
HETATM   28  C   UNL     1       4.938  28.850  50.746  1.00  0.00     0.092 A 
HETATM   29  C   UNL     1       5.411  24.777  52.875  1.00  0.00     0.003 A 
HETATM   30  C   UNL     1       5.399  25.584  54.004  1.00  0.00     0.018 A 
BRANCH  26  31
HETATM   31  C   UNL     1       4.881  27.115  48.960  1.00  0.00     0.081 C 
HETATM   32  C   UNL     1       5.266  28.223  47.979  1.00  0.00     0.032 C 
HETATM   33  C   UNL     1       3.527  26.489  48.627  1.00  0.00     0.032 C 
ENDBRANCH  26  31
ENDBRANCH  19  22
ENDBRANCH   1  18
TORSDOF 3
ENDMDL
