MODEL 1
REMARK VINA RESULT:     -10.2      0.000      0.000
REMARK  6 active torsions:
REMARK  status: ('A' for Active; 'I' for Inactive)
REMARK    1  A    between atoms: C_2  and  C_3 
REMARK    2  A    between atoms: C_3  and  N_4 
REMARK    3  A    between atoms: N_8  and  C_10 
REMARK    4  A    between atoms: C_10  and  C_11 
REMARK    5  A    between atoms: C_11  and  C_12 
REMARK    6  A    between atoms: C_20  and  N_21 
ROOT
HETATM    1  N   UNL     1       7.819  32.184  60.364  1.00  0.00    -0.064 N 
HETATM    2  H   UNL     1       7.872  33.149  60.727  1.00  0.00     0.280 HD
HETATM    3  C   UNL     1       6.694  32.159  59.339  1.00  0.00     0.263 C 
HETATM    4  C   UNL     1       6.651  30.819  58.553  1.00  0.00     0.262 C 
HETATM    5  N   UNL     1       8.014  30.429  57.968  1.00  0.00    -0.068 N 
HETATM    6  H   UNL     1       8.215  31.056  57.171  1.00  0.00     0.280 HD
HETATM    7  C   UNL     1       9.178  30.564  58.965  1.00  0.00     0.262 C 
HETATM    8  C   UNL     1       9.163  31.922  59.697  1.00  0.00     0.263 C 
ENDROOT
BRANCH   5   9
HETATM    9  C   UNL     1       8.029  29.006  57.384  1.00  0.00     0.238 C 
BRANCH   9  10
HETATM   10  C   UNL     1       7.053  28.864  56.224  1.00  0.00     0.070 C 
BRANCH  10  11
HETATM   11  C   UNL     1       6.121  27.656  56.437  1.00  0.00     0.222 C 
HETATM   12  O   UNL     1       6.939  26.498  56.469  1.00  0.00    -0.334 OA
HETATM   13  C   UNL     1       6.788  25.634  55.422  1.00  0.00     0.099 A 
HETATM   14  C   UNL     1       5.786  25.743  54.454  1.00  0.00     0.068 A 
HETATM   15  C   UNL     1       7.712  24.593  55.360  1.00  0.00     0.075 A 
HETATM   16  N   UNL     1       4.872  26.795  54.507  1.00  0.00    -0.323 N 
HETATM   17  C   UNL     1       5.700  24.809  53.420  1.00  0.00     0.035 A 
HETATM   18  C   UNL     1       4.955  27.777  55.446  1.00  0.00     0.251 C 
HETATM   19  H   UNL     1       4.120  26.863  53.829  1.00  0.00     0.169 HD
HETATM   20  O   UNL     1       4.198  28.744  55.461  1.00  0.00    -0.270 OA
HETATM   21  C   UNL     1       6.633  23.769  53.341  1.00  0.00     0.038 A 
HETATM   22  C   UNL     1       7.639  23.669  54.310  1.00  0.00     0.105 A 
BRANCH  22  23
HETATM   23  N   UNL     1       8.650  22.611  54.215  1.00  0.00    -0.116 N 
HETATM   24  O   UNL     1       9.518  22.578  55.101  1.00  0.00    -0.532 OA
HETATM   25  O   UNL     1       8.589  21.841  53.250  1.00  0.00    -0.532 OA
ENDBRANCH  22  23
ENDBRANCH  10  11
ENDBRANCH   9  10
ENDBRANCH   5   9
BRANCH   1  26
HETATM   26  C   UNL     1       7.504  31.346  61.602  1.00  0.00     0.273 C 
BRANCH  26  27
HETATM   27  C   UNL     1       7.050  32.147  62.788  1.00  0.00    -0.030 A 
HETATM   28  C   UNL     1       8.000  32.789  63.619  1.00  0.00     0.012 A 
HETATM   29  C   UNL     1       7.595  33.558  64.716  1.00  0.00     0.040 A 
HETATM   30  C   UNL     1       6.246  33.661  64.965  1.00  0.00     0.105 A 
HETATM   31  C   UNL     1       5.317  33.034  64.172  1.00  0.00     0.105 A 
HETATM   32  O   UNL     1       5.675  34.356  65.981  1.00  0.00    -0.323 OA
HETATM   33  C   UNL     1       5.681  32.271  63.082  1.00  0.00     0.048 A 
HETATM   34  O   UNL     1       4.045  33.256  64.590  1.00  0.00    -0.323 OA
HETATM   35  C   UNL     1       4.278  34.050  65.778  1.00  0.00     0.352 A 
ENDBRANCH  26  27
ENDBRANCH   1  26
TORSDOF 6
ENDMDL
MODEL 2
REMARK VINA RESULT:     -10.1      2.828     10.867
REMARK  6 active torsions:
REMARK  status: ('A' for Active; 'I' for Inactive)
REMARK    1  A    between atoms: C_2  and  C_3 
REMARK    2  A    between atoms: C_3  and  N_4 
REMARK    3  A    between atoms: N_8  and  C_10 
REMARK    4  A    between atoms: C_10  and  C_11 
REMARK    5  A    between atoms: C_11  and  C_12 
REMARK    6  A    between atoms: C_20  and  N_21 
ROOT
HETATM    1  N   UNL     1       5.808  25.448  54.572  1.00  0.00    -0.064 N 
HETATM    2  H   UNL     1       5.336  24.643  54.128  1.00  0.00     0.280 HD
HETATM    3  C   UNL     1       5.314  26.698  53.859  1.00  0.00     0.263 C 
HETATM    4  C   UNL     1       5.776  27.998  54.572  1.00  0.00     0.262 C 
HETATM    5  N   UNL     1       5.468  27.994  56.074  1.00  0.00    -0.068 N 
HETATM    6  H   UNL     1       4.448  28.120  56.194  1.00  0.00     0.280 HD
HETATM    7  C   UNL     1       5.857  26.685  56.784  1.00  0.00     0.262 C 
HETATM    8  C   UNL     1       5.354  25.440  56.025  1.00  0.00     0.263 C 
ENDROOT
BRANCH   5   9
HETATM    9  C   UNL     1       6.116  29.171  56.822  1.00  0.00     0.238 C 
BRANCH   9  10
HETATM   10  C   UNL     1       7.490  29.507  56.258  1.00  0.00     0.070 C 
BRANCH  10  11
HETATM   11  C   UNL     1       8.600  29.129  57.259  1.00  0.00     0.222 C 
HETATM   12  O   UNL     1       8.057  29.276  58.560  1.00  0.00    -0.334 OA
HETATM   13  C   UNL     1       8.586  30.284  59.314  1.00  0.00     0.099 A 
HETATM   14  C   UNL     1       9.709  31.031  58.948  1.00  0.00     0.068 A 
HETATM   15  C   UNL     1       7.935  30.543  60.519  1.00  0.00     0.075 A 
HETATM   16  N   UNL     1      10.350  30.783  57.735  1.00  0.00    -0.323 N 
HETATM   17  C   UNL     1      10.190  32.039  59.785  1.00  0.00     0.035 A 
HETATM   18  C   UNL     1       9.881  29.865  56.845  1.00  0.00     0.251 C 
HETATM   19  H   UNL     1      11.187  31.296  57.475  1.00  0.00     0.169 HD
HETATM   20  O   UNL     1      10.397  29.687  55.745  1.00  0.00    -0.270 OA
HETATM   21  C   UNL     1       9.532  32.318  60.989  1.00  0.00     0.038 A 
HETATM   22  C   UNL     1       8.404  31.570  61.348  1.00  0.00     0.105 A 
BRANCH  22  23
HETATM   23  N   UNL     1       7.679  31.879  62.585  1.00  0.00    -0.116 N 
HETATM   24  O   UNL     1       8.266  32.581  63.423  1.00  0.00    -0.532 OA
HETATM   25  O   UNL     1       6.548  31.401  62.724  1.00  0.00    -0.532 OA
ENDBRANCH  22  23
ENDBRANCH  10  11
ENDBRANCH   9  10
ENDBRANCH   5   9
BRANCH   1  26
HETATM   26  C   UNL     1       7.292  25.179  54.326  1.00  0.00     0.273 C 
BRANCH  26  27
HETATM   27  C   UNL     1       7.657  23.723  54.291  1.00  0.00    -0.030 A 
HETATM   28  C   UNL     1       7.558  22.994  53.080  1.00  0.00     0.012 A 
HETATM   29  C   UNL     1       7.915  21.642  53.022  1.00  0.00     0.040 A 
HETATM   30  C   UNL     1       8.355  21.044  54.180  1.00  0.00     0.105 A 
HETATM   31  C   UNL     1       8.444  21.738  55.361  1.00  0.00     0.105 A 
HETATM   32  O   UNL     1       8.736  19.748  54.310  1.00  0.00    -0.323 OA
HETATM   33  C   UNL     1       8.104  23.072  55.454  1.00  0.00     0.048 A 
HETATM   34  O   UNL     1       8.893  20.966  56.383  1.00  0.00    -0.323 OA
HETATM   35  C   UNL     1       9.022  19.683  55.725  1.00  0.00     0.352 A 
ENDBRANCH  26  27
ENDBRANCH   1  26
TORSDOF 6
ENDMDL
MODEL 3
REMARK VINA RESULT:      -9.9      2.157      3.551
REMARK  6 active torsions:
REMARK  status: ('A' for Active; 'I' for Inactive)
REMARK    1  A    between atoms: C_2  and  C_3 
REMARK    2  A    between atoms: C_3  and  N_4 
REMARK    3  A    between atoms: N_8  and  C_10 
REMARK    4  A    between atoms: C_10  and  C_11 
REMARK    5  A    between atoms: C_11  and  C_12 
REMARK    6  A    between atoms: C_20  and  N_21 
ROOT
HETATM    1  N   UNL     1       8.003  28.939  57.974  1.00  0.00    -0.064 N 
HETATM    2  H   UNL     1       8.338  28.673  58.914  1.00  0.00     0.280 HD
HETATM    3  C   UNL     1       9.157  28.705  57.010  1.00  0.00     0.263 C 
HETATM    4  C   UNL     1       8.719  28.856  55.527  1.00  0.00     0.262 C 
HETATM    5  N   UNL     1       7.469  28.033  55.190  1.00  0.00    -0.068 N 
HETATM    6  H   UNL     1       7.738  27.035  55.158  1.00  0.00     0.280 HD
HETATM    7  C   UNL     1       6.337  28.172  56.223  1.00  0.00     0.262 C 
HETATM    8  C   UNL     1       6.845  27.998  57.669  1.00  0.00     0.263 C 
ENDROOT
BRANCH   5   9
HETATM    9  C   UNL     1       6.903  28.348  53.795  1.00  0.00     0.238 C 
BRANCH   9  10
HETATM   10  C   UNL     1       5.389  28.192  53.753  1.00  0.00     0.070 C 
BRANCH  10  11
HETATM   11  C   UNL     1       4.994  26.856  53.094  1.00  0.00     0.222 C 
HETATM   12  O   UNL     1       5.178  25.840  54.066  1.00  0.00    -0.334 OA
HETATM   13  C   UNL     1       6.181  24.950  53.812  1.00  0.00     0.099 A 
HETATM   14  C   UNL     1       6.890  24.888  52.609  1.00  0.00     0.068 A 
HETATM   15  C   UNL     1       6.477  24.064  54.846  1.00  0.00     0.075 A 
HETATM   16  N   UNL     1       6.604  25.785  51.581  1.00  0.00    -0.323 N 
HETATM   17  C   UNL     1       7.896  23.938  52.431  1.00  0.00     0.035 A 
HETATM   18  C   UNL     1       5.687  26.782  51.726  1.00  0.00     0.251 C 
HETATM   19  H   UNL     1       7.089  25.727  50.691  1.00  0.00     0.169 HD
HETATM   20  O   UNL     1       5.476  27.620  50.853  1.00  0.00    -0.270 OA
HETATM   21  C   UNL     1       8.212  23.054  53.470  1.00  0.00     0.038 A 
HETATM   22  C   UNL     1       7.503  23.125  54.676  1.00  0.00     0.105 A 
BRANCH  22  23
HETATM   23  N   UNL     1       7.852  22.235  55.788  1.00  0.00    -0.116 N 
HETATM   24  O   UNL     1       7.631  21.024  55.634  1.00  0.00    -0.532 OA
HETATM   25  O   UNL     1       8.316  22.749  56.812  1.00  0.00    -0.532 OA
ENDBRANCH  22  23
ENDBRANCH  10  11
ENDBRANCH   9  10
ENDBRANCH   5   9
BRANCH   1  26
HETATM   26  C   UNL     1       7.650  30.419  58.120  1.00  0.00     0.273 C 
BRANCH  26  27
HETATM   27  C   UNL     1       7.827  30.960  59.509  1.00  0.00    -0.030 A 
HETATM   28  C   UNL     1       8.889  30.497  60.323  1.00  0.00     0.012 A 
HETATM   29  C   UNL     1       9.084  31.005  61.612  1.00  0.00     0.040 A 
HETATM   30  C   UNL     1       8.205  31.963  62.064  1.00  0.00     0.105 A 
HETATM   31  C   UNL     1       7.167  32.411  61.287  1.00  0.00     0.105 A 
HETATM   32  O   UNL     1       8.238  32.561  63.281  1.00  0.00    -0.323 OA
HETATM   33  C   UNL     1       6.947  31.934  60.011  1.00  0.00     0.048 A 
HETATM   34  O   UNL     1       6.415  33.350  61.918  1.00  0.00    -0.323 OA
HETATM   35  C   UNL     1       7.065  33.400  63.211  1.00  0.00     0.352 A 
ENDBRANCH  26  27
ENDBRANCH   1  26
TORSDOF 6
ENDMDL
MODEL 4
REMARK VINA RESULT:      -9.6      7.242     10.707
REMARK  6 active torsions:
REMARK  status: ('A' for Active; 'I' for Inactive)
REMARK    1  A    between atoms: C_2  and  C_3 
REMARK    2  A    between atoms: C_3  and  N_4 
REMARK    3  A    between atoms: N_8  and  C_10 
REMARK    4  A    between atoms: C_10  and  C_11 
REMARK    5  A    between atoms: C_11  and  C_12 
REMARK    6  A    between atoms: C_20  and  N_21 
ROOT
HETATM    1  N   UNL     1       7.239  26.058  55.086  1.00  0.00    -0.064 N 
HETATM    2  H   UNL     1       7.705  25.554  55.858  1.00  0.00     0.280 HD
HETATM    3  C   UNL     1       5.740  25.904  55.298  1.00  0.00     0.263 C 
HETATM    4  C   UNL     1       4.919  26.799  54.329  1.00  0.00     0.262 C 
HETATM    5  N   UNL     1       5.386  28.260  54.330  1.00  0.00    -0.068 N 
HETATM    6  H   UNL     1       5.083  28.695  55.219  1.00  0.00     0.280 HD
HETATM    7  C   UNL     1       6.913  28.424  54.235  1.00  0.00     0.262 C 
HETATM    8  C   UNL     1       7.659  27.514  55.233  1.00  0.00     0.263 C 
ENDROOT
BRANCH   5   9
HETATM    9  C   UNL     1       4.731  29.099  53.220  1.00  0.00     0.238 C 
BRANCH   9  10
HETATM   10  C   UNL     1       3.988  28.225  52.219  1.00  0.00     0.070 C 
BRANCH  10  11
HETATM   11  C   UNL     1       4.661  28.285  50.834  1.00  0.00     0.222 C 
HETATM   12  O   UNL     1       3.704  28.810  49.927  1.00  0.00    -0.334 OA
HETATM   13  C   UNL     1       3.250  27.944  48.975  1.00  0.00     0.099 A 
HETATM   14  C   UNL     1       3.787  26.673  48.750  1.00  0.00     0.068 A 
HETATM   15  C   UNL     1       2.186  28.401  48.201  1.00  0.00     0.075 A 
HETATM   16  N   UNL     1       4.841  26.209  49.536  1.00  0.00    -0.323 N 
HETATM   17  C   UNL     1       3.266  25.854  47.747  1.00  0.00     0.035 A 
HETATM   18  C   UNL     1       5.338  26.932  50.578  1.00  0.00     0.251 C 
HETATM   19  H   UNL     1       5.261  25.301  49.359  1.00  0.00     0.169 HD
HETATM   20  O   UNL     1       6.219  26.505  51.319  1.00  0.00    -0.270 OA
HETATM   21  C   UNL     1       2.186  26.299  46.975  1.00  0.00     0.038 A 
HETATM   22  C   UNL     1       1.648  27.570  47.209  1.00  0.00     0.105 A 
BRANCH  22  23
HETATM   23  N   UNL     1       0.489  28.033  46.438  1.00  0.00    -0.116 N 
HETATM   24  O   UNL     1      -0.079  27.198  45.717  1.00  0.00    -0.532 OA
HETATM   25  O   UNL     1       0.171  29.223  46.535  1.00  0.00    -0.532 OA
ENDBRANCH  22  23
ENDBRANCH  10  11
ENDBRANCH   9  10
ENDBRANCH   5   9
BRANCH   1  26
HETATM   26  C   UNL     1       7.733  25.336  53.833  1.00  0.00     0.273 C 
BRANCH  26  27
HETATM   27  C   UNL     1       7.926  23.858  54.009  1.00  0.00    -0.030 A 
HETATM   28  C   UNL     1       7.804  22.987  52.898  1.00  0.00     0.012 A 
HETATM   29  C   UNL     1       8.002  21.609  53.038  1.00  0.00     0.040 A 
HETATM   30  C   UNL     1       8.311  21.128  54.289  1.00  0.00     0.105 A 
HETATM   31  C   UNL     1       8.422  21.962  55.374  1.00  0.00     0.105 A 
HETATM   32  O   UNL     1       8.531  19.828  54.609  1.00  0.00    -0.323 OA
HETATM   33  C   UNL     1       8.236  23.325  55.272  1.00  0.00     0.048 A 
HETATM   34  O   UNL     1       8.726  21.290  56.514  1.00  0.00    -0.323 OA
HETATM   35  C   UNL     1       8.737  19.924  56.036  1.00  0.00     0.352 A 
ENDBRANCH  26  27
ENDBRANCH   1  26
TORSDOF 6
ENDMDL
MODEL 5
REMARK VINA RESULT:      -9.6      2.940     10.430
REMARK  6 active torsions:
REMARK  status: ('A' for Active; 'I' for Inactive)
REMARK    1  A    between atoms: C_2  and  C_3 
REMARK    2  A    between atoms: C_3  and  N_4 
REMARK    3  A    between atoms: N_8  and  C_10 
REMARK    4  A    between atoms: C_10  and  C_11 
REMARK    5  A    between atoms: C_11  and  C_12 
REMARK    6  A    between atoms: C_20  and  N_21 
ROOT
HETATM    1  N   UNL     1       6.996  26.114  56.384  1.00  0.00    -0.064 N 
HETATM    2  H   UNL     1       7.294  25.263  56.889  1.00  0.00     0.280 HD
HETATM    3  C   UNL     1       5.534  26.348  56.735  1.00  0.00     0.263 C 
HETATM    4  C   UNL     1       5.022  27.720  56.218  1.00  0.00     0.262 C 
HETATM    5  N   UNL     1       5.936  28.885  56.619  1.00  0.00    -0.068 N 
HETATM    6  H   UNL     1       5.813  29.058  57.631  1.00  0.00     0.280 HD
HETATM    7  C   UNL     1       7.431  28.612  56.377  1.00  0.00     0.262 C 
HETATM    8  C   UNL     1       7.868  27.238  56.928  1.00  0.00     0.263 C 
ENDROOT
BRANCH   5   9
HETATM    9  C   UNL     1       5.559  30.206  55.929  1.00  0.00     0.238 C 
BRANCH   9  10
HETATM   10  C   UNL     1       4.465  30.946  56.688  1.00  0.00     0.070 C 
BRANCH  10  11
HETATM   11  C   UNL     1       5.005  32.260  57.285  1.00  0.00     0.222 C 
HETATM   12  O   UNL     1       6.311  31.994  57.768  1.00  0.00    -0.334 OA
HETATM   13  C   UNL     1       6.466  32.046  59.123  1.00  0.00     0.099 A 
HETATM   14  C   UNL     1       5.484  32.501  60.008  1.00  0.00     0.068 A 
HETATM   15  C   UNL     1       7.698  31.612  59.608  1.00  0.00     0.075 A 
HETATM   16  N   UNL     1       4.245  32.919  59.524  1.00  0.00    -0.323 N 
HETATM   17  C   UNL     1       5.730  32.528  61.381  1.00  0.00     0.035 A 
HETATM   18  C   UNL     1       3.922  32.842  58.203  1.00  0.00     0.251 C 
HETATM   19  H   UNL     1       3.537  33.284  60.154  1.00  0.00     0.169 HD
HETATM   20  O   UNL     1       2.810  33.142  57.775  1.00  0.00    -0.270 OA
HETATM   21  C   UNL     1       6.958  32.080  61.879  1.00  0.00     0.038 A 
HETATM   22  C   UNL     1       7.936  31.618  60.988  1.00  0.00     0.105 A 
BRANCH  22  23
HETATM   23  N   UNL     1       9.212  31.104  61.497  1.00  0.00    -0.116 N 
HETATM   24  O   UNL     1      10.163  31.899  61.543  1.00  0.00    -0.532 OA
HETATM   25  O   UNL     1       9.264  29.913  61.821  1.00  0.00    -0.532 OA
ENDBRANCH  22  23
ENDBRANCH  10  11
ENDBRANCH   9  10
ENDBRANCH   5   9
BRANCH   1  26
HETATM   26  C   UNL     1       7.198  25.754  54.913  1.00  0.00     0.273 C 
BRANCH  26  27
HETATM   27  C   UNL     1       7.499  24.303  54.670  1.00  0.00    -0.030 A 
HETATM   28  C   UNL     1       7.498  23.788  53.350  1.00  0.00     0.012 A 
HETATM   29  C   UNL     1       7.798  22.444  53.101  1.00  0.00     0.040 A 
HETATM   30  C   UNL     1       8.084  21.639  54.179  1.00  0.00     0.105 A 
HETATM   31  C   UNL     1       8.077  22.126  55.463  1.00  0.00     0.105 A 
HETATM   32  O   UNL     1       8.390  20.319  54.127  1.00  0.00    -0.323 OA
HETATM   33  C   UNL     1       7.789  23.445  55.745  1.00  0.00     0.048 A 
HETATM   34  O   UNL     1       8.379  21.171  56.380  1.00  0.00    -0.323 OA
HETATM   35  C   UNL     1       8.520  20.007  55.531  1.00  0.00     0.352 A 
ENDBRANCH  26  27
ENDBRANCH   1  26
TORSDOF 6
ENDMDL
MODEL 6
REMARK VINA RESULT:      -9.4      7.329     10.429
REMARK  6 active torsions:
REMARK  status: ('A' for Active; 'I' for Inactive)
REMARK    1  A    between atoms: C_2  and  C_3 
REMARK    2  A    between atoms: C_3  and  N_4 
REMARK    3  A    between atoms: N_8  and  C_10 
REMARK    4  A    between atoms: C_10  and  C_11 
REMARK    5  A    between atoms: C_11  and  C_12 
REMARK    6  A    between atoms: C_20  and  N_21 
ROOT
HETATM    1  N   UNL     1       5.678  25.650  54.739  1.00  0.00    -0.064 N 
HETATM    2  H   UNL     1       5.440  24.891  55.399  1.00  0.00     0.280 HD
HETATM    3  C   UNL     1       4.753  25.500  53.540  1.00  0.00     0.263 C 
HETATM    4  C   UNL     1       4.854  26.710  52.571  1.00  0.00     0.262 C 
HETATM    5  N   UNL     1       4.707  28.058  53.286  1.00  0.00    -0.068 N 
HETATM    6  H   UNL     1       3.716  28.174  53.556  1.00  0.00     0.280 HD
HETATM    7  C   UNL     1       5.550  28.176  54.568  1.00  0.00     0.262 C 
HETATM    8  C   UNL     1       5.389  26.946  55.485  1.00  0.00     0.263 C 
ENDROOT
BRANCH   5   9
HETATM    9  C   UNL     1       5.026  29.256  52.376  1.00  0.00     0.238 C 
BRANCH   9  10
HETATM   10  C   UNL     1       3.800  30.131  52.148  1.00  0.00     0.070 C 
BRANCH  10  11
HETATM   11  C   UNL     1       3.616  30.436  50.648  1.00  0.00     0.222 C 
HETATM   12  O   UNL     1       2.930  29.333  50.079  1.00  0.00    -0.334 OA
HETATM   13  C   UNL     1       3.647  28.578  49.197  1.00  0.00     0.099 A 
HETATM   14  C   UNL     1       4.913  28.925  48.715  1.00  0.00     0.068 A 
HETATM   15  C   UNL     1       3.037  27.398  48.776  1.00  0.00     0.075 A 
HETATM   16  N   UNL     1       5.531  30.096  49.149  1.00  0.00    -0.323 N 
HETATM   17  C   UNL     1       5.573  28.096  47.806  1.00  0.00     0.035 A 
HETATM   18  C   UNL     1       4.968  30.903  50.091  1.00  0.00     0.251 C 
HETATM   19  H   UNL     1       6.434  30.375  48.779  1.00  0.00     0.169 HD
HETATM   20  O   UNL     1       5.534  31.900  50.531  1.00  0.00    -0.270 OA
HETATM   21  C   UNL     1       4.974  26.901  47.390  1.00  0.00     0.038 A 
HETATM   22  C   UNL     1       3.709  26.555  47.881  1.00  0.00     0.105 A 
BRANCH  22  23
HETATM   23  N   UNL     1       3.089  25.286  47.489  1.00  0.00    -0.116 N 
HETATM   24  O   UNL     1       2.698  25.188  46.315  1.00  0.00    -0.532 OA
HETATM   25  O   UNL     1       2.972  24.411  48.353  1.00  0.00    -0.532 OA
ENDBRANCH  22  23
ENDBRANCH  10  11
ENDBRANCH   9  10
ENDBRANCH   5   9
BRANCH   1  26
HETATM   26  C   UNL     1       7.141  25.382  54.391  1.00  0.00     0.273 C 
BRANCH  26  27
HETATM   27  C   UNL     1       7.505  23.927  54.337  1.00  0.00    -0.030 A 
HETATM   28  C   UNL     1       7.665  23.279  53.087  1.00  0.00     0.012 A 
HETATM   29  C   UNL     1       8.026  21.929  53.015  1.00  0.00     0.040 A 
HETATM   30  C   UNL     1       8.212  21.251  54.198  1.00  0.00     0.105 A 
HETATM   31  C   UNL     1       8.050  21.866  55.414  1.00  0.00     0.105 A 
HETATM   32  O   UNL     1       8.557  19.945  54.319  1.00  0.00    -0.323 OA
HETATM   33  C   UNL     1       7.698  23.195  55.522  1.00  0.00     0.048 A 
HETATM   34  O   UNL     1       8.274  21.023  56.454  1.00  0.00    -0.323 OA
HETATM   35  C   UNL     1       8.539  19.783  55.754  1.00  0.00     0.352 A 
ENDBRANCH  26  27
ENDBRANCH   1  26
TORSDOF 6
ENDMDL
MODEL 7
REMARK VINA RESULT:      -9.4      8.120     11.800
REMARK  6 active torsions:
REMARK  status: ('A' for Active; 'I' for Inactive)
REMARK    1  A    between atoms: C_2  and  C_3 
REMARK    2  A    between atoms: C_3  and  N_4 
REMARK    3  A    between atoms: N_8  and  C_10 
REMARK    4  A    between atoms: C_10  and  C_11 
REMARK    5  A    between atoms: C_11  and  C_12 
REMARK    6  A    between atoms: C_20  and  N_21 
ROOT
HETATM    1  N   UNL     1       5.976  25.855  53.722  1.00  0.00    -0.064 N 
HETATM    2  H   UNL     1       5.859  25.788  54.746  1.00  0.00     0.280 HD
HETATM    3  C   UNL     1       4.951  24.920  53.097  1.00  0.00     0.263 C 
HETATM    4  C   UNL     1       4.870  25.090  51.555  1.00  0.00     0.262 C 
HETATM    5  N   UNL     1       4.698  26.553  51.126  1.00  0.00    -0.068 N 
HETATM    6  H   UNL     1       3.732  26.844  51.353  1.00  0.00     0.280 HD
HETATM    7  C   UNL     1       5.652  27.525  51.842  1.00  0.00     0.262 C 
HETATM    8  C   UNL     1       5.670  27.305  53.368  1.00  0.00     0.263 C 
ENDROOT
BRANCH   5   9
HETATM    9  C   UNL     1       4.839  26.752  49.608  1.00  0.00     0.238 C 
BRANCH   9  10
HETATM   10  C   UNL     1       4.269  28.092  49.161  1.00  0.00     0.070 C 
BRANCH  10  11
HETATM   11  C   UNL     1       2.804  28.242  49.615  1.00  0.00     0.222 C 
HETATM   12  O   UNL     1       1.997  27.600  48.641  1.00  0.00    -0.334 OA
HETATM   13  C   UNL     1       1.196  28.420  47.899  1.00  0.00     0.099 A 
HETATM   14  C   UNL     1       1.009  29.780  48.160  1.00  0.00     0.068 A 
HETATM   15  C   UNL     1       0.540  27.815  46.829  1.00  0.00     0.075 A 
HETATM   16  N   UNL     1       1.678  30.388  49.221  1.00  0.00    -0.323 N 
HETATM   17  C   UNL     1       0.163  30.543  47.354  1.00  0.00     0.035 A 
HETATM   18  C   UNL     1       2.574  29.712  49.992  1.00  0.00     0.251 C 
HETATM   19  H   UNL     1       1.523  31.367  49.440  1.00  0.00     0.169 HD
HETATM   20  O   UNL     1       3.220  30.254  50.886  1.00  0.00    -0.270 OA
HETATM   21  C   UNL     1      -0.487  29.948  46.266  1.00  0.00     0.038 A 
HETATM   22  C   UNL     1      -0.291  28.586  46.006  1.00  0.00     0.105 A 
BRANCH  22  23
HETATM   23  N   UNL     1      -0.931  27.959  44.845  1.00  0.00    -0.116 N 
HETATM   24  O   UNL     1      -0.626  26.782  44.599  1.00  0.00    -0.532 OA
HETATM   25  O   UNL     1      -1.708  28.648  44.174  1.00  0.00    -0.532 OA
ENDBRANCH  22  23
ENDBRANCH  10  11
ENDBRANCH   9  10
ENDBRANCH   5   9
BRANCH   1  26
HETATM   26  C   UNL     1       7.413  25.393  53.490  1.00  0.00     0.273 C 
BRANCH  26  27
HETATM   27  C   UNL     1       7.659  23.950  53.828  1.00  0.00    -0.030 A 
HETATM   28  C   UNL     1       7.764  22.986  52.796  1.00  0.00     0.012 A 
HETATM   29  C   UNL     1       8.014  21.641  53.090  1.00  0.00     0.040 A 
HETATM   30  C   UNL     1       8.147  21.286  54.413  1.00  0.00     0.105 A 
HETATM   31  C   UNL     1       8.036  22.211  55.421  1.00  0.00     0.105 A 
HETATM   32  O   UNL     1       8.385  20.036  54.880  1.00  0.00    -0.323 OA
HETATM   33  C   UNL     1       7.793  23.545  55.168  1.00  0.00     0.048 A 
HETATM   34  O   UNL     1       8.192  21.658  56.651  1.00  0.00    -0.323 OA
HETATM   35  C   UNL     1       8.356  20.261  56.307  1.00  0.00     0.352 A 
ENDBRANCH  26  27
ENDBRANCH   1  26
TORSDOF 6
ENDMDL
MODEL 8
REMARK VINA RESULT:      -9.3      1.895      2.367
REMARK  6 active torsions:
REMARK  status: ('A' for Active; 'I' for Inactive)
REMARK    1  A    between atoms: C_2  and  C_3 
REMARK    2  A    between atoms: C_3  and  N_4 
REMARK    3  A    between atoms: N_8  and  C_10 
REMARK    4  A    between atoms: C_10  and  C_11 
REMARK    5  A    between atoms: C_11  and  C_12 
REMARK    6  A    between atoms: C_20  and  N_21 
ROOT
HETATM    1  N   UNL     1       5.933  32.103  58.459  1.00  0.00    -0.064 N 
HETATM    2  H   UNL     1       5.903  33.131  58.365  1.00  0.00     0.280 HD
HETATM    3  C   UNL     1       5.656  31.524  57.079  1.00  0.00     0.263 C 
HETATM    4  C   UNL     1       5.891  29.989  57.032  1.00  0.00     0.262 C 
HETATM    5  N   UNL     1       7.255  29.579  57.598  1.00  0.00    -0.068 N 
HETATM    6  H   UNL     1       7.984  29.856  56.919  1.00  0.00     0.280 HD
HETATM    7  C   UNL     1       7.598  30.251  58.940  1.00  0.00     0.262 C 
HETATM    8  C   UNL     1       7.351  31.774  58.907  1.00  0.00     0.263 C 
ENDROOT
BRANCH   5   9
HETATM    9  C   UNL     1       7.404  28.057  57.759  1.00  0.00     0.238 C 
BRANCH   9  10
HETATM   10  C   UNL     1       7.984  27.413  56.507  1.00  0.00     0.070 C 
BRANCH  10  11
HETATM   11  C   UNL     1       6.900  26.626  55.743  1.00  0.00     0.222 C 
HETATM   12  O   UNL     1       7.035  25.264  56.113  1.00  0.00    -0.334 OA
HETATM   13  C   UNL     1       7.457  24.419  55.126  1.00  0.00     0.099 A 
HETATM   14  C   UNL     1       7.587  24.785  53.783  1.00  0.00     0.068 A 
HETATM   15  C   UNL     1       7.760  23.121  55.531  1.00  0.00     0.075 A 
HETATM   16  N   UNL     1       7.300  26.089  53.381  1.00  0.00    -0.323 N 
HETATM   17  C   UNL     1       8.017  23.854  52.837  1.00  0.00     0.035 A 
HETATM   18  C   UNL     1       6.951  27.059  54.272  1.00  0.00     0.251 C 
HETATM   19  H   UNL     1       7.358  26.356  52.404  1.00  0.00     0.169 HD
HETATM   20  O   UNL     1       6.763  28.226  53.939  1.00  0.00    -0.270 OA
HETATM   21  C   UNL     1       8.339  22.552  53.237  1.00  0.00     0.038 A 
HETATM   22  C   UNL     1       8.213  22.193  54.585  1.00  0.00     0.105 A 
BRANCH  22  23
HETATM   23  N   UNL     1       8.588  20.845  55.026  1.00  0.00    -0.116 N 
HETATM   24  O   UNL     1       8.476  19.928  54.198  1.00  0.00    -0.532 OA
HETATM   25  O   UNL     1       8.965  20.706  56.195  1.00  0.00    -0.532 OA
ENDBRANCH  22  23
ENDBRANCH  10  11
ENDBRANCH   9  10
ENDBRANCH   5   9
BRANCH   1  26
HETATM   26  C   UNL     1       4.821  31.796  59.460  1.00  0.00     0.273 C 
BRANCH  26  27
HETATM   27  C   UNL     1       4.837  32.665  60.684  1.00  0.00    -0.030 A 
HETATM   28  C   UNL     1       4.861  34.075  60.555  1.00  0.00     0.012 A 
HETATM   29  C   UNL     1       4.854  34.902  61.684  1.00  0.00     0.040 A 
HETATM   30  C   UNL     1       4.831  34.300  62.921  1.00  0.00     0.105 A 
HETATM   31  C   UNL     1       4.818  32.934  63.057  1.00  0.00     0.105 A 
HETATM   32  O   UNL     1       4.825  34.941  64.116  1.00  0.00    -0.323 OA
HETATM   33  C   UNL     1       4.822  32.090  61.966  1.00  0.00     0.048 A 
HETATM   34  O   UNL     1       4.802  32.544  64.357  1.00  0.00    -0.323 OA
HETATM   35  C   UNL     1       4.866  33.823  65.031  1.00  0.00     0.352 A 
ENDBRANCH  26  27
ENDBRANCH   1  26
TORSDOF 6
ENDMDL
MODEL 9
REMARK VINA RESULT:      -9.3      3.309     10.903
REMARK  6 active torsions:
REMARK  status: ('A' for Active; 'I' for Inactive)
REMARK    1  A    between atoms: C_2  and  C_3 
REMARK    2  A    between atoms: C_3  and  N_4 
REMARK    3  A    between atoms: N_8  and  C_10 
REMARK    4  A    between atoms: C_10  and  C_11 
REMARK    5  A    between atoms: C_11  and  C_12 
REMARK    6  A    between atoms: C_20  and  N_21 
ROOT
HETATM    1  N   UNL     1       6.176  25.022  52.386  1.00  0.00    -0.064 N 
HETATM    2  H   UNL     1       5.933  24.233  51.766  1.00  0.00     0.280 HD
HETATM    3  C   UNL     1       6.024  26.294  51.564  1.00  0.00     0.263 C 
HETATM    4  C   UNL     1       6.146  27.572  52.437  1.00  0.00     0.262 C 
HETATM    5  N   UNL     1       5.239  27.537  53.673  1.00  0.00    -0.068 N 
HETATM    6  H   UNL     1       4.262  27.670  53.361  1.00  0.00     0.280 HD
HETATM    7  C   UNL     1       5.298  26.208  54.448  1.00  0.00     0.262 C 
HETATM    8  C   UNL     1       5.157  24.986  53.517  1.00  0.00     0.263 C 
ENDROOT
BRANCH   5   9
HETATM    9  C   UNL     1       5.516  28.689  54.653  1.00  0.00     0.238 C 
BRANCH   9  10
HETATM   10  C   UNL     1       6.800  28.463  55.440  1.00  0.00     0.070 C 
BRANCH  10  11
HETATM   11  C   UNL     1       6.516  28.437  56.955  1.00  0.00     0.222 C 
HETATM   12  O   UNL     1       5.323  29.174  57.168  1.00  0.00    -0.334 OA
HETATM   13  C   UNL     1       5.465  30.349  57.849  1.00  0.00     0.099 A 
HETATM   14  C   UNL     1       6.648  30.758  58.471  1.00  0.00     0.068 A 
HETATM   15  C   UNL     1       4.330  31.156  57.904  1.00  0.00     0.075 A 
HETATM   16  N   UNL     1       7.788  29.958  58.403  1.00  0.00    -0.323 N 
HETATM   17  C   UNL     1       6.702  31.973  59.155  1.00  0.00     0.035 A 
HETATM   18  C   UNL     1       7.815  28.800  57.686  1.00  0.00     0.251 C 
HETATM   19  H   UNL     1       8.642  30.229  58.880  1.00  0.00     0.169 HD
HETATM   20  O   UNL     1       8.832  28.123  57.561  1.00  0.00    -0.270 OA
HETATM   21  C   UNL     1       5.572  32.798  59.201  1.00  0.00     0.038 A 
HETATM   22  C   UNL     1       4.391  32.387  58.570  1.00  0.00     0.105 A 
BRANCH  22  23
HETATM   23  N   UNL     1       3.213  33.260  58.573  1.00  0.00    -0.116 N 
HETATM   24  O   UNL     1       2.913  33.806  57.500  1.00  0.00    -0.532 OA
HETATM   25  O   UNL     1       2.613  33.415  59.642  1.00  0.00    -0.532 OA
ENDBRANCH  22  23
ENDBRANCH  10  11
ENDBRANCH   9  10
ENDBRANCH   5   9
BRANCH   1  26
HETATM   26  C   UNL     1       7.627  24.744  52.775  1.00  0.00     0.273 C 
BRANCH  26  27
HETATM   27  C   UNL     1       7.841  23.423  53.454  1.00  0.00    -0.030 A 
HETATM   28  C   UNL     1       7.722  22.218  52.719  1.00  0.00     0.012 A 
HETATM   29  C   UNL     1       7.939  20.977  53.328  1.00  0.00     0.040 A 
HETATM   30  C   UNL     1       8.263  20.966  54.666  1.00  0.00     0.105 A 
HETATM   31  C   UNL     1       8.370  22.128  55.390  1.00  0.00     0.105 A 
HETATM   32  O   UNL     1       8.501  19.863  55.417  1.00  0.00    -0.323 OA
HETATM   33  C   UNL     1       8.166  23.367  54.821  1.00  0.00     0.048 A 
HETATM   34  O   UNL     1       8.690  21.900  56.689  1.00  0.00    -0.323 OA
HETATM   35  C   UNL     1       8.716  20.452  56.719  1.00  0.00     0.352 A 
ENDBRANCH  26  27
ENDBRANCH   1  26
TORSDOF 6
ENDMDL
MODEL 10
REMARK VINA RESULT:      -9.2      2.438     11.203
REMARK  6 active torsions:
REMARK  status: ('A' for Active; 'I' for Inactive)
REMARK    1  A    between atoms: C_2  and  C_3 
REMARK    2  A    between atoms: C_3  and  N_4 
REMARK    3  A    between atoms: N_8  and  C_10 
REMARK    4  A    between atoms: C_10  and  C_11 
REMARK    5  A    between atoms: C_11  and  C_12 
REMARK    6  A    between atoms: C_20  and  N_21 
ROOT
HETATM    1  N   UNL     1       5.870  25.885  54.489  1.00  0.00    -0.064 N 
HETATM    2  H   UNL     1       5.386  25.044  54.134  1.00  0.00     0.280 HD
HETATM    3  C   UNL     1       5.399  27.057  53.639  1.00  0.00     0.263 C 
HETATM    4  C   UNL     1       5.881  28.420  54.208  1.00  0.00     0.262 C 
HETATM    5  N   UNL     1       5.565  28.587  55.699  1.00  0.00    -0.068 N 
HETATM    6  H   UNL     1       4.548  28.741  55.799  1.00  0.00     0.280 HD
HETATM    7  C   UNL     1       5.930  27.358  56.551  1.00  0.00     0.262 C 
HETATM    8  C   UNL     1       5.409  26.045  55.931  1.00  0.00     0.263 C 
ENDROOT
BRANCH   5   9
HETATM    9  C   UNL     1       6.230  29.828  56.317  1.00  0.00     0.238 C 
BRANCH   9  10
HETATM   10  C   UNL     1       5.803  30.035  57.763  1.00  0.00     0.070 C 
BRANCH  10  11
HETATM   11  C   UNL     1       5.424  31.507  58.018  1.00  0.00     0.222 C 
HETATM   12  O   UNL     1       6.337  32.013  58.977  1.00  0.00    -0.334 OA
HETATM   13  C   UNL     1       5.808  32.319  60.198  1.00  0.00     0.099 A 
HETATM   14  C   UNL     1       4.439  32.323  60.481  1.00  0.00     0.068 A 
HETATM   15  C   UNL     1       6.729  32.645  61.191  1.00  0.00     0.075 A 
HETATM   16  N   UNL     1       3.518  31.980  59.492  1.00  0.00    -0.323 N 
HETATM   17  C   UNL     1       3.983  32.657  61.757  1.00  0.00     0.035 A 
HETATM   18  C   UNL     1       3.909  31.571  58.252  1.00  0.00     0.251 C 
HETATM   19  H   UNL     1       2.521  32.013  59.676  1.00  0.00     0.169 HD
HETATM   20  O   UNL     1       3.110  31.202  57.395  1.00  0.00    -0.270 OA
HETATM   21  C   UNL     1       4.902  32.970  62.766  1.00  0.00     0.038 A 
HETATM   22  C   UNL     1       6.273  32.958  62.478  1.00  0.00     0.105 A 
BRANCH  22  23
HETATM   23  N   UNL     1       7.249  33.241  63.535  1.00  0.00    -0.116 N 
HETATM   24  O   UNL     1       8.360  32.699  63.438  1.00  0.00    -0.532 OA
HETATM   25  O   UNL     1       6.895  33.975  64.464  1.00  0.00    -0.532 OA
ENDBRANCH  22  23
ENDBRANCH  10  11
ENDBRANCH   9  10
ENDBRANCH   5   9
BRANCH   1  26
HETATM   26  C   UNL     1       7.350  25.566  54.284  1.00  0.00     0.273 C 
BRANCH  26  27
HETATM   27  C   UNL     1       7.662  24.099  54.224  1.00  0.00    -0.030 A 
HETATM   28  C   UNL     1       7.676  23.425  52.978  1.00  0.00     0.012 A 
HETATM   29  C   UNL     1       7.986  22.063  52.899  1.00  0.00     0.040 A 
HETATM   30  C   UNL     1       8.268  21.400  54.071  1.00  0.00     0.105 A 
HETATM   31  C   UNL     1       8.248  22.041  55.284  1.00  0.00     0.105 A 
HETATM   32  O   UNL     1       8.583  20.085  54.184  1.00  0.00    -0.323 OA
HETATM   33  C   UNL     1       7.949  23.383  55.399  1.00  0.00     0.048 A 
HETATM   34  O   UNL     1       8.548  21.209  56.315  1.00  0.00    -0.323 OA
HETATM   35  C   UNL     1       8.704  19.950  55.618  1.00  0.00     0.352 A 
ENDBRANCH  26  27
ENDBRANCH   1  26
TORSDOF 6
ENDMDL
