MODEL 1
REMARK VINA RESULT:      -7.7      0.000      0.000
REMARK  3 active torsions:
REMARK  status: ('A' for Active; 'I' for Inactive)
REMARK    1  A    between atoms: C_2  and  C_3 
REMARK    2  A    between atoms: C_3  and  C_4 
REMARK    3  A    between atoms: C_24  and  N_25 
ROOT
HETATM    1  C   UNL     1       4.140  35.639  61.237  1.00  0.00     0.067 A 
HETATM    2  N   UNL     1       3.826  36.149  60.033  1.00  0.00    -0.177 NA
HETATM    3  N   UNL     1       3.430  35.087  59.309  1.00  0.00    -0.256 N 
HETATM    4  H   UNL     1       3.127  35.231  58.352  1.00  0.00     0.191 HD
HETATM    5  C   UNL     1       3.477  33.929  60.011  1.00  0.00     0.176 A 
HETATM    6  C   UNL     1       3.955  34.231  61.263  1.00  0.00     0.049 A 
HETATM    7  C   UNL     1       4.088  33.137  62.267  1.00  0.00     0.145 A 
HETATM    8  C   UNL     1       3.265  33.451  63.548  1.00  0.00     0.246 A 
HETATM    9  O   UNL     1       2.053  33.551  63.655  1.00  0.00    -0.271 OA
HETATM   10  N   UNL     1       4.171  33.586  64.595  1.00  0.00    -0.325 N 
HETATM   11  C   UNL     1       5.478  33.409  64.164  1.00  0.00     0.043 A 
HETATM   12  C   UNL     1       5.516  33.150  62.785  1.00  0.00     0.003 A 
HETATM   13  C   UNL     1       6.608  33.470  64.951  1.00  0.00     0.030 A 
HETATM   14  C   UNL     1       7.833  33.257  64.325  1.00  0.00     0.003 A 
HETATM   15  C   UNL     1       7.898  32.987  62.947  1.00  0.00     0.007 A 
HETATM   16  C   UNL     1       6.739  32.920  62.152  1.00  0.00    -0.051 A 
HETATM   17  C   UNL     1       6.859  32.643  60.684  1.00  0.00     0.049 C 
HETATM   18  C   UNL     1       3.627  31.796  61.698  1.00  0.00     0.095 A 
HETATM   19  C   UNL     1       3.685  30.661  62.561  1.00  0.00     0.101 C 
HETATM   20  N   UNL     1       3.719  29.742  63.268  1.00  0.00    -0.191 NA
HETATM   21  C   UNL     1       3.169  31.662  60.423  1.00  0.00     0.141 A 
HETATM   22  O   UNL     1       3.098  32.749  59.537  1.00  0.00    -0.279 OA
HETATM   23  H   UNL     1       3.884  33.775  65.545  1.00  0.00     0.169 HD
ENDROOT
BRANCH  21  24
HETATM   24  N   UNL     1       2.736  30.486  59.849  1.00  0.00    -0.282 NA
HETATM   25  H   UNL     1       2.845  29.654  60.425  1.00  0.00     0.126 HD
HETATM   26  H   UNL     1       1.797  30.576  59.468  1.00  0.00     0.126 HD
ENDBRANCH  21  24
BRANCH   1  27
HETATM   27  C   UNL     1       4.566  36.572  62.326  1.00  0.00     0.061 C 
BRANCH  27  28
HETATM   28  C   UNL     1       6.071  36.841  62.379  1.00  0.00     0.002 C 
HETATM   29  C   UNL     1       6.452  38.265  61.999  1.00  0.00     0.005 C 
ENDBRANCH  27  28
ENDBRANCH   1  27
TORSDOF 3
ENDMDL
MODEL 2
REMARK VINA RESULT:      -7.6      7.673      9.708
REMARK  3 active torsions:
REMARK  status: ('A' for Active; 'I' for Inactive)
REMARK    1  A    between atoms: C_2  and  C_3 
REMARK    2  A    between atoms: C_3  and  C_4 
REMARK    3  A    between atoms: C_24  and  N_25 
ROOT
HETATM    1  C   UNL     1       4.268  28.019  54.726  1.00  0.00     0.067 A 
HETATM    2  N   UNL     1       3.530  28.094  53.604  1.00  0.00    -0.177 NA
HETATM    3  N   UNL     1       3.974  27.080  52.839  1.00  0.00    -0.256 N 
HETATM    4  H   UNL     1       3.547  26.928  51.932  1.00  0.00     0.191 HD
HETATM    5  C   UNL     1       4.959  26.367  53.437  1.00  0.00     0.176 A 
HETATM    6  C   UNL     1       5.203  26.952  54.655  1.00  0.00     0.049 A 
HETATM    7  C   UNL     1       6.235  26.352  55.548  1.00  0.00     0.145 A 
HETATM    8  C   UNL     1       5.627  25.967  56.926  1.00  0.00     0.246 A 
HETATM    9  O   UNL     1       4.775  25.125  57.160  1.00  0.00    -0.271 OA
HETATM   10  N   UNL     1       6.249  26.760  57.886  1.00  0.00    -0.325 N 
HETATM   11  C   UNL     1       7.179  27.617  57.314  1.00  0.00     0.043 A 
HETATM   12  C   UNL     1       7.223  27.444  55.921  1.00  0.00     0.003 A 
HETATM   13  C   UNL     1       7.970  28.522  57.987  1.00  0.00     0.030 A 
HETATM   14  C   UNL     1       8.849  29.289  57.227  1.00  0.00     0.003 A 
HETATM   15  C   UNL     1       8.919  29.131  55.831  1.00  0.00     0.007 A 
HETATM   16  C   UNL     1       8.112  28.199  55.153  1.00  0.00    -0.051 A 
HETATM   17  C   UNL     1       8.211  28.076  53.662  1.00  0.00     0.049 C 
HETATM   18  C   UNL     1       6.865  25.109  54.920  1.00  0.00     0.095 A 
HETATM   19  C   UNL     1       7.860  24.423  55.678  1.00  0.00     0.101 C 
HETATM   20  N   UNL     1       8.659  23.857  56.301  1.00  0.00    -0.191 NA
HETATM   21  C   UNL     1       6.505  24.650  53.691  1.00  0.00     0.141 A 
HETATM   22  O   UNL     1       5.534  25.294  52.908  1.00  0.00    -0.279 OA
HETATM   23  H   UNL     1       6.041  26.689  58.871  1.00  0.00     0.169 HD
ENDROOT
BRANCH  21  24
HETATM   24  N   UNL     1       7.029  23.537  53.068  1.00  0.00    -0.282 NA
HETATM   25  H   UNL     1       8.045  23.493  53.039  1.00  0.00     0.126 HD
HETATM   26  H   UNL     1       6.611  22.678  53.418  1.00  0.00     0.126 HD
ENDBRANCH  21  24
BRANCH   1  27
HETATM   27  C   UNL     1       3.987  28.977  55.839  1.00  0.00     0.061 C 
BRANCH  27  28
HETATM   28  C   UNL     1       4.855  30.237  55.827  1.00  0.00     0.002 C 
HETATM   29  C   UNL     1       5.176  30.773  57.216  1.00  0.00     0.005 C 
ENDBRANCH  27  28
ENDBRANCH   1  27
TORSDOF 3
ENDMDL
MODEL 3
REMARK VINA RESULT:      -7.5      2.528      5.053
REMARK  3 active torsions:
REMARK  status: ('A' for Active; 'I' for Inactive)
REMARK    1  A    between atoms: C_2  and  C_3 
REMARK    2  A    between atoms: C_3  and  C_4 
REMARK    3  A    between atoms: C_24  and  N_25 
ROOT
HETATM    1  C   UNL     1       7.109  32.144  60.956  1.00  0.00     0.067 A 
HETATM    2  N   UNL     1       8.449  32.032  60.895  1.00  0.00    -0.177 NA
HETATM    3  N   UNL     1       8.877  32.441  62.103  1.00  0.00    -0.256 N 
HETATM    4  H   UNL     1       9.872  32.432  62.299  1.00  0.00     0.191 HD
HETATM    5  C   UNL     1       7.861  32.802  62.923  1.00  0.00     0.176 A 
HETATM    6  C   UNL     1       6.693  32.649  62.216  1.00  0.00     0.049 A 
HETATM    7  C   UNL     1       5.398  32.954  62.889  1.00  0.00     0.145 A 
HETATM    8  C   UNL     1       4.454  31.719  62.869  1.00  0.00     0.246 A 
HETATM    9  O   UNL     1       4.615  30.643  63.423  1.00  0.00    -0.271 OA
HETATM   10  N   UNL     1       3.345  32.063  62.102  1.00  0.00    -0.325 N 
HETATM   11  C   UNL     1       3.445  33.357  61.612  1.00  0.00     0.043 A 
HETATM   12  C   UNL     1       4.647  33.953  62.026  1.00  0.00     0.003 A 
HETATM   13  C   UNL     1       2.514  34.003  60.828  1.00  0.00     0.030 A 
HETATM   14  C   UNL     1       2.801  35.310  60.443  1.00  0.00     0.003 A 
HETATM   15  C   UNL     1       3.994  35.933  60.851  1.00  0.00     0.007 A 
HETATM   16  C   UNL     1       4.935  35.269  61.658  1.00  0.00    -0.051 A 
HETATM   17  C   UNL     1       6.200  35.970  62.056  1.00  0.00     0.049 C 
HETATM   18  C   UNL     1       5.610  33.392  64.338  1.00  0.00     0.095 A 
HETATM   19  C   UNL     1       4.448  33.700  65.107  1.00  0.00     0.101 C 
HETATM   20  N   UNL     1       3.502  33.935  65.737  1.00  0.00    -0.191 NA
HETATM   21  C   UNL     1       6.846  33.489  64.899  1.00  0.00     0.141 A 
HETATM   22  O   UNL     1       8.017  33.201  64.179  1.00  0.00    -0.279 OA
HETATM   23  H   UNL     1       2.570  31.433  61.949  1.00  0.00     0.169 HD
ENDROOT
BRANCH  21  24
HETATM   24  N   UNL     1       7.107  33.875  66.196  1.00  0.00    -0.282 NA
HETATM   25  H   UNL     1       7.385  33.124  66.825  1.00  0.00     0.126 HD
HETATM   26  H   UNL     1       7.742  34.668  66.232  1.00  0.00     0.126 HD
ENDBRANCH  21  24
BRANCH   1  27
HETATM   27  C   UNL     1       6.295  31.703  59.781  1.00  0.00     0.061 C 
BRANCH  27  28
HETATM   28  C   UNL     1       5.814  32.841  58.879  1.00  0.00     0.002 C 
HETATM   29  C   UNL     1       4.543  32.514  58.107  1.00  0.00     0.005 C 
ENDBRANCH  27  28
ENDBRANCH   1  27
TORSDOF 3
ENDMDL
MODEL 4
REMARK VINA RESULT:      -7.0     23.749     25.949
REMARK  3 active torsions:
REMARK  status: ('A' for Active; 'I' for Inactive)
REMARK    1  A    between atoms: C_2  and  C_3 
REMARK    2  A    between atoms: C_3  and  C_4 
REMARK    3  A    between atoms: C_24  and  N_25 
ROOT
HETATM    1  C   UNL     1      10.952  10.640  54.739  1.00  0.00     0.067 A 
HETATM    2  N   UNL     1       9.818  11.364  54.768  1.00  0.00    -0.177 NA
HETATM    3  N   UNL     1       9.930  12.210  53.729  1.00  0.00    -0.256 N 
HETATM    4  H   UNL     1       9.172  12.857  53.540  1.00  0.00     0.191 HD
HETATM    5  C   UNL     1      11.086  12.045  53.043  1.00  0.00     0.176 A 
HETATM    6  C   UNL     1      11.796  11.053  53.674  1.00  0.00     0.049 A 
HETATM    7  C   UNL     1      13.114  10.642  53.112  1.00  0.00     0.145 A 
HETATM    8  C   UNL     1      13.130   9.124  52.777  1.00  0.00     0.246 A 
HETATM    9  O   UNL     1      12.465   8.534  51.939  1.00  0.00    -0.271 OA
HETATM   10  N   UNL     1      14.075   8.529  53.607  1.00  0.00    -0.325 N 
HETATM   11  C   UNL     1      14.673   9.459  54.446  1.00  0.00     0.043 A 
HETATM   12  C   UNL     1      14.147  10.741  54.222  1.00  0.00     0.003 A 
HETATM   13  C   UNL     1      15.653   9.198  55.379  1.00  0.00     0.030 A 
HETATM   14  C   UNL     1      16.129  10.276  56.122  1.00  0.00     0.003 A 
HETATM   15  C   UNL     1      15.625  11.572  55.912  1.00  0.00     0.007 A 
HETATM   16  C   UNL     1      14.629  11.829  54.951  1.00  0.00    -0.051 A 
HETATM   17  C   UNL     1      14.113  13.226  54.773  1.00  0.00     0.049 C 
HETATM   18  C   UNL     1      13.456  11.432  51.849  1.00  0.00     0.095 A 
HETATM   19  C   UNL     1      14.687  11.126  51.197  1.00  0.00     0.101 C 
HETATM   20  N   UNL     1      15.682  10.867  50.658  1.00  0.00    -0.191 NA
HETATM   21  C   UNL     1      12.634  12.391  51.343  1.00  0.00     0.141 A 
HETATM   22  O   UNL     1      11.415  12.728  51.954  1.00  0.00    -0.279 OA
HETATM   23  H   UNL     1      14.290   7.543  53.572  1.00  0.00     0.169 HD
ENDROOT
BRANCH  21  24
HETATM   24  N   UNL     1      12.879  13.137  50.210  1.00  0.00    -0.282 NA
HETATM   25  H   UNL     1      12.058  13.562  49.783  1.00  0.00     0.126 HD
HETATM   26  H   UNL     1      13.632  13.804  50.354  1.00  0.00     0.126 HD
ENDBRANCH  21  24
BRANCH   1  27
HETATM   27  C   UNL     1      11.132   9.541  55.737  1.00  0.00     0.061 C 
BRANCH  27  28
HETATM   28  C   UNL     1      11.831   9.965  57.030  1.00  0.00     0.002 C 
HETATM   29  C   UNL     1      12.745   8.895  57.611  1.00  0.00     0.005 C 
ENDBRANCH  27  28
ENDBRANCH   1  27
TORSDOF 3
ENDMDL
MODEL 5
REMARK VINA RESULT:      -7.0      2.064      5.145
REMARK  3 active torsions:
REMARK  status: ('A' for Active; 'I' for Inactive)
REMARK    1  A    between atoms: C_2  and  C_3 
REMARK    2  A    between atoms: C_3  and  C_4 
REMARK    3  A    between atoms: C_24  and  N_25 
ROOT
HETATM    1  C   UNL     1       5.366  33.671  62.249  1.00  0.00     0.067 A 
HETATM    2  N   UNL     1       5.665  33.312  63.511  1.00  0.00    -0.177 NA
HETATM    3  N   UNL     1       4.495  33.386  64.170  1.00  0.00    -0.256 N 
HETATM    4  H   UNL     1       4.471  33.143  65.154  1.00  0.00     0.191 HD
HETATM    5  C   UNL     1       3.470  33.773  63.373  1.00  0.00     0.176 A 
HETATM    6  C   UNL     1       3.989  33.993  62.120  1.00  0.00     0.049 A 
HETATM    7  C   UNL     1       3.070  34.409  61.023  1.00  0.00     0.145 A 
HETATM    8  C   UNL     1       3.134  33.412  59.832  1.00  0.00     0.246 A 
HETATM    9  O   UNL     1       2.798  32.239  59.817  1.00  0.00    -0.271 OA
HETATM   10  N   UNL     1       3.640  34.109  58.739  1.00  0.00    -0.325 N 
HETATM   11  C   UNL     1       3.922  35.429  59.063  1.00  0.00     0.043 A 
HETATM   12  C   UNL     1       3.621  35.685  60.410  1.00  0.00     0.003 A 
HETATM   13  C   UNL     1       4.425  36.385  58.207  1.00  0.00     0.030 A 
HETATM   14  C   UNL     1       4.633  37.660  58.728  1.00  0.00     0.003 A 
HETATM   15  C   UNL     1       4.332  37.945  60.072  1.00  0.00     0.007 A 
HETATM   16  C   UNL     1       3.812  36.964  60.936  1.00  0.00    -0.051 A 
HETATM   17  C   UNL     1       3.521  37.312  62.365  1.00  0.00     0.049 C 
HETATM   18  C   UNL     1       1.625  34.507  61.509  1.00  0.00     0.095 A 
HETATM   19  C   UNL     1       0.634  34.881  60.554  1.00  0.00     0.101 C 
HETATM   20  N   UNL     1      -0.174  35.170  59.772  1.00  0.00    -0.191 NA
HETATM   21  C   UNL     1       1.268  34.248  62.797  1.00  0.00     0.141 A 
HETATM   22  O   UNL     1       2.210  33.881  63.773  1.00  0.00    -0.279 OA
HETATM   23  H   UNL     1       3.764  33.687  57.830  1.00  0.00     0.169 HD
ENDROOT
BRANCH  21  24
HETATM   24  N   UNL     1      -0.013  34.314  63.301  1.00  0.00    -0.282 NA
HETATM   25  H   UNL     1      -0.589  35.066  62.929  1.00  0.00     0.126 HD
HETATM   26  H   UNL     1      -0.480  33.411  63.263  1.00  0.00     0.126 HD
ENDBRANCH  21  24
BRANCH   1  27
HETATM   27  C   UNL     1       6.446  33.636  61.215  1.00  0.00     0.061 C 
BRANCH  27  28
HETATM   28  C   UNL     1       7.235  32.327  61.163  1.00  0.00     0.002 C 
HETATM   29  C   UNL     1       8.599  32.460  60.502  1.00  0.00     0.005 C 
ENDBRANCH  27  28
ENDBRANCH   1  27
TORSDOF 3
ENDMDL
MODEL 6
REMARK VINA RESULT:      -7.0      2.133      5.125
REMARK  3 active torsions:
REMARK  status: ('A' for Active; 'I' for Inactive)
REMARK    1  A    between atoms: C_2  and  C_3 
REMARK    2  A    between atoms: C_3  and  C_4 
REMARK    3  A    between atoms: C_24  and  N_25 
ROOT
HETATM    1  C   UNL     1       7.303  32.803  62.040  1.00  0.00     0.067 A 
HETATM    2  N   UNL     1       8.435  32.714  62.761  1.00  0.00    -0.177 NA
HETATM    3  N   UNL     1       8.061  33.013  64.018  1.00  0.00    -0.256 N 
HETATM    4  H   UNL     1       8.758  32.996  64.754  1.00  0.00     0.191 HD
HETATM    5  C   UNL     1       6.737  33.281  64.118  1.00  0.00     0.176 A 
HETATM    6  C   UNL     1       6.204  33.183  62.856  1.00  0.00     0.049 A 
HETATM    7  C   UNL     1       4.742  33.406  62.672  1.00  0.00     0.145 A 
HETATM    8  C   UNL     1       4.064  32.168  62.021  1.00  0.00     0.246 A 
HETATM    9  O   UNL     1       3.945  31.047  62.488  1.00  0.00    -0.271 OA
HETATM   10  N   UNL     1       3.582  32.569  60.779  1.00  0.00    -0.325 N 
HETATM   11  C   UNL     1       3.862  33.905  60.530  1.00  0.00     0.043 A 
HETATM   12  C   UNL     1       4.563  34.474  61.606  1.00  0.00     0.003 A 
HETATM   13  C   UNL     1       3.515  34.611  59.399  1.00  0.00     0.030 A 
HETATM   14  C   UNL     1       3.886  35.952  59.345  1.00  0.00     0.003 A 
HETATM   15  C   UNL     1       4.581  36.548  60.412  1.00  0.00     0.007 A 
HETATM   16  C   UNL     1       4.925  35.822  61.567  1.00  0.00    -0.051 A 
HETATM   17  C   UNL     1       5.680  36.497  62.672  1.00  0.00     0.049 C 
HETATM   18  C   UNL     1       4.050  33.709  64.000  1.00  0.00     0.095 A 
HETATM   19  C   UNL     1       2.640  33.928  63.972  1.00  0.00     0.101 C 
HETATM   20  N   UNL     1       1.491  34.092  63.950  1.00  0.00    -0.191 NA
HETATM   21  C   UNL     1       4.726  33.767  65.180  1.00  0.00     0.141 A 
HETATM   22  O   UNL     1       6.113  33.562  65.255  1.00  0.00    -0.279 OA
HETATM   23  H   UNL     1       3.080  31.948  60.161  1.00  0.00     0.169 HD
ENDROOT
BRANCH  21  24
HETATM   24  N   UNL     1       4.166  34.031  66.411  1.00  0.00    -0.282 NA
HETATM   25  H   UNL     1       4.545  33.493  67.187  1.00  0.00     0.126 HD
HETATM   26  H   UNL     1       4.138  35.029  66.606  1.00  0.00     0.126 HD
ENDBRANCH  21  24
BRANCH   1  27
HETATM   27  C   UNL     1       7.347  32.466  60.584  1.00  0.00     0.061 C 
BRANCH  27  28
HETATM   28  C   UNL     1       8.738  32.113  60.055  1.00  0.00     0.002 C 
HETATM   29  C   UNL     1       8.936  30.625  59.801  1.00  0.00     0.005 C 
ENDBRANCH  27  28
ENDBRANCH   1  27
TORSDOF 3
ENDMDL
MODEL 7
REMARK VINA RESULT:      -6.3     12.450     15.378
REMARK  3 active torsions:
REMARK  status: ('A' for Active; 'I' for Inactive)
REMARK    1  A    between atoms: C_2  and  C_3 
REMARK    2  A    between atoms: C_3  and  C_4 
REMARK    3  A    between atoms: C_24  and  N_25 
ROOT
HETATM    1  C   UNL     1       2.938  27.282  47.834  1.00  0.00     0.067 A 
HETATM    2  N   UNL     1       3.883  26.395  47.471  1.00  0.00    -0.177 NA
HETATM    3  N   UNL     1       5.046  26.994  47.784  1.00  0.00    -0.256 N 
HETATM    4  H   UNL     1       5.914  26.500  47.609  1.00  0.00     0.191 HD
HETATM    5  C   UNL     1       4.871  28.220  48.333  1.00  0.00     0.176 A 
HETATM    6  C   UNL     1       3.520  28.464  48.365  1.00  0.00     0.049 A 
HETATM    7  C   UNL     1       3.032  29.745  48.950  1.00  0.00     0.145 A 
HETATM    8  C   UNL     1       2.048  29.485  50.124  1.00  0.00     0.246 A 
HETATM    9  O   UNL     1       2.286  28.958  51.199  1.00  0.00    -0.271 OA
HETATM   10  N   UNL     1       0.808  29.988  49.740  1.00  0.00    -0.325 N 
HETATM   11  C   UNL     1       0.853  30.535  48.465  1.00  0.00     0.043 A 
HETATM   12  C   UNL     1       2.142  30.420  47.920  1.00  0.00     0.003 A 
HETATM   13  C   UNL     1      -0.199  31.122  47.797  1.00  0.00     0.030 A 
HETATM   14  C   UNL     1       0.054  31.619  46.521  1.00  0.00     0.003 A 
HETATM   15  C   UNL     1       1.338  31.523  45.954  1.00  0.00     0.007 A 
HETATM   16  C   UNL     1       2.408  30.929  46.648  1.00  0.00    -0.051 A 
HETATM   17  C   UNL     1       3.756  30.836  45.997  1.00  0.00     0.049 C 
HETATM   18  C   UNL     1       4.190  30.607  49.455  1.00  0.00     0.095 A 
HETATM   19  C   UNL     1       3.863  31.858  50.055  1.00  0.00     0.101 C 
HETATM   20  N   UNL     1       3.596  32.870  50.558  1.00  0.00    -0.191 NA
HETATM   21  C   UNL     1       5.489  30.216  49.353  1.00  0.00     0.141 A 
HETATM   22  O   UNL     1       5.858  28.995  48.765  1.00  0.00    -0.279 OA
HETATM   23  H   UNL     1      -0.003  29.958  50.340  1.00  0.00     0.169 HD
ENDROOT
BRANCH  21  24
HETATM   24  N   UNL     1       6.578  30.940  49.788  1.00  0.00    -0.282 NA
HETATM   25  H   UNL     1       7.235  31.218  49.062  1.00  0.00     0.126 HD
HETATM   26  H   UNL     1       6.301  31.719  50.381  1.00  0.00     0.126 HD
ENDBRANCH  21  24
BRANCH   1  27
HETATM   27  C   UNL     1       1.499  26.905  47.681  1.00  0.00     0.061 C 
BRANCH  27  28
HETATM   28  C   UNL     1       0.882  27.282  46.333  1.00  0.00     0.002 C 
HETATM   29  C   UNL     1      -0.560  27.760  46.432  1.00  0.00     0.005 C 
ENDBRANCH  27  28
ENDBRANCH   1  27
TORSDOF 3
ENDMDL
MODEL 8
REMARK VINA RESULT:      -6.3     12.200     14.925
REMARK  3 active torsions:
REMARK  status: ('A' for Active; 'I' for Inactive)
REMARK    1  A    between atoms: C_2  and  C_3 
REMARK    2  A    between atoms: C_3  and  C_4 
REMARK    3  A    between atoms: C_24  and  N_25 
ROOT
HETATM    1  C   UNL     1       1.921  28.088  47.438  1.00  0.00     0.067 A 
HETATM    2  N   UNL     1       0.985  28.424  46.532  1.00  0.00    -0.177 NA
HETATM    3  N   UNL     1       1.295  29.683  46.176  1.00  0.00    -0.256 N 
HETATM    4  H   UNL     1       0.724  30.150  45.480  1.00  0.00     0.191 HD
HETATM    5  C   UNL     1       2.392  30.152  46.817  1.00  0.00     0.176 A 
HETATM    6  C   UNL     1       2.822  29.162  47.666  1.00  0.00     0.049 A 
HETATM    7  C   UNL     1       4.043  29.398  48.489  1.00  0.00     0.145 A 
HETATM    8  C   UNL     1       5.121  28.313  48.214  1.00  0.00     0.246 A 
HETATM    9  O   UNL     1       5.728  28.106  47.176  1.00  0.00    -0.271 OA
HETATM   10  N   UNL     1       5.300  27.603  49.398  1.00  0.00    -0.325 N 
HETATM   11  C   UNL     1       4.474  28.077  50.407  1.00  0.00     0.043 A 
HETATM   12  C   UNL     1       3.683  29.141  49.943  1.00  0.00     0.003 A 
HETATM   13  C   UNL     1       4.413  27.599  51.697  1.00  0.00     0.030 A 
HETATM   14  C   UNL     1       3.517  28.219  52.565  1.00  0.00     0.003 A 
HETATM   15  C   UNL     1       2.719  29.291  52.128  1.00  0.00     0.007 A 
HETATM   16  C   UNL     1       2.794  29.778  50.810  1.00  0.00    -0.051 A 
HETATM   17  C   UNL     1       1.912  30.914  50.386  1.00  0.00     0.049 C 
HETATM   18  C   UNL     1       4.645  30.776  48.215  1.00  0.00     0.095 A 
HETATM   19  C   UNL     1       5.830  31.128  48.926  1.00  0.00     0.101 C 
HETATM   20  N   UNL     1       6.803  31.408  49.494  1.00  0.00    -0.191 NA
HETATM   21  C   UNL     1       4.095  31.650  47.329  1.00  0.00     0.141 A 
HETATM   22  O   UNL     1       2.927  31.349  46.610  1.00  0.00    -0.279 OA
HETATM   23  H   UNL     1       5.966  26.850  49.487  1.00  0.00     0.169 HD
ENDROOT
BRANCH  21  24
HETATM   24  N   UNL     1       4.586  32.904  47.033  1.00  0.00    -0.282 NA
HETATM   25  H   UNL     1       5.598  32.966  46.948  1.00  0.00     0.126 HD
HETATM   26  H   UNL     1       4.102  33.320  46.241  1.00  0.00     0.126 HD
ENDBRANCH  21  24
BRANCH   1  27
HETATM   27  C   UNL     1       1.912  26.704  48.005  1.00  0.00     0.061 C 
BRANCH  27  28
HETATM   28  C   UNL     1       2.767  25.696  47.235  1.00  0.00     0.002 C 
HETATM   29  C   UNL     1       3.136  24.462  48.045  1.00  0.00     0.005 C 
ENDBRANCH  27  28
ENDBRANCH   1  27
TORSDOF 3
ENDMDL
MODEL 9
REMARK VINA RESULT:      -6.1     11.767     14.277
REMARK  3 active torsions:
REMARK  status: ('A' for Active; 'I' for Inactive)
REMARK    1  A    between atoms: C_2  and  C_3 
REMARK    2  A    between atoms: C_3  and  C_4 
REMARK    3  A    between atoms: C_24  and  N_25 
ROOT
HETATM    1  C   UNL     1       3.607  31.313  47.544  1.00  0.00     0.067 A 
HETATM    2  N   UNL     1       2.898  32.451  47.433  1.00  0.00    -0.177 NA
HETATM    3  N   UNL     1       2.432  32.681  48.673  1.00  0.00    -0.256 N 
HETATM    4  H   UNL     1       1.870  33.508  48.839  1.00  0.00     0.191 HD
HETATM    5  C   UNL     1       2.823  31.736  49.562  1.00  0.00     0.176 A 
HETATM    6  C   UNL     1       3.568  30.812  48.873  1.00  0.00     0.049 A 
HETATM    7  C   UNL     1       4.155  29.660  49.616  1.00  0.00     0.145 A 
HETATM    8  C   UNL     1       5.700  29.617  49.452  1.00  0.00     0.246 A 
HETATM    9  O   UNL     1       6.519  30.432  49.848  1.00  0.00    -0.271 OA
HETATM   10  N   UNL     1       6.008  28.445  48.769  1.00  0.00    -0.325 N 
HETATM   11  C   UNL     1       4.866  27.720  48.459  1.00  0.00     0.043 A 
HETATM   12  C   UNL     1       3.717  28.383  48.919  1.00  0.00     0.003 A 
HETATM   13  C   UNL     1       4.826  26.512  47.796  1.00  0.00     0.030 A 
HETATM   14  C   UNL     1       3.573  25.942  47.587  1.00  0.00     0.003 A 
HETATM   15  C   UNL     1       2.407  26.581  48.045  1.00  0.00     0.007 A 
HETATM   16  C   UNL     1       2.459  27.810  48.727  1.00  0.00    -0.051 A 
HETATM   17  C   UNL     1       1.187  28.461  49.183  1.00  0.00     0.049 C 
HETATM   18  C   UNL     1       3.816  29.724  51.105  1.00  0.00     0.095 A 
HETATM   19  C   UNL     1       4.330  28.688  51.940  1.00  0.00     0.101 C 
HETATM   20  N   UNL     1       4.761  27.853  52.621  1.00  0.00    -0.191 NA
HETATM   21  C   UNL     1       3.061  30.721  51.640  1.00  0.00     0.141 A 
HETATM   22  O   UNL     1       2.530  31.758  50.856  1.00  0.00    -0.279 OA
HETATM   23  H   UNL     1       6.956  28.172  48.552  1.00  0.00     0.169 HD
ENDROOT
BRANCH  21  24
HETATM   24  N   UNL     1       2.721  30.840  52.970  1.00  0.00    -0.282 NA
HETATM   25  H   UNL     1       3.237  31.546  53.490  1.00  0.00     0.126 HD
HETATM   26  H   UNL     1       1.715  30.923  53.096  1.00  0.00     0.126 HD
ENDBRANCH  21  24
BRANCH   1  27
HETATM   27  C   UNL     1       4.330  30.793  46.342  1.00  0.00     0.061 C 
BRANCH  27  28
HETATM   28  C   UNL     1       4.820  31.875  45.378  1.00  0.00     0.002 C 
HETATM   29  C   UNL     1       4.192  31.791  43.994  1.00  0.00     0.005 C 
ENDBRANCH  27  28
ENDBRANCH   1  27
TORSDOF 3
ENDMDL
MODEL 10
REMARK VINA RESULT:      -6.0     18.344     20.407
REMARK  3 active torsions:
REMARK  status: ('A' for Active; 'I' for Inactive)
REMARK    1  A    between atoms: C_2  and  C_3 
REMARK    2  A    between atoms: C_3  and  C_4 
REMARK    3  A    between atoms: C_24  and  N_25 
ROOT
HETATM    1  C   UNL     1      22.083  36.018  50.853  1.00  0.00     0.067 A 
HETATM    2  N   UNL     1      22.693  37.197  50.632  1.00  0.00    -0.177 NA
HETATM    3  N   UNL     1      21.922  37.810  49.717  1.00  0.00    -0.256 N 
HETATM    4  H   UNL     1      22.182  38.737  49.399  1.00  0.00     0.191 HD
HETATM    5  C   UNL     1      20.848  37.067  49.356  1.00  0.00     0.176 A 
HETATM    6  C   UNL     1      20.920  35.883  50.049  1.00  0.00     0.049 A 
HETATM    7  C   UNL     1      19.841  34.873  49.863  1.00  0.00     0.145 A 
HETATM    8  C   UNL     1      19.164  34.522  51.218  1.00  0.00     0.246 A 
HETATM    9  O   UNL     1      18.505  35.255  51.939  1.00  0.00    -0.271 OA
HETATM   10  N   UNL     1      19.428  33.180  51.474  1.00  0.00    -0.325 N 
HETATM   11  C   UNL     1      20.194  32.610  50.467  1.00  0.00     0.043 A 
HETATM   12  C   UNL     1      20.494  33.557  49.474  1.00  0.00     0.003 A 
HETATM   13  C   UNL     1      20.620  31.301  50.413  1.00  0.00     0.030 A 
HETATM   14  C   UNL     1      21.379  30.922  49.308  1.00  0.00     0.003 A 
HETATM   15  C   UNL     1      21.686  31.849  48.296  1.00  0.00     0.007 A 
HETATM   16  C   UNL     1      21.241  33.182  48.357  1.00  0.00    -0.051 A 
HETATM   17  C   UNL     1      21.606  34.138  47.260  1.00  0.00     0.049 C 
HETATM   18  C   UNL     1      18.772  35.367  48.889  1.00  0.00     0.095 A 
HETATM   19  C   UNL     1      17.667  34.503  48.631  1.00  0.00     0.101 C 
HETATM   20  N   UNL     1      16.761  33.805  48.434  1.00  0.00    -0.191 NA
HETATM   21  C   UNL     1      18.844  36.583  48.281  1.00  0.00     0.141 A 
HETATM   22  O   UNL     1      19.914  37.465  48.501  1.00  0.00    -0.279 OA
HETATM   23  H   UNL     1      19.079  32.701  52.291  1.00  0.00     0.169 HD
ENDROOT
BRANCH  21  24
HETATM   24  N   UNL     1      17.917  37.091  47.397  1.00  0.00    -0.282 NA
HETATM   25  H   UNL     1      17.819  38.104  47.404  1.00  0.00     0.126 HD
HETATM   26  H   UNL     1      18.046  36.719  46.460  1.00  0.00     0.126 HD
ENDBRANCH  21  24
BRANCH   1  27
HETATM   27  C   UNL     1      22.650  35.095  51.884  1.00  0.00     0.061 C 
BRANCH  27  28
HETATM   28  C   UNL     1      23.578  34.014  51.327  1.00  0.00     0.002 C 
HETATM   29  C   UNL     1      23.555  32.717  52.124  1.00  0.00     0.005 C 
ENDBRANCH  27  28
ENDBRANCH   1  27
TORSDOF 3
ENDMDL
