MODEL 1
REMARK VINA RESULT:     -11.2      0.000      0.000
REMARK  6 active torsions:
REMARK  status: ('A' for Active; 'I' for Inactive)
REMARK    1  A    between atoms: C_4  and  C_5 
REMARK    2  A    between atoms: N_6  and  C_7 
REMARK    3  A    between atoms: C_14  and  S_15 
REMARK    4  A    between atoms: S_15  and  C_16 
REMARK    5  A    between atoms: C_16  and  C_17 
REMARK       I    between atoms: C_17  and  N_18 
REMARK    6  A    between atoms: N_18  and  C_19 
ROOT
HETATM    1  C   UNL     1       7.746  25.819  56.315  1.00  0.00     0.169 A 
HETATM    2  N   UNL     1       7.034  26.986  56.020  1.00  0.00    -0.271 N 
HETATM    3  C   UNL     1       7.213  27.777  57.147  1.00  0.00     0.197 A 
HETATM    4  N   UNL     1       7.988  27.171  58.012  1.00  0.00    -0.122 NA
HETATM    5  N   UNL     1       8.337  25.962  57.489  1.00  0.00    -0.128 NA
ENDROOT
BRANCH   3   6
HETATM    6  S   UNL     1       6.709  29.432  57.320  1.00  0.00    -0.080 SA
BRANCH   6   7
HETATM    7  C   UNL     1       7.953  30.056  58.493  1.00  0.00     0.185 C 
BRANCH   7   8
HETATM    8  C   UNL     1       7.446  31.107  59.476  1.00  0.00     0.231 C 
HETATM    9  N   UNL     1       7.638  30.804  60.812  1.00  0.00    -0.326 N 
HETATM   10  H   UNL     1       8.055  29.899  60.997  1.00  0.00     0.169 HD
HETATM   11  O   UNL     1       6.998  32.169  59.046  1.00  0.00    -0.272 OA
BRANCH   9  12
HETATM   12  C   UNL     1       7.262  31.563  61.939  1.00  0.00     0.037 A 
HETATM   13  C   UNL     1       5.932  31.761  62.329  1.00  0.00     0.061 A 
HETATM   14  C   UNL     1       5.716  32.514  63.461  1.00  0.00     0.065 A 
HETATM   15  C   UNL     1       6.757  33.069  64.201  1.00  0.00     0.063 A 
HETATM   16  N   UNL     1       4.520  32.863  64.080  1.00  0.00    -0.306 N 
HETATM   17  N   UNL     1       6.204  33.758  65.273  1.00  0.00    -0.307 N 
HETATM   18  C   UNL     1       8.072  32.897  63.849  1.00  0.00     0.034 A 
HETATM   19  C   UNL     1       4.806  33.637  65.213  1.00  0.00     0.325 A 
HETATM   20  H   UNL     1       6.689  34.263  65.994  1.00  0.00     0.170 HD
HETATM   21  O   UNL     1       4.004  34.112  65.996  1.00  0.00    -0.247 OA
HETATM   22  C   UNL     1       8.318  32.131  62.701  1.00  0.00     0.032 A 
HETATM   23  H   UNL     1       3.590  32.608  63.789  1.00  0.00     0.170 HD
ENDBRANCH   9  12
ENDBRANCH   7   8
ENDBRANCH   6   7
ENDBRANCH   3   6
BRANCH   2  24
HETATM   24  C   UNL     1       6.336  27.298  54.818  1.00  0.00     0.043 A 
HETATM   25  C   UNL     1       6.983  27.975  53.774  1.00  0.00     0.032 A 
HETATM   26  C   UNL     1       6.287  28.286  52.602  1.00  0.00     0.026 A 
HETATM   27  C   UNL     1       4.948  27.923  52.470  1.00  0.00     0.034 A 
HETATM   28 CL   UNL     1       4.097  28.308  51.027  1.00  0.00    -0.084 Cl
HETATM   29  C   UNL     1       4.297  27.252  53.502  1.00  0.00     0.026 A 
HETATM   30  C   UNL     1       4.987  26.940  54.677  1.00  0.00     0.032 A 
ENDBRANCH   2  24
BRANCH   1  31
HETATM   31  C   UNL     1       7.800  24.580  55.536  1.00  0.00     0.012 A 
HETATM   32  C   UNL     1       7.638  23.350  56.192  1.00  0.00     0.015 A 
HETATM   33  C   UNL     1       7.664  22.152  55.476  1.00  0.00     0.001 A 
HETATM   34  C   UNL     1       7.843  22.170  54.094  1.00  0.00     0.000 A 
HETATM   35  C   UNL     1       7.983  23.384  53.427  1.00  0.00     0.001 A 
HETATM   36  C   UNL     1       7.954  24.585  54.142  1.00  0.00     0.015 A 
ENDBRANCH   1  31
TORSDOF 6
ENDMDL
MODEL 2
REMARK VINA RESULT:     -11.2      1.978      2.650
REMARK  6 active torsions:
REMARK  status: ('A' for Active; 'I' for Inactive)
REMARK    1  A    between atoms: C_4  and  C_5 
REMARK    2  A    between atoms: N_6  and  C_7 
REMARK    3  A    between atoms: C_14  and  S_15 
REMARK    4  A    between atoms: S_15  and  C_16 
REMARK    5  A    between atoms: C_16  and  C_17 
REMARK       I    between atoms: C_17  and  N_18 
REMARK    6  A    between atoms: N_18  and  C_19 
ROOT
HETATM    1  C   UNL     1       8.271  24.169  56.186  1.00  0.00     0.169 A 
HETATM    2  N   UNL     1       7.604  25.298  55.699  1.00  0.00    -0.271 N 
HETATM    3  C   UNL     1       7.795  26.249  56.693  1.00  0.00     0.197 A 
HETATM    4  N   UNL     1       8.536  25.762  57.656  1.00  0.00    -0.122 NA
HETATM    5  N   UNL     1       8.851  24.475  57.334  1.00  0.00    -0.128 NA
ENDROOT
BRANCH   3   6
HETATM    6  S   UNL     1       7.346  27.926  56.596  1.00  0.00    -0.080 SA
BRANCH   6   7
HETATM    7  C   UNL     1       8.977  28.730  56.674  1.00  0.00     0.185 C 
BRANCH   7   8
HETATM    8  C   UNL     1       9.113  29.818  57.735  1.00  0.00     0.231 C 
HETATM    9  N   UNL     1       8.163  29.780  58.741  1.00  0.00    -0.326 N 
HETATM   10  H   UNL     1       7.454  29.064  58.642  1.00  0.00     0.169 HD
HETATM   11  O   UNL     1      10.077  30.581  57.697  1.00  0.00    -0.272 OA
BRANCH   9  12
HETATM   12  C   UNL     1       8.022  30.657  59.836  1.00  0.00     0.037 A 
HETATM   13  C   UNL     1       7.016  31.626  59.926  1.00  0.00     0.061 A 
HETATM   14  C   UNL     1       6.992  32.401  61.063  1.00  0.00     0.065 A 
HETATM   15  C   UNL     1       7.920  32.251  62.091  1.00  0.00     0.063 A 
HETATM   16  N   UNL     1       6.116  33.420  61.425  1.00  0.00    -0.306 N 
HETATM   17  N   UNL     1       7.616  33.175  63.083  1.00  0.00    -0.307 N 
HETATM   18  C   UNL     1       8.920  31.314  62.037  1.00  0.00     0.034 A 
HETATM   19  C   UNL     1       6.489  33.912  62.684  1.00  0.00     0.325 A 
HETATM   20  H   UNL     1       8.093  33.317  63.957  1.00  0.00     0.170 HD
HETATM   21  O   UNL     1       5.946  34.803  63.311  1.00  0.00    -0.247 OA
HETATM   22  C   UNL     1       8.962  30.509  60.890  1.00  0.00     0.032 A 
HETATM   23  H   UNL     1       5.331  33.761  60.894  1.00  0.00     0.170 HD
ENDBRANCH   9  12
ENDBRANCH   7   8
ENDBRANCH   6   7
ENDBRANCH   3   6
BRANCH   2  24
HETATM   24  C   UNL     1       6.934  25.441  54.450  1.00  0.00     0.043 A 
HETATM   25  C   UNL     1       5.603  25.025  54.305  1.00  0.00     0.032 A 
HETATM   26  C   UNL     1       4.956  25.160  53.073  1.00  0.00     0.026 A 
HETATM   27  C   UNL     1       5.634  25.710  51.987  1.00  0.00     0.034 A 
HETATM   28 CL   UNL     1       4.834  25.873  50.474  1.00  0.00    -0.084 Cl
HETATM   29  C   UNL     1       6.957  26.123  52.120  1.00  0.00     0.026 A 
HETATM   30  C   UNL     1       7.610  25.988  53.350  1.00  0.00     0.032 A 
ENDBRANCH   2  24
BRANCH   1  31
HETATM   31  C   UNL     1       8.294  22.822  55.610  1.00  0.00     0.012 A 
HETATM   32  C   UNL     1       8.684  22.655  54.273  1.00  0.00     0.015 A 
HETATM   33  C   UNL     1       8.735  21.384  53.699  1.00  0.00     0.001 A 
HETATM   34  C   UNL     1       8.408  20.263  54.459  1.00  0.00     0.000 A 
HETATM   35  C   UNL     1       8.039  20.412  55.794  1.00  0.00     0.001 A 
HETATM   36  C   UNL     1       7.991  21.684  56.371  1.00  0.00     0.015 A 
ENDBRANCH   1  31
TORSDOF 6
ENDMDL
MODEL 3
REMARK VINA RESULT:     -10.6      5.540      8.068
REMARK  6 active torsions:
REMARK  status: ('A' for Active; 'I' for Inactive)
REMARK    1  A    between atoms: C_4  and  C_5 
REMARK    2  A    between atoms: N_6  and  C_7 
REMARK    3  A    between atoms: C_14  and  S_15 
REMARK    4  A    between atoms: S_15  and  C_16 
REMARK    5  A    between atoms: C_16  and  C_17 
REMARK       I    between atoms: C_17  and  N_18 
REMARK    6  A    between atoms: N_18  and  C_19 
ROOT
HETATM    1  C   UNL     1       8.290  24.034  56.179  1.00  0.00     0.169 A 
HETATM    2  N   UNL     1       7.619  25.159  55.688  1.00  0.00    -0.271 N 
HETATM    3  C   UNL     1       7.792  26.110  56.685  1.00  0.00     0.197 A 
HETATM    4  N   UNL     1       8.528  25.627  57.655  1.00  0.00    -0.122 NA
HETATM    5  N   UNL     1       8.855  24.343  57.334  1.00  0.00    -0.128 NA
ENDROOT
BRANCH   3   6
HETATM    6  S   UNL     1       7.332  27.784  56.585  1.00  0.00    -0.080 SA
BRANCH   6   7
HETATM    7  C   UNL     1       5.532  27.667  56.836  1.00  0.00     0.185 C 
BRANCH   7   8
HETATM    8  C   UNL     1       4.684  28.321  55.749  1.00  0.00     0.231 C 
HETATM    9  N   UNL     1       5.145  28.146  54.457  1.00  0.00    -0.326 N 
HETATM   10  H   UNL     1       6.019  27.642  54.372  1.00  0.00     0.169 HD
HETATM   11  O   UNL     1       3.624  28.865  56.058  1.00  0.00    -0.272 OA
BRANCH   9  12
HETATM   12  C   UNL     1       4.590  28.644  53.261  1.00  0.00     0.037 A 
HETATM   13  C   UNL     1       3.263  28.421  52.872  1.00  0.00     0.061 A 
HETATM   14  C   UNL     1       2.856  28.983  51.684  1.00  0.00     0.065 A 
HETATM   15  C   UNL     1       3.706  29.740  50.883  1.00  0.00     0.063 A 
HETATM   16  N   UNL     1       1.612  28.937  51.061  1.00  0.00    -0.306 N 
HETATM   17  N   UNL     1       2.989  30.160  49.769  1.00  0.00    -0.307 N 
HETATM   18  C   UNL     1       5.012  29.979  51.230  1.00  0.00     0.034 A 
HETATM   19  C   UNL     1       1.677  29.668  49.866  1.00  0.00     0.325 A 
HETATM   20  H   UNL     1       3.316  30.727  49.006  1.00  0.00     0.170 HD
HETATM   21  O   UNL     1       0.776  29.845  49.067  1.00  0.00    -0.247 OA
HETATM   22  C   UNL     1       5.450  29.420  52.439  1.00  0.00     0.032 A 
HETATM   23  H   UNL     1       0.784  28.470  51.395  1.00  0.00     0.170 HD
ENDBRANCH   9  12
ENDBRANCH   7   8
ENDBRANCH   6   7
ENDBRANCH   3   6
BRANCH   2  24
HETATM   24  C   UNL     1       6.960  25.299  54.432  1.00  0.00     0.043 A 
HETATM   25  C   UNL     1       5.646  24.841  54.264  1.00  0.00     0.032 A 
HETATM   26  C   UNL     1       5.010  24.974  53.025  1.00  0.00     0.026 A 
HETATM   27  C   UNL     1       5.683  25.562  51.956  1.00  0.00     0.034 A 
HETATM   28 CL   UNL     1       4.898  25.721  50.435  1.00  0.00    -0.084 Cl
HETATM   29  C   UNL     1       6.990  26.017  52.114  1.00  0.00     0.026 A 
HETATM   30  C   UNL     1       7.631  25.885  53.349  1.00  0.00     0.032 A 
ENDBRANCH   2  24
BRANCH   1  31
HETATM   31  C   UNL     1       8.328  22.689  55.602  1.00  0.00     0.012 A 
HETATM   32  C   UNL     1       8.705  22.529  54.260  1.00  0.00     0.015 A 
HETATM   33  C   UNL     1       8.771  21.259  53.685  1.00  0.00     0.001 A 
HETATM   34  C   UNL     1       8.471  20.133  54.448  1.00  0.00     0.000 A 
HETATM   35  C   UNL     1       8.116  20.274  55.787  1.00  0.00     0.001 A 
HETATM   36  C   UNL     1       8.053  21.545  56.366  1.00  0.00     0.015 A 
ENDBRANCH   1  31
TORSDOF 6
ENDMDL
MODEL 4
REMARK VINA RESULT:     -10.2      3.429      3.770
REMARK  6 active torsions:
REMARK  status: ('A' for Active; 'I' for Inactive)
REMARK    1  A    between atoms: C_4  and  C_5 
REMARK    2  A    between atoms: N_6  and  C_7 
REMARK    3  A    between atoms: C_14  and  S_15 
REMARK    4  A    between atoms: S_15  and  C_16 
REMARK    5  A    between atoms: C_16  and  C_17 
REMARK       I    between atoms: C_17  and  N_18 
REMARK    6  A    between atoms: N_18  and  C_19 
ROOT
HETATM    1  C   UNL     1       8.291  24.172  56.079  1.00  0.00     0.169 A 
HETATM    2  N   UNL     1       7.592  25.283  55.596  1.00  0.00    -0.271 N 
HETATM    3  C   UNL     1       7.761  26.239  56.589  1.00  0.00     0.197 A 
HETATM    4  N   UNL     1       8.521  25.771  57.549  1.00  0.00    -0.122 NA
HETATM    5  N   UNL     1       8.868  24.494  57.224  1.00  0.00    -0.128 NA
ENDROOT
BRANCH   3   6
HETATM    6  S   UNL     1       7.267  27.903  56.496  1.00  0.00    -0.080 SA
BRANCH   6   7
HETATM    7  C   UNL     1       5.497  27.766  56.899  1.00  0.00     0.185 C 
BRANCH   7   8
HETATM    8  C   UNL     1       4.752  29.093  57.005  1.00  0.00     0.231 C 
HETATM    9  N   UNL     1       5.214  29.950  57.988  1.00  0.00    -0.326 N 
HETATM   10  H   UNL     1       5.966  29.589  58.561  1.00  0.00     0.169 HD
HETATM   11  O   UNL     1       3.878  29.362  56.181  1.00  0.00    -0.272 OA
BRANCH   9  12
HETATM   12  C   UNL     1       4.719  31.224  58.333  1.00  0.00     0.037 A 
HETATM   13  C   UNL     1       3.795  31.443  59.362  1.00  0.00     0.061 A 
HETATM   14  C   UNL     1       3.413  32.744  59.595  1.00  0.00     0.065 A 
HETATM   15  C   UNL     1       3.905  33.814  58.851  1.00  0.00     0.063 A 
HETATM   16  N   UNL     1       2.531  33.254  60.543  1.00  0.00    -0.306 N 
HETATM   17  N   UNL     1       3.328  34.980  59.340  1.00  0.00    -0.307 N 
HETATM   18  C   UNL     1       4.810  33.638  57.835  1.00  0.00     0.034 A 
HETATM   19  C   UNL     1       2.468  34.647  60.399  1.00  0.00     0.325 A 
HETATM   20  H   UNL     1       3.481  35.921  59.021  1.00  0.00     0.170 HD
HETATM   21  O   UNL     1       1.801  35.422  61.061  1.00  0.00    -0.247 OA
HETATM   22  C   UNL     1       5.218  32.322  57.581  1.00  0.00     0.032 A 
HETATM   23  H   UNL     1       2.017  32.733  61.235  1.00  0.00     0.170 HD
ENDBRANCH   9  12
ENDBRANCH   7   8
ENDBRANCH   6   7
ENDBRANCH   3   6
BRANCH   2  24
HETATM   24  C   UNL     1       6.911  25.409  54.351  1.00  0.00     0.043 A 
HETATM   25  C   UNL     1       5.560  25.050  54.239  1.00  0.00     0.032 A 
HETATM   26  C   UNL     1       4.903  25.167  53.010  1.00  0.00     0.026 A 
HETATM   27  C   UNL     1       5.590  25.642  51.895  1.00  0.00     0.034 A 
HETATM   28 CL   UNL     1       4.778  25.783  50.386  1.00  0.00    -0.084 Cl
HETATM   29  C   UNL     1       6.933  25.998  51.996  1.00  0.00     0.026 A 
HETATM   30  C   UNL     1       7.595  25.881  53.222  1.00  0.00     0.032 A 
ENDBRANCH   2  24
BRANCH   1  31
HETATM   31  C   UNL     1       8.346  22.827  55.502  1.00  0.00     0.012 A 
HETATM   32  C   UNL     1       8.063  21.721  56.317  1.00  0.00     0.015 A 
HETATM   33  C   UNL     1       8.087  20.426  55.794  1.00  0.00     0.001 A 
HETATM   34  C   UNL     1       8.384  20.225  54.448  1.00  0.00     0.000 A 
HETATM   35  C   UNL     1       8.646  21.315  53.623  1.00  0.00     0.001 A 
HETATM   36  C   UNL     1       8.619  22.612  54.144  1.00  0.00     0.015 A 
ENDBRANCH   1  31
TORSDOF 6
ENDMDL
MODEL 5
REMARK VINA RESULT:     -10.1      6.590     11.148
REMARK  6 active torsions:
REMARK  status: ('A' for Active; 'I' for Inactive)
REMARK    1  A    between atoms: C_4  and  C_5 
REMARK    2  A    between atoms: N_6  and  C_7 
REMARK    3  A    between atoms: C_14  and  S_15 
REMARK    4  A    between atoms: S_15  and  C_16 
REMARK    5  A    between atoms: C_16  and  C_17 
REMARK       I    between atoms: C_17  and  N_18 
REMARK    6  A    between atoms: N_18  and  C_19 
ROOT
HETATM    1  C   UNL     1       6.007  24.999  53.696  1.00  0.00     0.169 A 
HETATM    2  N   UNL     1       5.954  26.370  53.964  1.00  0.00    -0.271 N 
HETATM    3  C   UNL     1       4.882  26.816  53.202  1.00  0.00     0.197 A 
HETATM    4  N   UNL     1       4.318  25.814  52.575  1.00  0.00    -0.122 NA
HETATM    5  N   UNL     1       5.003  24.680  52.896  1.00  0.00    -0.128 NA
ENDROOT
BRANCH   3   6
HETATM    6  S   UNL     1       4.201  28.415  53.242  1.00  0.00    -0.080 SA
BRANCH   6   7
HETATM    7  C   UNL     1       5.147  29.232  51.917  1.00  0.00     0.185 C 
BRANCH   7   8
HETATM    8  C   UNL     1       4.684  28.911  50.499  1.00  0.00     0.231 C 
HETATM    9  N   UNL     1       3.428  28.340  50.405  1.00  0.00    -0.326 N 
HETATM   10  H   UNL     1       2.968  28.154  51.287  1.00  0.00     0.169 HD
HETATM   11  O   UNL     1       5.383  29.252  49.545  1.00  0.00    -0.272 OA
BRANCH   9  12
HETATM   12  C   UNL     1       2.749  27.921  49.243  1.00  0.00     0.037 A 
HETATM   13  C   UNL     1       1.604  28.555  48.744  1.00  0.00     0.061 A 
HETATM   14  C   UNL     1       1.057  28.044  47.590  1.00  0.00     0.065 A 
HETATM   15  C   UNL     1       1.595  26.942  46.930  1.00  0.00     0.063 A 
HETATM   16  N   UNL     1      -0.057  28.468  46.872  1.00  0.00    -0.306 N 
HETATM   17  N   UNL     1       0.815  26.689  45.808  1.00  0.00    -0.307 N 
HETATM   18  C   UNL     1       2.714  26.294  47.388  1.00  0.00     0.034 A 
HETATM   19  C   UNL     1      -0.220  27.635  45.756  1.00  0.00     0.325 A 
HETATM   20  H   UNL     1       0.943  25.965  45.122  1.00  0.00     0.170 HD
HETATM   21  O   UNL     1      -1.088  27.713  44.906  1.00  0.00    -0.247 OA
HETATM   22  C   UNL     1       3.293  26.799  48.561  1.00  0.00     0.032 A 
HETATM   23  H   UNL     1      -0.658  29.246  47.091  1.00  0.00     0.170 HD
ENDBRANCH   9  12
ENDBRANCH   7   8
ENDBRANCH   6   7
ENDBRANCH   3   6
BRANCH   2  24
HETATM   24  C   UNL     1       6.781  27.115  54.854  1.00  0.00     0.043 A 
HETATM   25  C   UNL     1       6.609  27.008  56.242  1.00  0.00     0.032 A 
HETATM   26  C   UNL     1       7.419  27.750  57.108  1.00  0.00     0.026 A 
HETATM   27  C   UNL     1       8.398  28.596  56.592  1.00  0.00     0.034 A 
HETATM   28 CL   UNL     1       9.391  29.506  57.660  1.00  0.00    -0.084 Cl
HETATM   29  C   UNL     1       8.575  28.709  55.215  1.00  0.00     0.026 A 
HETATM   30  C   UNL     1       7.767  27.972  54.345  1.00  0.00     0.032 A 
ENDBRANCH   2  24
BRANCH   1  31
HETATM   31  C   UNL     1       7.024  24.038  54.129  1.00  0.00     0.012 A 
HETATM   32  C   UNL     1       7.089  23.673  55.482  1.00  0.00     0.015 A 
HETATM   33  C   UNL     1       8.034  22.745  55.925  1.00  0.00     0.001 A 
HETATM   34  C   UNL     1       8.916  22.163  55.017  1.00  0.00     0.000 A 
HETATM   35  C   UNL     1       8.849  22.500  53.668  1.00  0.00     0.001 A 
HETATM   36  C   UNL     1       7.901  23.426  53.222  1.00  0.00     0.015 A 
ENDBRANCH   1  31
TORSDOF 6
ENDMDL
MODEL 6
REMARK VINA RESULT:      -9.8      3.025      5.395
REMARK  6 active torsions:
REMARK  status: ('A' for Active; 'I' for Inactive)
REMARK    1  A    between atoms: C_4  and  C_5 
REMARK    2  A    between atoms: N_6  and  C_7 
REMARK    3  A    between atoms: C_14  and  S_15 
REMARK    4  A    between atoms: S_15  and  C_16 
REMARK    5  A    between atoms: C_16  and  C_17 
REMARK       I    between atoms: C_17  and  N_18 
REMARK    6  A    between atoms: N_18  and  C_19 
ROOT
HETATM    1  C   UNL     1       5.609  31.815  57.423  1.00  0.00     0.169 A 
HETATM    2  N   UNL     1       6.505  30.756  57.605  1.00  0.00    -0.271 N 
HETATM    3  C   UNL     1       7.345  31.203  58.617  1.00  0.00     0.197 A 
HETATM    4  N   UNL     1       6.969  32.386  59.034  1.00  0.00    -0.122 NA
HETATM    5  N   UNL     1       5.878  32.760  58.307  1.00  0.00    -0.128 NA
ENDROOT
BRANCH   3   6
HETATM    6  S   UNL     1       8.568  30.259  59.414  1.00  0.00    -0.080 SA
BRANCH   6   7
HETATM    7  C   UNL     1       9.209  31.464  60.619  1.00  0.00     0.185 C 
BRANCH   7   8
HETATM    8  C   UNL     1       8.456  31.516  61.946  1.00  0.00     0.231 C 
HETATM    9  N   UNL     1       7.752  32.684  62.177  1.00  0.00    -0.326 N 
HETATM   10  H   UNL     1       7.847  33.396  61.464  1.00  0.00     0.169 HD
HETATM   11  O   UNL     1       8.436  30.519  62.667  1.00  0.00    -0.272 OA
BRANCH   9  12
HETATM   12  C   UNL     1       6.986  33.026  63.310  1.00  0.00     0.037 A 
HETATM   13  C   UNL     1       7.545  33.412  64.534  1.00  0.00     0.061 A 
HETATM   14  C   UNL     1       6.672  33.733  65.549  1.00  0.00     0.065 A 
HETATM   15  C   UNL     1       5.289  33.681  65.391  1.00  0.00     0.063 A 
HETATM   16  N   UNL     1       6.937  34.152  66.849  1.00  0.00    -0.306 N 
HETATM   17  N   UNL     1       4.705  34.066  66.591  1.00  0.00    -0.307 N 
HETATM   18  C   UNL     1       4.706  33.307  64.207  1.00  0.00     0.034 A 
HETATM   19  C   UNL     1       5.721  34.366  67.512  1.00  0.00     0.325 A 
HETATM   20  H   UNL     1       3.724  34.138  66.801  1.00  0.00     0.170 HD
HETATM   21  O   UNL     1       5.570  34.741  68.661  1.00  0.00    -0.247 OA
HETATM   22  C   UNL     1       5.574  32.978  63.158  1.00  0.00     0.032 A 
HETATM   23  H   UNL     1       7.843  34.294  67.267  1.00  0.00     0.170 HD
ENDBRANCH   9  12
ENDBRANCH   7   8
ENDBRANCH   6   7
ENDBRANCH   3   6
BRANCH   2  24
HETATM   24  C   UNL     1       6.511  29.497  56.937  1.00  0.00     0.043 A 
HETATM   25  C   UNL     1       7.394  29.260  55.874  1.00  0.00     0.032 A 
HETATM   26  C   UNL     1       7.386  28.025  55.218  1.00  0.00     0.026 A 
HETATM   27  C   UNL     1       6.500  27.028  55.621  1.00  0.00     0.034 A 
HETATM   28 CL   UNL     1       6.494  25.512  54.810  1.00  0.00    -0.084 Cl
HETATM   29  C   UNL     1       5.618  27.256  56.674  1.00  0.00     0.026 A 
HETATM   30  C   UNL     1       5.620  28.489  57.332  1.00  0.00     0.032 A 
ENDBRANCH   2  24
BRANCH   1  31
HETATM   31  C   UNL     1       4.578  31.951  56.391  1.00  0.00     0.012 A 
HETATM   32  C   UNL     1       4.898  32.589  55.183  1.00  0.00     0.015 A 
HETATM   33  C   UNL     1       3.945  32.717  54.171  1.00  0.00     0.001 A 
HETATM   34  C   UNL     1       2.664  32.200  54.352  1.00  0.00     0.000 A 
HETATM   35  C   UNL     1       2.339  31.545  55.538  1.00  0.00     0.001 A 
HETATM   36  C   UNL     1       3.293  31.413  56.550  1.00  0.00     0.015 A 
ENDBRANCH   1  31
TORSDOF 6
ENDMDL
MODEL 7
REMARK VINA RESULT:      -9.7      3.504      4.815
REMARK  6 active torsions:
REMARK  status: ('A' for Active; 'I' for Inactive)
REMARK    1  A    between atoms: C_4  and  C_5 
REMARK    2  A    between atoms: N_6  and  C_7 
REMARK    3  A    between atoms: C_14  and  S_15 
REMARK    4  A    between atoms: S_15  and  C_16 
REMARK    5  A    between atoms: C_16  and  C_17 
REMARK       I    between atoms: C_17  and  N_18 
REMARK    6  A    between atoms: N_18  and  C_19 
ROOT
HETATM    1  C   UNL     1       6.230  25.456  52.899  1.00  0.00     0.169 A 
HETATM    2  N   UNL     1       6.232  26.813  53.240  1.00  0.00    -0.271 N 
HETATM    3  C   UNL     1       5.477  27.407  52.238  1.00  0.00     0.197 A 
HETATM    4  N   UNL     1       5.027  26.502  51.405  1.00  0.00    -0.122 NA
HETATM    5  N   UNL     1       5.477  25.286  51.825  1.00  0.00    -0.128 NA
ENDROOT
BRANCH   3   6
HETATM    6  S   UNL     1       4.969  29.070  52.197  1.00  0.00    -0.080 SA
BRANCH   6   7
HETATM    7  C   UNL     1       3.612  29.051  53.411  1.00  0.00     0.185 C 
BRANCH   7   8
HETATM    8  C   UNL     1       3.688  30.132  54.485  1.00  0.00     0.231 C 
HETATM    9  N   UNL     1       4.135  29.702  55.722  1.00  0.00    -0.326 N 
HETATM   10  H   UNL     1       4.320  28.709  55.796  1.00  0.00     0.169 HD
HETATM   11  O   UNL     1       3.452  31.301  54.182  1.00  0.00    -0.272 OA
BRANCH   9  12
HETATM   12  C   UNL     1       4.290  30.459  56.901  1.00  0.00     0.037 A 
HETATM   13  C   UNL     1       3.398  30.404  57.979  1.00  0.00     0.061 A 
HETATM   14  C   UNL     1       3.686  31.189  59.072  1.00  0.00     0.065 A 
HETATM   15  C   UNL     1       4.808  32.013  59.127  1.00  0.00     0.063 A 
HETATM   16  N   UNL     1       2.995  31.329  60.271  1.00  0.00    -0.306 N 
HETATM   17  N   UNL     1       4.807  32.659  60.357  1.00  0.00    -0.307 N 
HETATM   18  C   UNL     1       5.703  32.094  58.090  1.00  0.00     0.034 A 
HETATM   19  C   UNL     1       3.682  32.241  61.085  1.00  0.00     0.325 A 
HETATM   20  H   UNL     1       5.484  33.316  60.706  1.00  0.00     0.170 HD
HETATM   21  O   UNL     1       3.369  32.602  62.205  1.00  0.00    -0.247 OA
HETATM   22  C   UNL     1       5.433  31.300  56.967  1.00  0.00     0.032 A 
HETATM   23  H   UNL     1       2.146  30.859  60.539  1.00  0.00     0.170 HD
ENDBRANCH   9  12
ENDBRANCH   7   8
ENDBRANCH   6   7
ENDBRANCH   3   6
BRANCH   2  24
HETATM   24  C   UNL     1       6.830  27.422  54.381  1.00  0.00     0.043 A 
HETATM   25  C   UNL     1       7.964  28.235  54.241  1.00  0.00     0.032 A 
HETATM   26  C   UNL     1       8.550  28.821  55.367  1.00  0.00     0.026 A 
HETATM   27  C   UNL     1       8.008  28.597  56.631  1.00  0.00     0.034 A 
HETATM   28 CL   UNL     1       8.733  29.319  58.012  1.00  0.00    -0.084 Cl
HETATM   29  C   UNL     1       6.883  27.789  56.780  1.00  0.00     0.026 A 
HETATM   30  C   UNL     1       6.294  27.199  55.657  1.00  0.00     0.032 A 
ENDBRANCH   2  24
BRANCH   1  31
HETATM   31  C   UNL     1       6.980  24.370  53.533  1.00  0.00     0.012 A 
HETATM   32  C   UNL     1       6.701  24.032  54.866  1.00  0.00     0.015 A 
HETATM   33  C   UNL     1       7.384  22.989  55.495  1.00  0.00     0.001 A 
HETATM   34  C   UNL     1       8.346  22.265  54.794  1.00  0.00     0.000 A 
HETATM   35  C   UNL     1       8.619  22.576  53.464  1.00  0.00     0.001 A 
HETATM   36  C   UNL     1       7.933  23.618  52.832  1.00  0.00     0.015 A 
ENDBRANCH   1  31
TORSDOF 6
ENDMDL
MODEL 8
REMARK VINA RESULT:      -9.7      2.699      3.617
REMARK  6 active torsions:
REMARK  status: ('A' for Active; 'I' for Inactive)
REMARK    1  A    between atoms: C_4  and  C_5 
REMARK    2  A    between atoms: N_6  and  C_7 
REMARK    3  A    between atoms: C_14  and  S_15 
REMARK    4  A    between atoms: S_15  and  C_16 
REMARK    5  A    between atoms: C_16  and  C_17 
REMARK       I    between atoms: C_17  and  N_18 
REMARK    6  A    between atoms: N_18  and  C_19 
ROOT
HETATM    1  C   UNL     1       7.434  28.470  57.062  1.00  0.00     0.169 A 
HETATM    2  N   UNL     1       6.780  29.627  57.497  1.00  0.00    -0.271 N 
HETATM    3  C   UNL     1       7.597  30.106  58.513  1.00  0.00     0.197 A 
HETATM    4  N   UNL     1       8.655  29.345  58.647  1.00  0.00    -0.122 NA
HETATM    5  N   UNL     1       8.566  28.339  57.732  1.00  0.00    -0.128 NA
ENDROOT
BRANCH   3   6
HETATM    6  S   UNL     1       7.409  31.625  59.339  1.00  0.00    -0.080 SA
BRANCH   6   7
HETATM    7  C   UNL     1       8.650  31.460  60.661  1.00  0.00     0.185 C 
BRANCH   7   8
HETATM    8  C   UNL     1       8.107  31.602  62.080  1.00  0.00     0.231 C 
HETATM    9  N   UNL     1       7.263  32.679  62.282  1.00  0.00    -0.326 N 
HETATM   10  H   UNL     1       7.129  33.283  61.480  1.00  0.00     0.169 HD
HETATM   11  O   UNL     1       8.361  30.732  62.913  1.00  0.00    -0.272 OA
BRANCH   9  12
HETATM   12  C   UNL     1       6.630  33.075  63.477  1.00  0.00     0.037 A 
HETATM   13  C   UNL     1       7.323  33.400  64.649  1.00  0.00     0.061 A 
HETATM   14  C   UNL     1       6.572  33.785  65.736  1.00  0.00     0.065 A 
HETATM   15  C   UNL     1       5.182  33.852  65.700  1.00  0.00     0.063 A 
HETATM   16  N   UNL     1       6.984  34.168  67.009  1.00  0.00    -0.306 N 
HETATM   17  N   UNL     1       4.738  34.275  66.947  1.00  0.00    -0.307 N 
HETATM   18  C   UNL     1       4.468  33.540  64.570  1.00  0.00     0.034 A 
HETATM   19  C   UNL     1       5.853  34.479  67.776  1.00  0.00     0.325 A 
HETATM   20  H   UNL     1       3.789  34.428  67.241  1.00  0.00     0.170 HD
HETATM   21  O   UNL     1       5.834  34.854  68.934  1.00  0.00    -0.247 OA
HETATM   22  C   UNL     1       5.211  33.149  63.448  1.00  0.00     0.032 A 
HETATM   23  H   UNL     1       7.931  34.228  67.347  1.00  0.00     0.170 HD
ENDBRANCH   9  12
ENDBRANCH   7   8
ENDBRANCH   6   7
ENDBRANCH   3   6
BRANCH   2  24
HETATM   24  C   UNL     1       5.583  30.198  56.977  1.00  0.00     0.043 A 
HETATM   25  C   UNL     1       4.340  29.888  57.547  1.00  0.00     0.032 A 
HETATM   26  C   UNL     1       3.170  30.446  57.023  1.00  0.00     0.026 A 
HETATM   27  C   UNL     1       3.238  31.311  55.933  1.00  0.00     0.034 A 
HETATM   28 CL   UNL     1       1.795  31.993  55.293  1.00  0.00    -0.084 Cl
HETATM   29  C   UNL     1       4.467  31.623  55.359  1.00  0.00     0.026 A 
HETATM   30  C   UNL     1       5.641  31.067  55.878  1.00  0.00     0.032 A 
ENDBRANCH   2  24
BRANCH   1  31
HETATM   31  C   UNL     1       6.958  27.482  56.090  1.00  0.00     0.012 A 
HETATM   32  C   UNL     1       6.016  26.524  56.493  1.00  0.00     0.015 A 
HETATM   33  C   UNL     1       5.527  25.581  55.587  1.00  0.00     0.001 A 
HETATM   34  C   UNL     1       5.966  25.593  54.264  1.00  0.00     0.000 A 
HETATM   35  C   UNL     1       6.885  26.553  53.845  1.00  0.00     0.001 A 
HETATM   36  C   UNL     1       7.373  27.499  54.751  1.00  0.00     0.015 A 
ENDBRANCH   1  31
TORSDOF 6
ENDMDL
MODEL 9
REMARK VINA RESULT:      -9.6      5.261      9.646
REMARK  6 active torsions:
REMARK  status: ('A' for Active; 'I' for Inactive)
REMARK    1  A    between atoms: C_4  and  C_5 
REMARK    2  A    between atoms: N_6  and  C_7 
REMARK    3  A    between atoms: C_14  and  S_15 
REMARK    4  A    between atoms: S_15  and  C_16 
REMARK    5  A    between atoms: C_16  and  C_17 
REMARK       I    between atoms: C_17  and  N_18 
REMARK    6  A    between atoms: N_18  and  C_19 
ROOT
HETATM    1  C   UNL     1       6.092  26.947  56.176  1.00  0.00     0.169 A 
HETATM    2  N   UNL     1       6.400  28.304  56.314  1.00  0.00    -0.271 N 
HETATM    3  C   UNL     1       5.188  28.943  56.089  1.00  0.00     0.197 A 
HETATM    4  N   UNL     1       4.239  28.065  55.883  1.00  0.00    -0.122 NA
HETATM    5  N   UNL     1       4.794  26.822  55.957  1.00  0.00    -0.128 NA
ENDROOT
BRANCH   3   6
HETATM    6  S   UNL     1       4.881  30.643  56.291  1.00  0.00    -0.080 SA
BRANCH   6   7
HETATM    7  C   UNL     1       3.404  30.858  55.249  1.00  0.00     0.185 C 
BRANCH   7   8
HETATM    8  C   UNL     1       3.636  30.677  53.752  1.00  0.00     0.231 C 
HETATM    9  N   UNL     1       3.191  29.476  53.228  1.00  0.00    -0.326 N 
HETATM   10  H   UNL     1       2.799  28.828  53.901  1.00  0.00     0.169 HD
HETATM   11  O   UNL     1       4.100  31.609  53.096  1.00  0.00    -0.272 OA
BRANCH   9  12
HETATM   12  C   UNL     1       3.282  29.021  51.898  1.00  0.00     0.037 A 
HETATM   13  C   UNL     1       4.403  28.359  51.381  1.00  0.00     0.061 A 
HETATM   14  C   UNL     1       4.344  27.958  50.066  1.00  0.00     0.065 A 
HETATM   15  C   UNL     1       3.232  28.191  49.262  1.00  0.00     0.063 A 
HETATM   16  N   UNL     1       5.290  27.283  49.301  1.00  0.00    -0.306 N 
HETATM   17  N   UNL     1       3.493  27.662  48.004  1.00  0.00    -0.307 N 
HETATM   18  C   UNL     1       2.117  28.837  49.732  1.00  0.00     0.034 A 
HETATM   19  C   UNL     1       4.774  27.088  48.012  1.00  0.00     0.325 A 
HETATM   20  H   UNL     1       2.888  27.662  47.200  1.00  0.00     0.170 HD
HETATM   21  O   UNL     1       5.324  26.531  47.080  1.00  0.00    -0.247 OA
HETATM   22  C   UNL     1       2.151  29.252  51.070  1.00  0.00     0.032 A 
HETATM   23  H   UNL     1       6.199  26.968  49.601  1.00  0.00     0.170 HD
ENDBRANCH   9  12
ENDBRANCH   7   8
ENDBRANCH   6   7
ENDBRANCH   3   6
BRANCH   2  24
HETATM   24  C   UNL     1       7.658  28.880  56.656  1.00  0.00     0.043 A 
HETATM   25  C   UNL     1       8.653  29.047  55.682  1.00  0.00     0.032 A 
HETATM   26  C   UNL     1       9.888  29.604  56.029  1.00  0.00     0.026 A 
HETATM   27  C   UNL     1      10.130  29.995  57.344  1.00  0.00     0.034 A 
HETATM   28 CL   UNL     1      11.650  30.679  57.765  1.00  0.00    -0.084 Cl
HETATM   29  C   UNL     1       9.149  29.832  58.318  1.00  0.00     0.026 A 
HETATM   30  C   UNL     1       7.913  29.273  57.978  1.00  0.00     0.032 A 
ENDBRANCH   2  24
BRANCH   1  31
HETATM   31  C   UNL     1       7.018  25.811  56.181  1.00  0.00     0.012 A 
HETATM   32  C   UNL     1       7.772  25.548  57.334  1.00  0.00     0.015 A 
HETATM   33  C   UNL     1       8.648  24.462  57.380  1.00  0.00     0.001 A 
HETATM   34  C   UNL     1       8.772  23.621  56.275  1.00  0.00     0.000 A 
HETATM   35  C   UNL     1       8.014  23.858  55.131  1.00  0.00     0.001 A 
HETATM   36  C   UNL     1       7.134  24.943  55.086  1.00  0.00     0.015 A 
ENDBRANCH   1  31
TORSDOF 6
ENDMDL
MODEL 10
REMARK VINA RESULT:      -9.6      4.379      9.788
REMARK  6 active torsions:
REMARK  status: ('A' for Active; 'I' for Inactive)
REMARK    1  A    between atoms: C_4  and  C_5 
REMARK    2  A    between atoms: N_6  and  C_7 
REMARK    3  A    between atoms: C_14  and  S_15 
REMARK    4  A    between atoms: S_15  and  C_16 
REMARK    5  A    between atoms: C_16  and  C_17 
REMARK       I    between atoms: C_17  and  N_18 
REMARK    6  A    between atoms: N_18  and  C_19 
ROOT
HETATM    1  C   UNL     1       7.263  29.528  58.138  1.00  0.00     0.169 A 
HETATM    2  N   UNL     1       6.082  29.808  57.443  1.00  0.00    -0.271 N 
HETATM    3  C   UNL     1       5.760  28.601  56.836  1.00  0.00     0.197 A 
HETATM    4  N   UNL     1       6.629  27.678  57.166  1.00  0.00    -0.122 NA
HETATM    5  N   UNL     1       7.552  28.247  57.992  1.00  0.00    -0.128 NA
ENDROOT
BRANCH   3   6
HETATM    6  S   UNL     1       4.295  28.258  55.965  1.00  0.00    -0.080 SA
BRANCH   6   7
HETATM    7  C   UNL     1       4.929  28.091  54.266  1.00  0.00     0.185 C 
BRANCH   7   8
HETATM    8  C   UNL     1       6.033  27.054  54.086  1.00  0.00     0.231 C 
HETATM    9  N   UNL     1       5.706  25.770  54.485  1.00  0.00    -0.326 N 
HETATM   10  H   UNL     1       4.785  25.664  54.894  1.00  0.00     0.169 HD
HETATM   11  O   UNL     1       7.081  27.379  53.529  1.00  0.00    -0.272 OA
BRANCH   9  12
HETATM   12  C   UNL     1       6.517  24.618  54.459  1.00  0.00     0.037 A 
HETATM   13  C   UNL     1       7.025  24.002  55.609  1.00  0.00     0.061 A 
HETATM   14  C   UNL     1       7.791  22.874  55.430  1.00  0.00     0.065 A 
HETATM   15  C   UNL     1       8.068  22.349  54.170  1.00  0.00     0.063 A 
HETATM   16  N   UNL     1       8.409  22.061  56.375  1.00  0.00    -0.306 N 
HETATM   17  N   UNL     1       8.855  21.216  54.339  1.00  0.00    -0.307 N 
HETATM   18  C   UNL     1       7.590  22.925  53.021  1.00  0.00     0.034 A 
HETATM   19  C   UNL     1       9.075  21.021  55.712  1.00  0.00     0.325 A 
HETATM   20  H   UNL     1       9.219  20.609  53.625  1.00  0.00     0.170 HD
HETATM   21  O   UNL     1       9.719  20.122  56.221  1.00  0.00    -0.247 OA
HETATM   22  C   UNL     1       6.803  24.074  53.178  1.00  0.00     0.032 A 
HETATM   23  H   UNL     1       8.390  22.173  57.376  1.00  0.00     0.170 HD
ENDBRANCH   9  12
ENDBRANCH   7   8
ENDBRANCH   6   7
ENDBRANCH   3   6
BRANCH   2  24
HETATM   24  C   UNL     1       5.360  31.036  57.414  1.00  0.00     0.043 A 
HETATM   25  C   UNL     1       4.515  31.390  58.475  1.00  0.00     0.032 A 
HETATM   26  C   UNL     1       3.802  32.593  58.434  1.00  0.00     0.026 A 
HETATM   27  C   UNL     1       3.932  33.442  57.337  1.00  0.00     0.034 A 
HETATM   28 CL   UNL     1       3.054  34.919  57.290  1.00  0.00    -0.084 Cl
HETATM   29  C   UNL     1       4.768  33.098  56.277  1.00  0.00     0.026 A 
HETATM   30  C   UNL     1       5.481  31.896  56.312  1.00  0.00     0.032 A 
ENDBRANCH   2  24
BRANCH   1  31
HETATM   31  C   UNL     1       8.125  30.469  58.857  1.00  0.00     0.012 A 
HETATM   32  C   UNL     1       7.742  30.912  60.131  1.00  0.00     0.015 A 
HETATM   33  C   UNL     1       8.551  31.793  60.852  1.00  0.00     0.001 A 
HETATM   34  C   UNL     1       9.757  32.232  60.310  1.00  0.00     0.000 A 
HETATM   35  C   UNL     1      10.160  31.784  59.055  1.00  0.00     0.001 A 
HETATM   36  C   UNL     1       9.353  30.899  58.334  1.00  0.00     0.015 A 
ENDBRANCH   1  31
TORSDOF 6
ENDMDL
