MODEL 1
REMARK VINA RESULT:      -9.6      0.000      0.000
REMARK  3 active torsions:
REMARK  status: ('A' for Active; 'I' for Inactive)
REMARK    1  A    between atoms: O_2  and  C_3 
REMARK       I    between atoms: N_13  and  C_14 
REMARK       I    between atoms: C_14  and  N_15 
REMARK    2  A    between atoms: N_15  and  C_16 
REMARK    3  A    between atoms: C_22  and  C_23 
ROOT
HETATM    1  C   UNL     1       8.834  30.253  58.893  1.00  0.00     0.069 A 
HETATM    2  C   UNL     1       8.005  29.179  58.548  1.00  0.00     0.051 A 
HETATM    3  C   UNL     1       8.048  28.660  57.235  1.00  0.00     0.002 A 
HETATM    4  C   UNL     1       8.934  29.227  56.315  1.00  0.00     0.043 A 
HETATM    5  N   UNL     1       8.787  28.550  55.123  1.00  0.00    -0.356 N 
HETATM    6  H   UNL     1       9.307  28.755  54.281  1.00  0.00     0.166 HD
HETATM    7  C   UNL     1       7.808  27.600  55.247  1.00  0.00     0.045 A 
HETATM    8  C   UNL     1       7.365  27.614  56.559  1.00  0.00    -0.019 A 
HETATM    9  C   UNL     1       6.352  26.630  57.048  1.00  0.00     0.061 C 
HETATM   10  C   UNL     1       5.660  25.948  55.848  1.00  0.00     0.133 C 
HETATM   11  N   UNL     1       6.634  25.568  54.803  1.00  0.00    -0.320 N 
HETATM   12  C   UNL     1       7.111  24.267  54.826  1.00  0.00     0.319 C 
HETATM   13  N   UNL     1       8.030  23.965  53.852  1.00  0.00    -0.338 N 
HETATM   14  O   UNL     1       6.731  23.438  55.648  1.00  0.00    -0.247 OA
HETATM   15  C   UNL     1       7.326  26.699  54.141  1.00  0.00     0.172 C 
HETATM   16  C   UNL     1       9.784  30.286  56.645  1.00  0.00     0.033 A 
HETATM   17  C   UNL     1       9.714  30.785  57.950  1.00  0.00     0.039 A 
HETATM   18  H   UNL     1       7.893  24.456  52.984  1.00  0.00     0.164 HD
ENDROOT
BRANCH  15  19
HETATM   19  C   UNL     1       6.402  27.363  53.113  1.00  0.00    -0.029 A 
HETATM   20  C   UNL     1       5.814  28.628  53.308  1.00  0.00     0.012 A 
HETATM   21  C   UNL     1       4.976  29.189  52.340  1.00  0.00     0.043 A 
HETATM   22  C   UNL     1       4.711  28.490  51.172  1.00  0.00     0.116 A 
HETATM   23  F   UNL     1       3.903  29.027  50.248  1.00  0.00    -0.206 F 
HETATM   24  C   UNL     1       5.265  27.238  50.952  1.00  0.00     0.043 A 
HETATM   25  C   UNL     1       6.107  26.678  51.917  1.00  0.00     0.012 A 
ENDBRANCH  15  19
BRANCH  13  26
HETATM   26  C   UNL     1       8.644  22.657  53.705  1.00  0.00     0.086 C 
HETATM   27  C   UNL     1       9.034  21.967  55.016  1.00  0.00     0.025 C 
HETATM   28  C   UNL     1       9.057  20.494  54.639  1.00  0.00     0.002 C 
HETATM   29  C   UNL     1       7.843  20.349  53.734  1.00  0.00     0.002 C 
HETATM   30  C   UNL     1       7.802  21.641  52.920  1.00  0.00     0.025 C 
ENDBRANCH  13  26
BRANCH   1  31
HETATM   31  O   UNL     1       8.879  30.863  60.118  1.00  0.00    -0.356 OA
HETATM   32  C   UNL     1       8.703  32.275  60.138  1.00  0.00     0.210 C 
ENDBRANCH   1  31
TORSDOF 3
ENDMDL
MODEL 2
REMARK VINA RESULT:      -9.4      3.262      7.693
REMARK  3 active torsions:
REMARK  status: ('A' for Active; 'I' for Inactive)
REMARK    1  A    between atoms: O_2  and  C_3 
REMARK       I    between atoms: N_13  and  C_14 
REMARK       I    between atoms: C_14  and  N_15 
REMARK    2  A    between atoms: N_15  and  C_16 
REMARK    3  A    between atoms: C_22  and  C_23 
ROOT
HETATM    1  C   UNL     1       2.954  28.569  49.184  1.00  0.00     0.069 A 
HETATM    2  C   UNL     1       3.045  28.419  50.574  1.00  0.00     0.051 A 
HETATM    3  C   UNL     1       4.265  28.002  51.150  1.00  0.00     0.002 A 
HETATM    4  C   UNL     1       5.359  27.764  50.314  1.00  0.00     0.043 A 
HETATM    5  N   UNL     1       6.416  27.375  51.111  1.00  0.00    -0.356 N 
HETATM    6  H   UNL     1       7.335  27.138  50.764  1.00  0.00     0.166 HD
HETATM    7  C   UNL     1       6.013  27.319  52.419  1.00  0.00     0.045 A 
HETATM    8  C   UNL     1       4.698  27.748  52.479  1.00  0.00    -0.019 A 
HETATM    9  C   UNL     1       3.986  27.890  53.785  1.00  0.00     0.061 C 
HETATM   10  C   UNL     1       4.766  27.148  54.891  1.00  0.00     0.133 C 
HETATM   11  N   UNL     1       6.219  27.403  54.797  1.00  0.00    -0.320 N 
HETATM   12  C   UNL     1       6.737  28.416  55.588  1.00  0.00     0.319 C 
HETATM   13  N   UNL     1       8.085  28.633  55.451  1.00  0.00    -0.338 N 
HETATM   14  O   UNL     1       6.044  29.065  56.367  1.00  0.00    -0.247 OA
HETATM   15  C   UNL     1       6.874  26.882  53.574  1.00  0.00     0.172 C 
HETATM   16  C   UNL     1       5.295  27.928  48.928  1.00  0.00     0.033 A 
HETATM   17  C   UNL     1       4.072  28.334  48.383  1.00  0.00     0.039 A 
HETATM   18  H   UNL     1       8.620  27.806  55.244  1.00  0.00     0.164 HD
ENDROOT
BRANCH  15  19
HETATM   19  C   UNL     1       7.094  25.368  53.688  1.00  0.00    -0.029 A 
HETATM   20  C   UNL     1       6.947  24.656  54.895  1.00  0.00     0.012 A 
HETATM   21  C   UNL     1       7.162  23.276  54.946  1.00  0.00     0.043 A 
HETATM   22  C   UNL     1       7.534  22.595  53.797  1.00  0.00     0.116 A 
HETATM   23  F   UNL     1       7.746  21.273  53.850  1.00  0.00    -0.206 F 
HETATM   24  C   UNL     1       7.698  23.267  52.595  1.00  0.00     0.043 A 
HETATM   25  C   UNL     1       7.479  24.646  52.541  1.00  0.00     0.012 A 
ENDBRANCH  15  19
BRANCH  13  26
HETATM   26  C   UNL     1       8.815  29.644  56.194  1.00  0.00     0.086 C 
HETATM   27  C   UNL     1       8.766  29.499  57.718  1.00  0.00     0.025 C 
HETATM   28  C   UNL     1      10.017  30.232  58.177  1.00  0.00     0.002 C 
HETATM   29  C   UNL     1      11.058  29.819  57.148  1.00  0.00     0.002 C 
HETATM   30  C   UNL     1      10.301  29.762  55.823  1.00  0.00     0.025 C 
ENDBRANCH  13  26
BRANCH   1  31
HETATM   31  O   UNL     1       1.833  28.947  48.496  1.00  0.00    -0.356 OA
HETATM   32  C   UNL     1       1.447  28.125  47.400  1.00  0.00     0.210 C 
ENDBRANCH   1  31
TORSDOF 3
ENDMDL
MODEL 3
REMARK VINA RESULT:      -9.3      3.433      8.499
REMARK  3 active torsions:
REMARK  status: ('A' for Active; 'I' for Inactive)
REMARK    1  A    between atoms: O_2  and  C_3 
REMARK       I    between atoms: N_13  and  C_14 
REMARK       I    between atoms: C_14  and  N_15 
REMARK    2  A    between atoms: N_15  and  C_16 
REMARK    3  A    between atoms: C_22  and  C_23 
ROOT
HETATM    1  C   UNL     1       7.334  25.049  55.902  1.00  0.00     0.069 A 
HETATM    2  C   UNL     1       7.978  26.219  56.324  1.00  0.00     0.051 A 
HETATM    3  C   UNL     1       7.217  27.267  56.887  1.00  0.00     0.002 A 
HETATM    4  C   UNL     1       5.836  27.102  57.021  1.00  0.00     0.043 A 
HETATM    5  N   UNL     1       5.333  28.253  57.591  1.00  0.00    -0.356 N 
HETATM    6  H   UNL     1       4.356  28.406  57.800  1.00  0.00     0.166 HD
HETATM    7  C   UNL     1       6.344  29.155  57.784  1.00  0.00     0.045 A 
HETATM    8  C   UNL     1       7.530  28.555  57.400  1.00  0.00    -0.019 A 
HETATM    9  C   UNL     1       8.844  29.248  57.569  1.00  0.00     0.061 C 
HETATM   10  C   UNL     1       8.613  30.752  57.828  1.00  0.00     0.133 C 
HETATM   11  N   UNL     1       7.515  30.977  58.793  1.00  0.00    -0.320 N 
HETATM   12  C   UNL     1       7.866  31.153  60.122  1.00  0.00     0.319 C 
HETATM   13  N   UNL     1       6.814  31.334  60.985  1.00  0.00    -0.338 N 
HETATM   14  O   UNL     1       9.034  31.161  60.501  1.00  0.00    -0.247 OA
HETATM   15  C   UNL     1       6.173  30.547  58.334  1.00  0.00     0.172 C 
HETATM   16  C   UNL     1       5.177  25.935  56.625  1.00  0.00     0.033 A 
HETATM   17  C   UNL     1       5.954  24.916  56.064  1.00  0.00     0.039 A 
HETATM   18  H   UNL     1       6.026  31.815  60.584  1.00  0.00     0.164 HD
ENDROOT
BRANCH  15  19
HETATM   19  C   UNL     1       5.590  31.570  57.353  1.00  0.00    -0.029 A 
HETATM   20  C   UNL     1       5.304  31.272  56.006  1.00  0.00     0.012 A 
HETATM   21  C   UNL     1       4.775  32.242  55.151  1.00  0.00     0.043 A 
HETATM   22  C   UNL     1       4.534  33.522  55.629  1.00  0.00     0.116 A 
HETATM   23  F   UNL     1       4.032  34.453  54.805  1.00  0.00    -0.206 F 
HETATM   24  C   UNL     1       4.814  33.853  56.946  1.00  0.00     0.043 A 
HETATM   25  C   UNL     1       5.338  32.882  57.804  1.00  0.00     0.012 A 
ENDBRANCH  15  19
BRANCH  13  26
HETATM   26  C   UNL     1       6.974  31.540  62.413  1.00  0.00     0.086 C 
HETATM   27  C   UNL     1       7.987  32.618  62.809  1.00  0.00     0.025 C 
HETATM   28  C   UNL     1       7.526  33.033  64.198  1.00  0.00     0.002 C 
HETATM   29  C   UNL     1       6.011  33.056  64.069  1.00  0.00     0.002 C 
HETATM   30  C   UNL     1       5.675  31.877  63.160  1.00  0.00     0.025 C 
ENDBRANCH  13  26
BRANCH   1  31
HETATM   31  O   UNL     1       7.944  23.968  55.325  1.00  0.00    -0.356 OA
HETATM   32  C   UNL     1       7.244  23.329  54.264  1.00  0.00     0.210 C 
ENDBRANCH   1  31
TORSDOF 3
ENDMDL
MODEL 4
REMARK VINA RESULT:      -8.9      4.594      6.473
REMARK  3 active torsions:
REMARK  status: ('A' for Active; 'I' for Inactive)
REMARK    1  A    between atoms: O_2  and  C_3 
REMARK       I    between atoms: N_13  and  C_14 
REMARK       I    between atoms: C_14  and  N_15 
REMARK    2  A    between atoms: N_15  and  C_16 
REMARK    3  A    between atoms: C_22  and  C_23 
ROOT
HETATM    1  C   UNL     1       5.576  34.262  50.298  1.00  0.00     0.069 A 
HETATM    2  C   UNL     1       4.939  33.216  50.978  1.00  0.00     0.051 A 
HETATM    3  C   UNL     1       5.144  31.884  50.555  1.00  0.00     0.002 A 
HETATM    4  C   UNL     1       5.993  31.644  49.472  1.00  0.00     0.043 A 
HETATM    5  N   UNL     1       6.025  30.281  49.262  1.00  0.00    -0.356 N 
HETATM    6  H   UNL     1       6.563  29.828  48.536  1.00  0.00     0.166 HD
HETATM    7  C   UNL     1       5.191  29.656  50.150  1.00  0.00     0.045 A 
HETATM    8  C   UNL     1       4.667  30.620  50.994  1.00  0.00    -0.019 A 
HETATM    9  C   UNL     1       3.782  30.252  52.141  1.00  0.00     0.061 C 
HETATM   10  C   UNL     1       3.278  28.803  51.969  1.00  0.00     0.133 C 
HETATM   11  N   UNL     1       4.362  27.896  51.536  1.00  0.00    -0.320 N 
HETATM   12  C   UNL     1       5.024  27.184  52.524  1.00  0.00     0.319 C 
HETATM   13  N   UNL     1       6.039  26.374  52.079  1.00  0.00    -0.338 N 
HETATM   14  O   UNL     1       4.719  27.261  53.711  1.00  0.00    -0.247 OA
HETATM   15  C   UNL     1       4.920  28.175  50.192  1.00  0.00     0.172 C 
HETATM   16  C   UNL     1       6.654  32.671  48.793  1.00  0.00     0.033 A 
HETATM   17  C   UNL     1       6.427  33.981  49.228  1.00  0.00     0.039 A 
HETATM   18  H   UNL     1       5.887  25.982  51.165  1.00  0.00     0.164 HD
ENDROOT
BRANCH  15  19
HETATM   19  C   UNL     1       3.977  27.652  49.102  1.00  0.00    -0.029 A 
HETATM   20  C   UNL     1       3.139  28.489  48.340  1.00  0.00     0.012 A 
HETATM   21  C   UNL     1       2.295  27.962  47.359  1.00  0.00     0.043 A 
HETATM   22  C   UNL     1       2.273  26.593  47.135  1.00  0.00     0.116 A 
HETATM   23  F   UNL     1       1.458  26.089  46.198  1.00  0.00    -0.206 F 
HETATM   24  C   UNL     1       3.077  25.739  47.874  1.00  0.00     0.043 A 
HETATM   25  C   UNL     1       3.925  26.266  48.852  1.00  0.00     0.012 A 
ENDBRANCH  15  19
BRANCH  13  26
HETATM   26  C   UNL     1       6.847  25.546  52.956  1.00  0.00     0.086 C 
HETATM   27  C   UNL     1       6.085  24.449  53.706  1.00  0.00     0.025 C 
HETATM   28  C   UNL     1       7.167  23.427  54.019  1.00  0.00     0.002 C 
HETATM   29  C   UNL     1       7.998  23.400  52.746  1.00  0.00     0.002 C 
HETATM   30  C   UNL     1       8.030  24.850  52.266  1.00  0.00     0.025 C 
ENDBRANCH  13  26
BRANCH   1  31
HETATM   31  O   UNL     1       5.451  35.594  50.589  1.00  0.00    -0.356 OA
HETATM   32  C   UNL     1       6.651  36.359  50.609  1.00  0.00     0.210 C 
ENDBRANCH   1  31
TORSDOF 3
ENDMDL
MODEL 5
REMARK VINA RESULT:      -8.2      5.172     10.071
REMARK  3 active torsions:
REMARK  status: ('A' for Active; 'I' for Inactive)
REMARK    1  A    between atoms: O_2  and  C_3 
REMARK       I    between atoms: N_13  and  C_14 
REMARK       I    between atoms: C_14  and  N_15 
REMARK    2  A    between atoms: N_15  and  C_16 
REMARK    3  A    between atoms: C_22  and  C_23 
ROOT
HETATM    1  C   UNL     1       5.839  26.703  56.129  1.00  0.00     0.069 A 
HETATM    2  C   UNL     1       5.000  27.664  56.707  1.00  0.00     0.051 A 
HETATM    3  C   UNL     1       5.543  28.896  57.133  1.00  0.00     0.002 A 
HETATM    4  C   UNL     1       6.908  29.129  56.953  1.00  0.00     0.043 A 
HETATM    5  N   UNL     1       7.184  30.388  57.445  1.00  0.00    -0.356 N 
HETATM    6  H   UNL     1       8.101  30.813  57.443  1.00  0.00     0.166 HD
HETATM    7  C   UNL     1       6.046  30.941  57.968  1.00  0.00     0.045 A 
HETATM    8  C   UNL     1       5.003  30.058  57.747  1.00  0.00    -0.019 A 
HETATM    9  C   UNL     1       3.598  30.404  58.122  1.00  0.00     0.061 C 
HETATM   10  C   UNL     1       3.594  31.616  59.079  1.00  0.00     0.133 C 
HETATM   11  N   UNL     1       4.533  32.666  58.631  1.00  0.00    -0.320 N 
HETATM   12  C   UNL     1       4.010  33.701  57.871  1.00  0.00     0.319 C 
HETATM   13  N   UNL     1       4.920  34.640  57.458  1.00  0.00    -0.338 N 
HETATM   14  O   UNL     1       2.815  33.781  57.598  1.00  0.00    -0.247 OA
HETATM   15  C   UNL     1       5.964  32.283  58.646  1.00  0.00     0.172 C 
HETATM   16  C   UNL     1       7.759  28.193  56.360  1.00  0.00     0.033 A 
HETATM   17  C   UNL     1       7.196  26.978  55.954  1.00  0.00     0.039 A 
HETATM   18  H   UNL     1       5.678  34.796  58.101  1.00  0.00     0.164 HD
ENDROOT
BRANCH  15  19
HETATM   19  C   UNL     1       6.516  32.328  60.076  1.00  0.00    -0.029 A 
HETATM   20  C   UNL     1       6.006  33.181  61.073  1.00  0.00     0.012 A 
HETATM   21  C   UNL     1       6.546  33.186  62.362  1.00  0.00     0.043 A 
HETATM   22  C   UNL     1       7.606  32.345  62.665  1.00  0.00     0.116 A 
HETATM   23  F   UNL     1       8.127  32.355  63.900  1.00  0.00    -0.206 F 
HETATM   24  C   UNL     1       8.140  31.499  61.704  1.00  0.00     0.043 A 
HETATM   25  C   UNL     1       7.597  31.490  60.417  1.00  0.00     0.012 A 
ENDBRANCH  15  19
BRANCH  13  26
HETATM   26  C   UNL     1       4.570  35.801  56.658  1.00  0.00     0.086 C 
HETATM   27  C   UNL     1       4.509  37.127  57.422  1.00  0.00     0.025 C 
HETATM   28  C   UNL     1       4.734  38.164  56.333  1.00  0.00     0.002 C 
HETATM   29  C   UNL     1       5.816  37.534  55.471  1.00  0.00     0.002 C 
HETATM   30  C   UNL     1       5.485  36.043  55.449  1.00  0.00     0.025 C 
ENDBRANCH  13  26
BRANCH   1  31
HETATM   31  O   UNL     1       5.450  25.466  55.690  1.00  0.00    -0.356 OA
HETATM   32  C   UNL     1       6.031  25.006  54.475  1.00  0.00     0.210 C 
ENDBRANCH   1  31
TORSDOF 3
ENDMDL
MODEL 6
REMARK VINA RESULT:      -8.1      7.213     13.303
REMARK  3 active torsions:
REMARK  status: ('A' for Active; 'I' for Inactive)
REMARK    1  A    between atoms: O_2  and  C_3 
REMARK       I    between atoms: N_13  and  C_14 
REMARK       I    between atoms: C_14  and  N_15 
REMARK    2  A    between atoms: N_15  and  C_16 
REMARK    3  A    between atoms: C_22  and  C_23 
ROOT
HETATM    1  C   UNL     1       8.024  30.385  59.527  1.00  0.00     0.069 A 
HETATM    2  C   UNL     1       6.918  31.239  59.623  1.00  0.00     0.051 A 
HETATM    3  C   UNL     1       6.923  32.278  60.580  1.00  0.00     0.002 A 
HETATM    4  C   UNL     1       8.043  32.434  61.400  1.00  0.00     0.043 A 
HETATM    5  N   UNL     1       7.802  33.505  62.235  1.00  0.00    -0.356 N 
HETATM    6  H   UNL     1       8.449  33.840  62.936  1.00  0.00     0.166 HD
HETATM    7  C   UNL     1       6.549  34.004  61.999  1.00  0.00     0.045 A 
HETATM    8  C   UNL     1       5.999  33.293  60.946  1.00  0.00    -0.019 A 
HETATM    9  C   UNL     1       4.663  33.652  60.379  1.00  0.00     0.061 C 
HETATM   10  C   UNL     1       3.914  34.585  61.354  1.00  0.00     0.133 C 
HETATM   11  N   UNL     1       4.804  35.632  61.898  1.00  0.00    -0.320 N 
HETATM   12  C   UNL     1       4.800  36.862  61.259  1.00  0.00     0.319 C 
HETATM   13  N   UNL     1       5.658  37.795  61.784  1.00  0.00    -0.338 N 
HETATM   14  O   UNL     1       4.071  37.106  60.301  1.00  0.00    -0.247 OA
HETATM   15  C   UNL     1       5.910  35.140  62.753  1.00  0.00     0.172 C 
HETATM   16  C   UNL     1       9.165  31.606  61.306  1.00  0.00     0.033 A 
HETATM   17  C   UNL     1       9.130  30.581  60.355  1.00  0.00     0.039 A 
HETATM   18  H   UNL     1       5.793  37.724  62.778  1.00  0.00     0.164 HD
ENDROOT
BRANCH  15  19
HETATM   19  C   UNL     1       5.388  34.784  64.150  1.00  0.00    -0.029 A 
HETATM   20  C   UNL     1       6.167  34.120  65.119  1.00  0.00     0.012 A 
HETATM   21  C   UNL     1       5.643  33.816  66.378  1.00  0.00     0.043 A 
HETATM   22  C   UNL     1       4.334  34.162  66.680  1.00  0.00     0.116 A 
HETATM   23  F   UNL     1       3.831  33.863  67.886  1.00  0.00    -0.206 F 
HETATM   24  C   UNL     1       3.536  34.806  65.746  1.00  0.00     0.043 A 
HETATM   25  C   UNL     1       4.060  35.116  64.489  1.00  0.00     0.012 A 
ENDBRANCH  15  19
BRANCH  13  26
HETATM   26  C   UNL     1       5.797  39.142  61.259  1.00  0.00     0.086 C 
HETATM   27  C   UNL     1       4.904  40.197  61.919  1.00  0.00     0.025 C 
HETATM   28  C   UNL     1       5.645  41.497  61.650  1.00  0.00     0.002 C 
HETATM   29  C   UNL     1       7.101  41.118  61.866  1.00  0.00     0.002 C 
HETATM   30  C   UNL     1       7.227  39.702  61.306  1.00  0.00     0.025 C 
ENDBRANCH  13  26
BRANCH   1  31
HETATM   31  O   UNL     1       8.143  29.331  58.661  1.00  0.00    -0.356 OA
HETATM   32  C   UNL     1       9.107  29.463  57.622  1.00  0.00     0.210 C 
ENDBRANCH   1  31
TORSDOF 3
ENDMDL
MODEL 7
REMARK VINA RESULT:      -7.9      3.468      8.179
REMARK  3 active torsions:
REMARK  status: ('A' for Active; 'I' for Inactive)
REMARK    1  A    between atoms: O_2  and  C_3 
REMARK       I    between atoms: N_13  and  C_14 
REMARK       I    between atoms: C_14  and  N_15 
REMARK    2  A    between atoms: N_15  and  C_16 
REMARK    3  A    between atoms: C_22  and  C_23 
ROOT
HETATM    1  C   UNL     1       7.724  24.829  56.582  1.00  0.00     0.069 A 
HETATM    2  C   UNL     1       7.997  26.199  56.677  1.00  0.00     0.051 A 
HETATM    3  C   UNL     1       6.939  27.106  56.908  1.00  0.00     0.002 A 
HETATM    4  C   UNL     1       5.642  26.606  57.050  1.00  0.00     0.043 A 
HETATM    5  N   UNL     1       4.804  27.680  57.266  1.00  0.00    -0.356 N 
HETATM    6  H   UNL     1       3.805  27.605  57.401  1.00  0.00     0.166 HD
HETATM    7  C   UNL     1       5.522  28.844  57.224  1.00  0.00     0.045 A 
HETATM    8  C   UNL     1       6.855  28.517  57.050  1.00  0.00    -0.019 A 
HETATM    9  C   UNL     1       7.921  29.566  57.051  1.00  0.00     0.061 C 
HETATM   10  C   UNL     1       7.283  30.961  56.876  1.00  0.00     0.133 C 
HETATM   11  N   UNL     1       6.075  31.116  57.714  1.00  0.00    -0.320 N 
HETATM   12  C   UNL     1       6.235  31.723  58.949  1.00  0.00     0.319 C 
HETATM   13  N   UNL     1       5.093  31.825  59.703  1.00  0.00    -0.338 N 
HETATM   14  O   UNL     1       7.318  32.152  59.339  1.00  0.00    -0.247 OA
HETATM   15  C   UNL     1       4.942  30.228  57.361  1.00  0.00     0.172 C 
HETATM   16  C   UNL     1       5.351  25.241  56.979  1.00  0.00     0.033 A 
HETATM   17  C   UNL     1       6.417  24.367  56.741  1.00  0.00     0.039 A 
HETATM   18  H   UNL     1       4.250  31.947  59.166  1.00  0.00     0.164 HD
ENDROOT
BRANCH  15  19
HETATM   19  C   UNL     1       4.213  30.757  56.120  1.00  0.00    -0.029 A 
HETATM   20  C   UNL     1       3.391  31.900  56.138  1.00  0.00     0.012 A 
HETATM   21  C   UNL     1       2.746  32.340  54.979  1.00  0.00     0.043 A 
HETATM   22  C   UNL     1       2.908  31.638  53.793  1.00  0.00     0.116 A 
HETATM   23  F   UNL     1       2.283  32.058  52.685  1.00  0.00    -0.206 F 
HETATM   24  C   UNL     1       3.701  30.502  53.743  1.00  0.00     0.043 A 
HETATM   25  C   UNL     1       4.351  30.064  54.900  1.00  0.00     0.012 A 
ENDBRANCH  15  19
BRANCH  13  26
HETATM   26  C   UNL     1       5.052  32.432  61.021  1.00  0.00     0.086 C 
HETATM   27  C   UNL     1       5.111  33.962  61.039  1.00  0.00     0.025 C 
HETATM   28  C   UNL     1       4.464  34.319  62.368  1.00  0.00     0.002 C 
HETATM   29  C   UNL     1       3.301  33.344  62.461  1.00  0.00     0.002 C 
HETATM   30  C   UNL     1       3.831  32.041  61.867  1.00  0.00     0.025 C 
ENDBRANCH  13  26
BRANCH   1  31
HETATM   31  O   UNL     1       8.647  23.847  56.343  1.00  0.00    -0.356 OA
HETATM   32  C   UNL     1       8.143  22.575  55.955  1.00  0.00     0.210 C 
ENDBRANCH   1  31
TORSDOF 3
ENDMDL
MODEL 8
REMARK VINA RESULT:      -7.8      6.467     11.643
REMARK  3 active torsions:
REMARK  status: ('A' for Active; 'I' for Inactive)
REMARK    1  A    between atoms: O_2  and  C_3 
REMARK       I    between atoms: N_13  and  C_14 
REMARK       I    between atoms: C_14  and  N_15 
REMARK    2  A    between atoms: N_15  and  C_16 
REMARK    3  A    between atoms: C_22  and  C_23 
ROOT
HETATM    1  C   UNL     1       8.501  29.628  58.053  1.00  0.00     0.069 A 
HETATM    2  C   UNL     1       7.176  30.025  58.269  1.00  0.00     0.051 A 
HETATM    3  C   UNL     1       6.913  31.207  58.996  1.00  0.00     0.002 A 
HETATM    4  C   UNL     1       7.990  31.959  59.472  1.00  0.00     0.043 A 
HETATM    5  N   UNL     1       7.473  33.051  60.138  1.00  0.00    -0.356 N 
HETATM    6  H   UNL     1       8.033  33.764  60.586  1.00  0.00     0.166 HD
HETATM    7  C   UNL     1       6.105  32.990  60.136  1.00  0.00     0.045 A 
HETATM    8  C   UNL     1       5.729  31.883  59.396  1.00  0.00    -0.019 A 
HETATM    9  C   UNL     1       4.290  31.581  59.125  1.00  0.00     0.061 C 
HETATM   10  C   UNL     1       3.394  32.403  60.075  1.00  0.00     0.133 C 
HETATM   11  N   UNL     1       3.859  33.802  60.188  1.00  0.00    -0.320 N 
HETATM   12  C   UNL     1       3.256  34.739  59.364  1.00  0.00     0.319 C 
HETATM   13  N   UNL     1       3.736  36.019  59.485  1.00  0.00    -0.338 N 
HETATM   14  O   UNL     1       2.348  34.449  58.589  1.00  0.00    -0.247 OA
HETATM   15  C   UNL     1       5.191  33.976  60.814  1.00  0.00     0.172 C 
HETATM   16  C   UNL     1       9.320  31.592  59.249  1.00  0.00     0.033 A 
HETATM   17  C   UNL     1       9.550  30.413  58.533  1.00  0.00     0.039 A 
HETATM   18  H   UNL     1       4.045  36.260  60.412  1.00  0.00     0.164 HD
ENDROOT
BRANCH  15  19
HETATM   19  C   UNL     1       5.089  33.832  62.337  1.00  0.00    -0.029 A 
HETATM   20  C   UNL     1       6.072  33.195  63.120  1.00  0.00     0.012 A 
HETATM   21  C   UNL     1       5.930  33.087  64.506  1.00  0.00     0.043 A 
HETATM   22  C   UNL     1       4.802  33.607  65.124  1.00  0.00     0.116 A 
HETATM   23  F   UNL     1       4.665  33.497  66.452  1.00  0.00    -0.206 F 
HETATM   24  C   UNL     1       3.811  34.232  64.383  1.00  0.00     0.043 A 
HETATM   25  C   UNL     1       3.953  34.344  62.997  1.00  0.00     0.012 A 
ENDBRANCH  15  19
BRANCH  13  26
HETATM   26  C   UNL     1       3.232  37.141  58.714  1.00  0.00     0.086 C 
HETATM   27  C   UNL     1       2.178  38.000  59.420  1.00  0.00     0.025 C 
HETATM   28  C   UNL     1       2.290  39.339  58.710  1.00  0.00     0.002 C 
HETATM   29  C   UNL     1       3.790  39.513  58.530  1.00  0.00     0.002 C 
HETATM   30  C   UNL     1       4.314  38.112  58.218  1.00  0.00     0.025 C 
ENDBRANCH  13  26
BRANCH   1  31
HETATM   31  O   UNL     1       8.896  28.500  57.384  1.00  0.00    -0.356 OA
HETATM   32  C   UNL     1       7.981  27.410  57.371  1.00  0.00     0.210 C 
ENDBRANCH   1  31
TORSDOF 3
ENDMDL
MODEL 9
REMARK VINA RESULT:      -7.7      2.941      7.948
REMARK  3 active torsions:
REMARK  status: ('A' for Active; 'I' for Inactive)
REMARK    1  A    between atoms: O_2  and  C_3 
REMARK       I    between atoms: N_13  and  C_14 
REMARK       I    between atoms: C_14  and  N_15 
REMARK    2  A    between atoms: N_15  and  C_16 
REMARK    3  A    between atoms: C_22  and  C_23 
ROOT
HETATM    1  C   UNL     1       7.648  24.208  56.129  1.00  0.00     0.069 A 
HETATM    2  C   UNL     1       8.262  25.467  56.147  1.00  0.00     0.051 A 
HETATM    3  C   UNL     1       7.558  26.577  56.663  1.00  0.00     0.002 A 
HETATM    4  C   UNL     1       6.265  26.385  57.158  1.00  0.00     0.043 A 
HETATM    5  N   UNL     1       5.802  27.607  57.599  1.00  0.00    -0.356 N 
HETATM    6  H   UNL     1       4.889  27.759  58.005  1.00  0.00     0.166 HD
HETATM    7  C   UNL     1       6.743  28.572  57.360  1.00  0.00     0.045 A 
HETATM    8  C   UNL     1       7.860  27.956  56.823  1.00  0.00    -0.019 A 
HETATM    9  C   UNL     1       9.108  28.725  56.530  1.00  0.00     0.061 C 
HETATM   10  C   UNL     1       8.805  30.238  56.540  1.00  0.00     0.133 C 
HETATM   11  N   UNL     1       7.942  30.614  57.680  1.00  0.00    -0.320 N 
HETATM   12  C   UNL     1       8.571  31.081  58.823  1.00  0.00     0.319 C 
HETATM   13  N   UNL     1       7.733  31.395  59.864  1.00  0.00    -0.338 N 
HETATM   14  O   UNL     1       9.789  31.218  58.898  1.00  0.00    -0.247 OA
HETATM   15  C   UNL     1       6.576  30.040  57.654  1.00  0.00     0.172 C 
HETATM   16  C   UNL     1       5.643  25.134  57.168  1.00  0.00     0.033 A 
HETATM   17  C   UNL     1       6.361  24.054  56.644  1.00  0.00     0.039 A 
HETATM   18  H   UNL     1       6.834  31.747  59.582  1.00  0.00     0.164 HD
ENDROOT
BRANCH  15  19
HETATM   19  C   UNL     1       5.692  30.808  56.665  1.00  0.00    -0.029 A 
HETATM   20  C   UNL     1       5.196  30.243  55.473  1.00  0.00     0.012 A 
HETATM   21  C   UNL     1       4.396  30.987  54.603  1.00  0.00     0.043 A 
HETATM   22  C   UNL     1       4.089  32.305  54.908  1.00  0.00     0.116 A 
HETATM   23  F   UNL     1       3.326  33.018  54.069  1.00  0.00    -0.206 F 
HETATM   24  C   UNL     1       4.569  32.896  56.067  1.00  0.00     0.043 A 
HETATM   25  C   UNL     1       5.365  32.151  56.941  1.00  0.00     0.012 A 
ENDBRANCH  15  19
BRANCH  13  26
HETATM   26  C   UNL     1       8.197  31.903  61.143  1.00  0.00     0.086 C 
HETATM   27  C   UNL     1       7.348  33.026  61.747  1.00  0.00     0.025 C 
HETATM   28  C   UNL     1       7.656  32.933  63.233  1.00  0.00     0.002 C 
HETATM   29  C   UNL     1       7.691  31.434  63.486  1.00  0.00     0.002 C 
HETATM   30  C   UNL     1       8.341  30.838  62.239  1.00  0.00     0.025 C 
ENDBRANCH  13  26
BRANCH   1  31
HETATM   31  O   UNL     1       8.207  23.056  55.643  1.00  0.00    -0.356 OA
HETATM   32  C   UNL     1       8.392  21.994  56.571  1.00  0.00     0.210 C 
ENDBRANCH   1  31
TORSDOF 3
ENDMDL
MODEL 10
REMARK VINA RESULT:      -7.6      5.763     10.324
REMARK  3 active torsions:
REMARK  status: ('A' for Active; 'I' for Inactive)
REMARK    1  A    between atoms: O_2  and  C_3 
REMARK       I    between atoms: N_13  and  C_14 
REMARK       I    between atoms: C_14  and  N_15 
REMARK    2  A    between atoms: N_15  and  C_16 
REMARK    3  A    between atoms: C_22  and  C_23 
ROOT
HETATM    1  C   UNL     1      -0.333  27.539  45.551  1.00  0.00     0.069 A 
HETATM    2  C   UNL     1       0.956  27.257  46.019  1.00  0.00     0.051 A 
HETATM    3  C   UNL     1       1.557  28.120  46.962  1.00  0.00     0.002 A 
HETATM    4  C   UNL     1       0.840  29.230  47.414  1.00  0.00     0.043 A 
HETATM    5  N   UNL     1       1.637  29.901  48.318  1.00  0.00    -0.356 N 
HETATM    6  H   UNL     1       1.365  30.747  48.800  1.00  0.00     0.166 HD
HETATM    7  C   UNL     1       2.850  29.275  48.420  1.00  0.00     0.045 A 
HETATM    8  C   UNL     1       2.813  28.142  47.626  1.00  0.00    -0.019 A 
HETATM    9  C   UNL     1       3.959  27.183  47.585  1.00  0.00     0.061 C 
HETATM   10  C   UNL     1       5.215  27.841  48.195  1.00  0.00     0.133 C 
HETATM   11  N   UNL     1       4.896  28.576  49.437  1.00  0.00    -0.320 N 
HETATM   12  C   UNL     1       5.084  27.907  50.636  1.00  0.00     0.319 C 
HETATM   13  N   UNL     1       4.752  28.620  51.761  1.00  0.00    -0.338 N 
HETATM   14  O   UNL     1       5.529  26.764  50.691  1.00  0.00    -0.247 OA
HETATM   15  C   UNL     1       4.003  29.747  49.266  1.00  0.00     0.172 C 
HETATM   16  C   UNL     1      -0.455  29.517  46.975  1.00  0.00     0.033 A 
HETATM   17  C   UNL     1      -1.023  28.651  46.035  1.00  0.00     0.039 A 
HETATM   18  H   UNL     1       4.908  29.611  51.686  1.00  0.00     0.164 HD
ENDROOT
BRANCH  15  19
HETATM   19  C   UNL     1       4.785  30.938  48.700  1.00  0.00    -0.029 A 
HETATM   20  C   UNL     1       4.600  31.432  47.394  1.00  0.00     0.012 A 
HETATM   21  C   UNL     1       5.341  32.520  46.924  1.00  0.00     0.043 A 
HETATM   22  C   UNL     1       6.279  33.120  47.750  1.00  0.00     0.116 A 
HETATM   23  F   UNL     1       6.993  34.160  47.296  1.00  0.00    -0.206 F 
HETATM   24  C   UNL     1       6.494  32.653  49.038  1.00  0.00     0.043 A 
HETATM   25  C   UNL     1       5.751  31.569  49.511  1.00  0.00     0.012 A 
ENDBRANCH  15  19
BRANCH  13  26
HETATM   26  C   UNL     1       4.882  28.097  53.109  1.00  0.00     0.086 C 
HETATM   27  C   UNL     1       6.272  28.241  53.736  1.00  0.00     0.025 C 
HETATM   28  C   UNL     1       5.986  28.203  55.229  1.00  0.00     0.002 C 
HETATM   29  C   UNL     1       4.719  29.034  55.360  1.00  0.00     0.002 C 
HETATM   30  C   UNL     1       3.892  28.690  54.123  1.00  0.00     0.025 C 
ENDBRANCH  13  26
BRANCH   1  31
HETATM   31  O   UNL     1      -1.024  26.801  44.628  1.00  0.00    -0.356 OA
HETATM   32  C   UNL     1      -1.019  27.282  43.289  1.00  0.00     0.210 C 
ENDBRANCH   1  31
TORSDOF 3
ENDMDL
