MODEL 1
REMARK VINA RESULT:      -8.0      0.000      0.000
REMARK  6 active torsions:
REMARK  status: ('A' for Active; 'I' for Inactive)
REMARK    1  A    between atoms: C_2  and  N_3 
REMARK    2  A    between atoms: C_2  and  C_17 
REMARK       I    between atoms: N_3  and  C_4 
REMARK    3  A    between atoms: C_4  and  C_5 
REMARK    4  A    between atoms: C_6  and  O_7 
REMARK    5  A    between atoms: O_7  and  C_8 
REMARK    6  A    between atoms: C_8  and  C_9 
ROOT
HETATM    1  N   UNL     1       4.849  31.805  61.290  1.00  0.00    -0.346 N 
HETATM    2  C   UNL     1       4.979  31.567  62.633  1.00  0.00     0.256 C 
HETATM    3  O   UNL     1       4.384  30.626  63.149  1.00  0.00    -0.267 OA
HETATM    4  H   UNL     1       4.272  31.108  60.838  1.00  0.00     0.163 HD
ENDROOT
BRANCH   1   5
HETATM    5  C   UNL     1       5.516  32.800  60.462  1.00  0.00     0.150 C 
HETATM    6  C   UNL     1       4.520  33.473  59.524  1.00  0.00     0.040 C 
BRANCH   5   7
HETATM    7  C   UNL     1       6.627  32.107  59.728  1.00  0.00     0.127 A 
HETATM    8  N   UNL     1       7.884  32.506  59.648  1.00  0.00    -0.231 NA
HETATM    9  C   UNL     1       8.540  31.538  58.927  1.00  0.00     0.085 A 
HETATM   10  C   UNL     1       7.668  30.525  58.549  1.00  0.00     0.062 A 
HETATM   11  C   UNL     1       9.890  31.450  58.557  1.00  0.00     0.034 A 
HETATM   12  N   UNL     1       6.460  30.909  59.071  1.00  0.00    -0.341 N 
HETATM   13  C   UNL     1       8.060  29.408  57.807  1.00  0.00     0.032 A 
HETATM   14  H   UNL     1       5.599  30.388  58.997  1.00  0.00     0.167 HD
HETATM   15  C   UNL     1       9.409  29.338  57.447  1.00  0.00     0.002 A 
HETATM   16  C   UNL     1      10.313  30.339  57.814  1.00  0.00     0.002 A 
ENDBRANCH   5   7
ENDBRANCH   1   5
BRANCH   2  17
HETATM   17  C   UNL     1       5.825  32.435  63.463  1.00  0.00     0.084 A 
HETATM   18  C   UNL     1       5.254  33.261  64.423  1.00  0.00     0.180 A 
HETATM   19  N   UNL     1       5.979  34.075  65.231  1.00  0.00    -0.236 NA
HETATM   20  C   UNL     1       7.324  34.022  65.098  1.00  0.00     0.119 A 
HETATM   21  C   UNL     1       7.981  33.204  64.191  1.00  0.00     0.020 A 
HETATM   22  C   UNL     1       7.216  32.389  63.361  1.00  0.00     0.023 A 
BRANCH  18  23
HETATM   23  O   UNL     1       3.880  33.340  64.499  1.00  0.00    -0.328 OA
BRANCH  23  24
HETATM   24  C   UNL     1       3.374  34.671  64.332  1.00  0.00     0.248 C 
BRANCH  24  25
HETATM   25  C   UNL     1       2.996  34.968  62.891  1.00  0.00     0.377 C 
HETATM   26  F   UNL     1       4.109  35.330  62.195  1.00  0.00    -0.212 F 
HETATM   27  F   UNL     1       2.537  33.833  62.299  1.00  0.00    -0.212 F 
ENDBRANCH  24  25
ENDBRANCH  23  24
ENDBRANCH  18  23
ENDBRANCH   2  17
TORSDOF 6
ENDMDL
MODEL 2
REMARK VINA RESULT:      -8.0      7.573     10.130
REMARK  6 active torsions:
REMARK  status: ('A' for Active; 'I' for Inactive)
REMARK    1  A    between atoms: C_2  and  N_3 
REMARK    2  A    between atoms: C_2  and  C_17 
REMARK       I    between atoms: N_3  and  C_4 
REMARK    3  A    between atoms: C_4  and  C_5 
REMARK    4  A    between atoms: C_6  and  O_7 
REMARK    5  A    between atoms: O_7  and  C_8 
REMARK    6  A    between atoms: C_8  and  C_9 
ROOT
HETATM    1  N   UNL     1       5.177  25.321  55.308  1.00  0.00    -0.346 N 
HETATM    2  C   UNL     1       5.360  26.149  56.384  1.00  0.00     0.256 C 
HETATM    3  O   UNL     1       4.598  26.085  57.343  1.00  0.00    -0.267 OA
HETATM    4  H   UNL     1       4.409  24.679  55.453  1.00  0.00     0.163 HD
ENDROOT
BRANCH   1   5
HETATM    5  C   UNL     1       5.995  25.167  54.113  1.00  0.00     0.150 C 
HETATM    6  C   UNL     1       5.128  25.203  52.860  1.00  0.00     0.040 C 
BRANCH   5   7
HETATM    7  C   UNL     1       6.763  23.885  54.251  1.00  0.00     0.127 A 
HETATM    8  N   UNL     1       7.128  23.306  55.380  1.00  0.00    -0.231 NA
HETATM    9  C   UNL     1       7.755  22.137  55.018  1.00  0.00     0.085 A 
HETATM   10  C   UNL     1       7.782  21.998  53.637  1.00  0.00     0.062 A 
HETATM   11  C   UNL     1       8.325  21.136  55.817  1.00  0.00     0.034 A 
HETATM   12  N   UNL     1       7.145  23.118  53.172  1.00  0.00    -0.341 N 
HETATM   13  C   UNL     1       8.355  20.904  52.984  1.00  0.00     0.032 A 
HETATM   14  H   UNL     1       6.972  23.333  52.201  1.00  0.00     0.167 HD
HETATM   15  C   UNL     1       8.919  19.916  53.797  1.00  0.00     0.002 A 
HETATM   16  C   UNL     1       8.906  20.025  55.190  1.00  0.00     0.002 A 
ENDBRANCH   5   7
ENDBRANCH   1   5
BRANCH   2  17
HETATM   17  C   UNL     1       6.464  27.118  56.395  1.00  0.00     0.084 A 
HETATM   18  C   UNL     1       6.316  28.357  55.784  1.00  0.00     0.180 A 
HETATM   19  N   UNL     1       7.289  29.302  55.770  1.00  0.00    -0.236 NA
HETATM   20  C   UNL     1       8.431  29.007  56.433  1.00  0.00     0.119 A 
HETATM   21  C   UNL     1       8.654  27.811  57.098  1.00  0.00     0.020 A 
HETATM   22  C   UNL     1       7.647  26.850  57.085  1.00  0.00     0.023 A 
BRANCH  18  23
HETATM   23  O   UNL     1       5.166  28.610  55.067  1.00  0.00    -0.328 OA
BRANCH  23  24
HETATM   24  C   UNL     1       5.399  28.817  53.667  1.00  0.00     0.248 C 
BRANCH  24  25
HETATM   25  C   UNL     1       4.114  28.777  52.857  1.00  0.00     0.377 C 
HETATM   26  F   UNL     1       4.369  28.251  51.627  1.00  0.00    -0.212 F 
HETATM   27  F   UNL     1       3.229  27.932  53.450  1.00  0.00    -0.212 F 
ENDBRANCH  24  25
ENDBRANCH  23  24
ENDBRANCH  18  23
ENDBRANCH   2  17
TORSDOF 6
ENDMDL
MODEL 3
REMARK VINA RESULT:      -8.0      8.307     10.667
REMARK  6 active torsions:
REMARK  status: ('A' for Active; 'I' for Inactive)
REMARK    1  A    between atoms: C_2  and  N_3 
REMARK    2  A    between atoms: C_2  and  C_17 
REMARK       I    between atoms: N_3  and  C_4 
REMARK    3  A    between atoms: C_4  and  C_5 
REMARK    4  A    between atoms: C_6  and  O_7 
REMARK    5  A    between atoms: O_7  and  C_8 
REMARK    6  A    between atoms: C_8  and  C_9 
ROOT
HETATM    1  N   UNL     1       8.070  27.026  55.787  1.00  0.00    -0.346 N 
HETATM    2  C   UNL     1       7.779  28.185  55.118  1.00  0.00     0.256 C 
HETATM    3  O   UNL     1       8.679  28.833  54.594  1.00  0.00    -0.267 OA
HETATM    4  H   UNL     1       9.054  26.797  55.735  1.00  0.00     0.163 HD
ENDROOT
BRANCH   1   5
HETATM    5  C   UNL     1       7.166  26.066  56.406  1.00  0.00     0.150 C 
HETATM    6  C   UNL     1       7.371  26.032  57.917  1.00  0.00     0.040 C 
BRANCH   5   7
HETATM    7  C   UNL     1       7.404  24.734  55.757  1.00  0.00     0.127 A 
HETATM    8  N   UNL     1       7.508  23.569  56.372  1.00  0.00    -0.231 NA
HETATM    9  C   UNL     1       7.667  22.634  55.377  1.00  0.00     0.085 A 
HETATM   10  C   UNL     1       7.668  23.235  54.126  1.00  0.00     0.062 A 
HETATM   11  C   UNL     1       7.813  21.242  55.466  1.00  0.00     0.034 A 
HETATM   12  N   UNL     1       7.497  24.569  54.394  1.00  0.00    -0.341 N 
HETATM   13  C   UNL     1       7.810  22.528  52.931  1.00  0.00     0.032 A 
HETATM   14  H   UNL     1       7.435  25.301  53.702  1.00  0.00     0.167 HD
HETATM   15  C   UNL     1       7.954  21.141  53.038  1.00  0.00     0.002 A 
HETATM   16  C   UNL     1       7.955  20.504  54.282  1.00  0.00     0.002 A 
ENDBRANCH   5   7
ENDBRANCH   1   5
BRANCH   2  17
HETATM   17  C   UNL     1       6.392  28.662  55.027  1.00  0.00     0.084 A 
HETATM   18  C   UNL     1       5.504  28.071  54.137  1.00  0.00     0.180 A 
HETATM   19  N   UNL     1       4.209  28.453  54.013  1.00  0.00    -0.236 NA
HETATM   20  C   UNL     1       3.782  29.432  54.845  1.00  0.00     0.119 A 
HETATM   21  C   UNL     1       4.588  30.054  55.786  1.00  0.00     0.020 A 
HETATM   22  C   UNL     1       5.919  29.656  55.884  1.00  0.00     0.023 A 
BRANCH  18  23
HETATM   23  O   UNL     1       5.978  27.117  53.261  1.00  0.00    -0.328 OA
BRANCH  23  24
HETATM   24  C   UNL     1       5.076  26.832  52.185  1.00  0.00     0.248 C 
BRANCH  24  25
HETATM   25  C   UNL     1       5.382  25.504  51.513  1.00  0.00     0.377 C 
HETATM   26  F   UNL     1       6.731  25.355  51.393  1.00  0.00    -0.212 F 
HETATM   27  F   UNL     1       4.963  24.484  52.309  1.00  0.00    -0.212 F 
ENDBRANCH  24  25
ENDBRANCH  23  24
ENDBRANCH  18  23
ENDBRANCH   2  17
TORSDOF 6
ENDMDL
MODEL 4
REMARK VINA RESULT:      -7.9      6.689      9.453
REMARK  6 active torsions:
REMARK  status: ('A' for Active; 'I' for Inactive)
REMARK    1  A    between atoms: C_2  and  N_3 
REMARK    2  A    between atoms: C_2  and  C_17 
REMARK       I    between atoms: N_3  and  C_4 
REMARK    3  A    between atoms: C_4  and  C_5 
REMARK    4  A    between atoms: C_6  and  O_7 
REMARK    5  A    between atoms: O_7  and  C_8 
REMARK    6  A    between atoms: C_8  and  C_9 
ROOT
HETATM    1  N   UNL     1       5.244  25.541  55.199  1.00  0.00    -0.346 N 
HETATM    2  C   UNL     1       5.425  26.342  56.295  1.00  0.00     0.256 C 
HETATM    3  O   UNL     1       4.635  26.286  57.232  1.00  0.00    -0.267 OA
HETATM    4  H   UNL     1       4.451  24.923  55.311  1.00  0.00     0.163 HD
ENDROOT
BRANCH   1   5
HETATM    5  C   UNL     1       6.089  25.383  54.023  1.00  0.00     0.150 C 
HETATM    6  C   UNL     1       5.278  25.582  52.748  1.00  0.00     0.040 C 
BRANCH   5   7
HETATM    7  C   UNL     1       6.725  24.025  54.101  1.00  0.00     0.127 A 
HETATM    8  N   UNL     1       7.137  23.292  53.083  1.00  0.00    -0.231 NA
HETATM    9  C   UNL     1       7.696  22.164  53.634  1.00  0.00     0.085 A 
HETATM   10  C   UNL     1       7.620  22.200  55.020  1.00  0.00     0.062 A 
HETATM   11  C   UNL     1       8.296  21.060  53.012  1.00  0.00     0.034 A 
HETATM   12  N   UNL     1       7.002  23.393  55.292  1.00  0.00    -0.341 N 
HETATM   13  C   UNL     1       8.111  21.186  55.846  1.00  0.00     0.032 A 
HETATM   14  H   UNL     1       6.800  23.751  56.214  1.00  0.00     0.167 HD
HETATM   15  C   UNL     1       8.706  20.093  55.208  1.00  0.00     0.002 A 
HETATM   16  C   UNL     1       8.800  20.027  53.815  1.00  0.00     0.002 A 
ENDBRANCH   5   7
ENDBRANCH   1   5
BRANCH   2  17
HETATM   17  C   UNL     1       6.558  27.274  56.355  1.00  0.00     0.084 A 
HETATM   18  C   UNL     1       6.471  28.525  55.756  1.00  0.00     0.180 A 
HETATM   19  N   UNL     1       7.475  29.437  55.787  1.00  0.00    -0.236 NA
HETATM   20  C   UNL     1       8.585  29.096  56.481  1.00  0.00     0.119 A 
HETATM   21  C   UNL     1       8.746  27.884  57.137  1.00  0.00     0.020 A 
HETATM   22  C   UNL     1       7.709  26.958  57.078  1.00  0.00     0.023 A 
BRANCH  18  23
HETATM   23  O   UNL     1       5.354  28.826  55.007  1.00  0.00    -0.328 OA
BRANCH  23  24
HETATM   24  C   UNL     1       4.688  30.023  55.429  1.00  0.00     0.248 C 
BRANCH  24  25
HETATM   25  C   UNL     1       3.866  29.813  56.689  1.00  0.00     0.377 C 
HETATM   26  F   UNL     1       4.527  30.341  57.757  1.00  0.00    -0.212 F 
HETATM   27  F   UNL     1       2.699  30.504  56.592  1.00  0.00    -0.212 F 
ENDBRANCH  24  25
ENDBRANCH  23  24
ENDBRANCH  18  23
ENDBRANCH   2  17
TORSDOF 6
ENDMDL
MODEL 5
REMARK VINA RESULT:      -7.8      6.388      9.127
REMARK  6 active torsions:
REMARK  status: ('A' for Active; 'I' for Inactive)
REMARK    1  A    between atoms: C_2  and  N_3 
REMARK    2  A    between atoms: C_2  and  C_17 
REMARK       I    between atoms: N_3  and  C_4 
REMARK    3  A    between atoms: C_4  and  C_5 
REMARK    4  A    between atoms: C_6  and  O_7 
REMARK    5  A    between atoms: O_7  and  C_8 
REMARK    6  A    between atoms: C_8  and  C_9 
ROOT
HETATM    1  N   UNL     1       7.951  26.874  55.755  1.00  0.00    -0.346 N 
HETATM    2  C   UNL     1       7.598  28.145  55.382  1.00  0.00     0.256 C 
HETATM    3  O   UNL     1       8.388  28.840  54.752  1.00  0.00    -0.267 OA
HETATM    4  H   UNL     1       8.867  26.621  55.408  1.00  0.00     0.163 HD
ENDROOT
BRANCH   1   5
HETATM    5  C   UNL     1       7.156  25.855  56.426  1.00  0.00     0.150 C 
HETATM    6  C   UNL     1       7.544  25.754  57.897  1.00  0.00     0.040 C 
BRANCH   5   7
HETATM    7  C   UNL     1       7.350  24.565  55.684  1.00  0.00     0.127 A 
HETATM    8  N   UNL     1       7.460  24.422  54.376  1.00  0.00    -0.231 NA
HETATM    9  C   UNL     1       7.678  23.081  54.163  1.00  0.00     0.085 A 
HETATM   10  C   UNL     1       7.695  22.385  55.364  1.00  0.00     0.062 A 
HETATM   11  C   UNL     1       7.877  22.381  52.964  1.00  0.00     0.034 A 
HETATM   12  N   UNL     1       7.487  23.349  56.315  1.00  0.00    -0.341 N 
HETATM   13  C   UNL     1       7.899  21.006  55.452  1.00  0.00     0.032 A 
HETATM   14  H   UNL     1       7.456  23.192  57.311  1.00  0.00     0.167 HD
HETATM   15  C   UNL     1       8.095  20.324  54.247  1.00  0.00     0.002 A 
HETATM   16  C   UNL     1       8.086  20.996  53.022  1.00  0.00     0.002 A 
ENDBRANCH   5   7
ENDBRANCH   1   5
BRANCH   2  17
HETATM   17  C   UNL     1       6.278  28.683  55.738  1.00  0.00     0.084 A 
HETATM   18  C   UNL     1       6.062  29.240  56.992  1.00  0.00     0.180 A 
HETATM   19  N   UNL     1       4.873  29.766  57.379  1.00  0.00    -0.236 NA
HETATM   20  C   UNL     1       3.883  29.773  56.456  1.00  0.00     0.119 A 
HETATM   21  C   UNL     1       4.019  29.269  55.171  1.00  0.00     0.020 A 
HETATM   22  C   UNL     1       5.243  28.719  54.802  1.00  0.00     0.023 A 
BRANCH  18  23
HETATM   23  O   UNL     1       7.068  29.169  57.932  1.00  0.00    -0.328 OA
BRANCH  23  24
HETATM   24  C   UNL     1       7.643  30.442  58.251  1.00  0.00     0.248 C 
BRANCH  24  25
HETATM   25  C   UNL     1       9.161  30.392  58.307  1.00  0.00     0.377 C 
HETATM   26  F   UNL     1       9.567  30.352  59.606  1.00  0.00    -0.212 F 
HETATM   27  F   UNL     1       9.598  29.235  57.742  1.00  0.00    -0.212 F 
ENDBRANCH  24  25
ENDBRANCH  23  24
ENDBRANCH  18  23
ENDBRANCH   2  17
TORSDOF 6
ENDMDL
MODEL 6
REMARK VINA RESULT:      -7.5      2.456      3.256
REMARK  6 active torsions:
REMARK  status: ('A' for Active; 'I' for Inactive)
REMARK    1  A    between atoms: C_2  and  N_3 
REMARK    2  A    between atoms: C_2  and  C_17 
REMARK       I    between atoms: N_3  and  C_4 
REMARK    3  A    between atoms: C_4  and  C_5 
REMARK    4  A    between atoms: C_6  and  O_7 
REMARK    5  A    between atoms: O_7  and  C_8 
REMARK    6  A    between atoms: C_8  and  C_9 
ROOT
HETATM    1  N   UNL     1       4.441  31.981  60.431  1.00  0.00    -0.346 N 
HETATM    2  C   UNL     1       4.186  32.001  61.777  1.00  0.00     0.256 C 
HETATM    3  O   UNL     1       3.416  31.182  62.268  1.00  0.00    -0.267 OA
HETATM    4  H   UNL     1       3.967  31.216  59.970  1.00  0.00     0.163 HD
ENDROOT
BRANCH   1   5
HETATM    5  C   UNL     1       5.369  32.793  59.657  1.00  0.00     0.150 C 
HETATM    6  C   UNL     1       4.622  33.614  58.611  1.00  0.00     0.040 C 
BRANCH   5   7
HETATM    7  C   UNL     1       6.385  31.869  59.051  1.00  0.00     0.127 A 
HETATM    8  N   UNL     1       7.679  32.100  58.924  1.00  0.00    -0.231 NA
HETATM    9  C   UNL     1       8.211  30.960  58.369  1.00  0.00     0.085 A 
HETATM   10  C   UNL     1       7.223  30.011  58.145  1.00  0.00     0.062 A 
HETATM   11  C   UNL     1       9.537  30.658  58.031  1.00  0.00     0.034 A 
HETATM   12  N   UNL     1       6.073  30.610  58.588  1.00  0.00    -0.341 N 
HETATM   13  C   UNL     1       7.473  28.754  57.590  1.00  0.00     0.032 A 
HETATM   14  H   UNL     1       5.155  30.189  58.587  1.00  0.00     0.167 HD
HETATM   15  C   UNL     1       8.802  28.469  57.259  1.00  0.00     0.002 A 
HETATM   16  C   UNL     1       9.820  29.402  57.475  1.00  0.00     0.002 A 
ENDBRANCH   5   7
ENDBRANCH   1   5
BRANCH   2  17
HETATM   17  C   UNL     1       4.827  33.003  62.640  1.00  0.00     0.084 A 
HETATM   18  C   UNL     1       6.154  32.852  63.024  1.00  0.00     0.180 A 
HETATM   19  N   UNL     1       6.809  33.745  63.806  1.00  0.00    -0.236 NA
HETATM   20  C   UNL     1       6.120  34.849  64.177  1.00  0.00     0.119 A 
HETATM   21  C   UNL     1       4.805  35.099  63.813  1.00  0.00     0.020 A 
HETATM   22  C   UNL     1       4.147  34.160  63.023  1.00  0.00     0.023 A 
BRANCH  18  23
HETATM   23  O   UNL     1       6.816  31.692  62.682  1.00  0.00    -0.328 OA
BRANCH  23  24
HETATM   24  C   UNL     1       8.219  31.727  62.975  1.00  0.00     0.248 C 
BRANCH  24  25
HETATM   25  C   UNL     1       9.055  31.104  61.869  1.00  0.00     0.377 C 
HETATM   26  F   UNL     1      10.128  31.901  61.608  1.00  0.00    -0.212 F 
HETATM   27  F   UNL     1       9.564  29.918  62.298  1.00  0.00    -0.212 F 
ENDBRANCH  24  25
ENDBRANCH  23  24
ENDBRANCH  18  23
ENDBRANCH   2  17
TORSDOF 6
ENDMDL
MODEL 7
REMARK VINA RESULT:      -7.5      5.922      9.043
REMARK  6 active torsions:
REMARK  status: ('A' for Active; 'I' for Inactive)
REMARK    1  A    between atoms: C_2  and  N_3 
REMARK    2  A    between atoms: C_2  and  C_17 
REMARK       I    between atoms: N_3  and  C_4 
REMARK    3  A    between atoms: C_4  and  C_5 
REMARK    4  A    between atoms: C_6  and  O_7 
REMARK    5  A    between atoms: O_7  and  C_8 
REMARK    6  A    between atoms: C_8  and  C_9 
ROOT
HETATM    1  N   UNL     1       7.088  29.588  55.827  1.00  0.00    -0.346 N 
HETATM    2  C   UNL     1       7.823  28.516  55.393  1.00  0.00     0.256 C 
HETATM    3  O   UNL     1       8.678  28.670  54.526  1.00  0.00    -0.267 OA
HETATM    4  H   UNL     1       7.381  30.450  55.385  1.00  0.00     0.163 HD
ENDROOT
BRANCH   1   5
HETATM    5  C   UNL     1       6.093  29.654  56.888  1.00  0.00     0.150 C 
HETATM    6  C   UNL     1       4.889  30.479  56.445  1.00  0.00     0.040 C 
BRANCH   5   7
HETATM    7  C   UNL     1       6.765  30.217  58.107  1.00  0.00     0.127 A 
HETATM    8  N   UNL     1       7.930  29.843  58.603  1.00  0.00    -0.231 NA
HETATM    9  C   UNL     1       8.161  30.667  59.679  1.00  0.00     0.085 A 
HETATM   10  C   UNL     1       7.114  31.561  59.852  1.00  0.00     0.062 A 
HETATM   11  C   UNL     1       9.252  30.714  60.558  1.00  0.00     0.034 A 
HETATM   12  N   UNL     1       6.240  31.257  58.841  1.00  0.00    -0.341 N 
HETATM   13  C   UNL     1       7.078  32.519  60.868  1.00  0.00     0.032 A 
HETATM   14  H   UNL     1       5.368  31.730  58.659  1.00  0.00     0.167 HD
HETATM   15  C   UNL     1       8.175  32.552  61.735  1.00  0.00     0.002 A 
HETATM   16  C   UNL     1       9.246  31.667  61.586  1.00  0.00     0.002 A 
ENDBRANCH   5   7
ENDBRANCH   1   5
BRANCH   2  17
HETATM   17  C   UNL     1       7.591  27.180  55.956  1.00  0.00     0.084 A 
HETATM   18  C   UNL     1       6.690  26.311  55.353  1.00  0.00     0.180 A 
HETATM   19  N   UNL     1       6.441  25.059  55.814  1.00  0.00    -0.236 NA
HETATM   20  C   UNL     1       7.155  24.654  56.889  1.00  0.00     0.119 A 
HETATM   21  C   UNL     1       8.098  25.441  57.534  1.00  0.00     0.020 A 
HETATM   22  C   UNL     1       8.325  26.727  57.054  1.00  0.00     0.023 A 
BRANCH  18  23
HETATM   23  O   UNL     1       5.934  26.768  54.296  1.00  0.00    -0.328 OA
BRANCH  23  24
HETATM   24  C   UNL     1       5.108  25.756  53.705  1.00  0.00     0.248 C 
BRANCH  24  25
HETATM   25  C   UNL     1       5.703  25.202  52.421  1.00  0.00     0.377 C 
HETATM   26  F   UNL     1       6.324  24.018  52.682  1.00  0.00    -0.212 F 
HETATM   27  F   UNL     1       4.705  24.916  51.543  1.00  0.00    -0.212 F 
ENDBRANCH  24  25
ENDBRANCH  23  24
ENDBRANCH  18  23
ENDBRANCH   2  17
TORSDOF 6
ENDMDL
MODEL 8
REMARK VINA RESULT:      -7.4      2.632      3.772
REMARK  6 active torsions:
REMARK  status: ('A' for Active; 'I' for Inactive)
REMARK    1  A    between atoms: C_2  and  N_3 
REMARK    2  A    between atoms: C_2  and  C_17 
REMARK       I    between atoms: N_3  and  C_4 
REMARK    3  A    between atoms: C_4  and  C_5 
REMARK    4  A    between atoms: C_6  and  O_7 
REMARK    5  A    between atoms: O_7  and  C_8 
REMARK    6  A    between atoms: C_8  and  C_9 
ROOT
HETATM    1  N   UNL     1       3.304  32.627  61.372  1.00  0.00    -0.346 N 
HETATM    2  C   UNL     1       3.170  33.582  62.346  1.00  0.00     0.256 C 
HETATM    3  O   UNL     1       2.611  33.305  63.402  1.00  0.00    -0.267 OA
HETATM    4  H   UNL     1       2.940  31.732  61.669  1.00  0.00     0.163 HD
ENDROOT
BRANCH   1   5
HETATM    5  C   UNL     1       3.995  32.707  60.092  1.00  0.00     0.150 C 
HETATM    6  C   UNL     1       3.346  31.776  59.073  1.00  0.00     0.040 C 
BRANCH   5   7
HETATM    7  C   UNL     1       5.440  32.384  60.335  1.00  0.00     0.127 A 
HETATM    8  N   UNL     1       6.455  32.682  59.544  1.00  0.00    -0.231 NA
HETATM    9  C   UNL     1       7.581  32.241  60.197  1.00  0.00     0.085 A 
HETATM   10  C   UNL     1       7.253  31.653  61.411  1.00  0.00     0.062 A 
HETATM   11  C   UNL     1       8.929  32.313  59.815  1.00  0.00     0.034 A 
HETATM   12  N   UNL     1       5.888  31.758  61.477  1.00  0.00    -0.341 N 
HETATM   13  C   UNL     1       8.198  31.117  62.288  1.00  0.00     0.032 A 
HETATM   14  H   UNL     1       5.313  31.442  62.244  1.00  0.00     0.167 HD
HETATM   15  C   UNL     1       9.536  31.197  61.891  1.00  0.00     0.002 A 
HETATM   16  C   UNL     1       9.900  31.785  60.677  1.00  0.00     0.002 A 
ENDBRANCH   5   7
ENDBRANCH   1   5
BRANCH   2  17
HETATM   17  C   UNL     1       3.690  34.939  62.132  1.00  0.00     0.084 A 
HETATM   18  C   UNL     1       5.013  35.239  62.432  1.00  0.00     0.180 A 
HETATM   19  N   UNL     1       5.559  36.467  62.245  1.00  0.00    -0.236 NA
HETATM   20  C   UNL     1       4.760  37.410  61.697  1.00  0.00     0.119 A 
HETATM   21  C   UNL     1       3.438  37.191  61.336  1.00  0.00     0.020 A 
HETATM   22  C   UNL     1       2.895  35.928  61.552  1.00  0.00     0.023 A 
BRANCH  18  23
HETATM   23  O   UNL     1       5.790  34.277  63.043  1.00  0.00    -0.328 OA
BRANCH  23  24
HETATM   24  C   UNL     1       6.109  34.583  64.407  1.00  0.00     0.248 C 
BRANCH  24  25
HETATM   25  C   UNL     1       7.006  33.532  65.039  1.00  0.00     0.377 C 
HETATM   26  F   UNL     1       8.229  33.558  64.440  1.00  0.00    -0.212 F 
HETATM   27  F   UNL     1       7.222  33.844  66.344  1.00  0.00    -0.212 F 
ENDBRANCH  24  25
ENDBRANCH  23  24
ENDBRANCH  18  23
ENDBRANCH   2  17
TORSDOF 6
ENDMDL
MODEL 9
REMARK VINA RESULT:      -7.1     10.871     13.113
REMARK  6 active torsions:
REMARK  status: ('A' for Active; 'I' for Inactive)
REMARK    1  A    between atoms: C_2  and  N_3 
REMARK    2  A    between atoms: C_2  and  C_17 
REMARK       I    between atoms: N_3  and  C_4 
REMARK    3  A    between atoms: C_4  and  C_5 
REMARK    4  A    between atoms: C_6  and  O_7 
REMARK    5  A    between atoms: O_7  and  C_8 
REMARK    6  A    between atoms: C_8  and  C_9 
ROOT
HETATM    1  N   UNL     1       5.069  28.378  50.986  1.00  0.00    -0.346 N 
HETATM    2  C   UNL     1       5.112  28.451  49.618  1.00  0.00     0.256 C 
HETATM    3  O   UNL     1       5.932  29.180  49.069  1.00  0.00    -0.267 OA
HETATM    4  H   UNL     1       5.793  28.938  51.416  1.00  0.00     0.163 HD
ENDROOT
BRANCH   1   5
HETATM    5  C   UNL     1       4.246  27.530  51.838  1.00  0.00     0.150 C 
HETATM    6  C   UNL     1       3.568  28.358  52.924  1.00  0.00     0.040 C 
BRANCH   5   7
HETATM    7  C   UNL     1       5.131  26.453  52.396  1.00  0.00     0.127 A 
HETATM    8  N   UNL     1       6.101  25.826  51.757  1.00  0.00    -0.231 NA
HETATM    9  C   UNL     1       6.664  24.972  52.675  1.00  0.00     0.085 A 
HETATM   10  C   UNL     1       6.021  25.070  53.902  1.00  0.00     0.062 A 
HETATM   11  C   UNL     1       7.736  24.079  52.536  1.00  0.00     0.034 A 
HETATM   12  N   UNL     1       5.052  26.018  53.700  1.00  0.00    -0.341 N 
HETATM   13  C   UNL     1       6.381  24.319  55.023  1.00  0.00     0.032 A 
HETATM   14  H   UNL     1       4.404  26.351  54.398  1.00  0.00     0.167 HD
HETATM   15  C   UNL     1       7.452  23.434  54.865  1.00  0.00     0.002 A 
HETATM   16  C   UNL     1       8.122  23.313  53.644  1.00  0.00     0.002 A 
ENDBRANCH   5   7
ENDBRANCH   1   5
BRANCH   2  17
HETATM   17  C   UNL     1       4.179  27.663  48.802  1.00  0.00     0.084 A 
HETATM   18  C   UNL     1       3.118  28.284  48.153  1.00  0.00     0.180 A 
HETATM   19  N   UNL     1       2.230  27.618  47.374  1.00  0.00    -0.236 NA
HETATM   20  C   UNL     1       2.442  26.292  47.207  1.00  0.00     0.119 A 
HETATM   21  C   UNL     1       3.492  25.597  47.789  1.00  0.00     0.020 A 
HETATM   22  C   UNL     1       4.382  26.298  48.597  1.00  0.00     0.023 A 
BRANCH  18  23
HETATM   23  O   UNL     1       2.890  29.623  48.386  1.00  0.00    -0.328 OA
BRANCH  23  24
HETATM   24  C   UNL     1       1.523  29.924  48.698  1.00  0.00     0.248 C 
BRANCH  24  25
HETATM   25  C   UNL     1       1.281  30.017  50.196  1.00  0.00     0.377 C 
HETATM   26  F   UNL     1       1.107  28.766  50.706  1.00  0.00    -0.212 F 
HETATM   27  F   UNL     1       2.389  30.519  50.805  1.00  0.00    -0.212 F 
ENDBRANCH  24  25
ENDBRANCH  23  24
ENDBRANCH  18  23
ENDBRANCH   2  17
TORSDOF 6
ENDMDL
MODEL 10
REMARK VINA RESULT:      -7.0      1.941      3.026
REMARK  6 active torsions:
REMARK  status: ('A' for Active; 'I' for Inactive)
REMARK    1  A    between atoms: C_2  and  N_3 
REMARK    2  A    between atoms: C_2  and  C_17 
REMARK       I    between atoms: N_3  and  C_4 
REMARK    3  A    between atoms: C_4  and  C_5 
REMARK    4  A    between atoms: C_6  and  O_7 
REMARK    5  A    between atoms: O_7  and  C_8 
REMARK    6  A    between atoms: C_8  and  C_9 
ROOT
HETATM    1  N   UNL     1       4.547  31.792  60.551  1.00  0.00    -0.346 N 
HETATM    2  C   UNL     1       3.810  32.067  61.672  1.00  0.00     0.256 C 
HETATM    3  O   UNL     1       3.311  31.150  62.318  1.00  0.00    -0.267 OA
HETATM    4  H   UNL     1       4.639  30.797  60.395  1.00  0.00     0.163 HD
ENDROOT
BRANCH   1   5
HETATM    5  C   UNL     1       5.290  32.702  59.690  1.00  0.00     0.150 C 
HETATM    6  C   UNL     1       4.385  33.272  58.603  1.00  0.00     0.040 C 
BRANCH   5   7
HETATM    7  C   UNL     1       6.461  31.945  59.132  1.00  0.00     0.127 A 
HETATM    8  N   UNL     1       7.728  32.312  59.183  1.00  0.00    -0.231 NA
HETATM    9  C   UNL     1       8.438  31.291  58.598  1.00  0.00     0.085 A 
HETATM   10  C   UNL     1       7.589  30.278  58.172  1.00  0.00     0.062 A 
HETATM   11  C   UNL     1       9.819  31.154  58.397  1.00  0.00     0.034 A 
HETATM   12  N   UNL     1       6.339  30.716  58.524  1.00  0.00    -0.341 N 
HETATM   13  C   UNL     1       8.034  29.114  57.542  1.00  0.00     0.032 A 
HETATM   14  H   UNL     1       5.478  30.211  58.375  1.00  0.00     0.167 HD
HETATM   15  C   UNL     1       9.414  28.994  57.351  1.00  0.00     0.002 A 
HETATM   16  C   UNL     1      10.295  29.994  57.770  1.00  0.00     0.002 A 
ENDBRANCH   5   7
ENDBRANCH   1   5
BRANCH   2  17
HETATM   17  C   UNL     1       3.609  33.456  62.107  1.00  0.00     0.084 A 
HETATM   18  C   UNL     1       4.551  34.082  62.913  1.00  0.00     0.180 A 
HETATM   19  N   UNL     1       4.433  35.365  63.337  1.00  0.00    -0.236 NA
HETATM   20  C   UNL     1       3.353  36.054  62.898  1.00  0.00     0.119 A 
HETATM   21  C   UNL     1       2.381  35.520  62.065  1.00  0.00     0.020 A 
HETATM   22  C   UNL     1       2.515  34.196  61.656  1.00  0.00     0.023 A 
BRANCH  18  23
HETATM   23  O   UNL     1       5.610  33.343  63.394  1.00  0.00    -0.328 OA
BRANCH  23  24
HETATM   24  C   UNL     1       6.857  33.649  62.756  1.00  0.00     0.248 C 
BRANCH  24  25
HETATM   25  C   UNL     1       7.819  32.473  62.776  1.00  0.00     0.377 C 
HETATM   26  F   UNL     1       8.272  32.278  64.046  1.00  0.00    -0.212 F 
HETATM   27  F   UNL     1       7.154  31.336  62.438  1.00  0.00    -0.212 F 
ENDBRANCH  24  25
ENDBRANCH  23  24
ENDBRANCH  18  23
ENDBRANCH   2  17
TORSDOF 6
ENDMDL
