MODEL 1
REMARK VINA RESULT:      -9.4      0.000      0.000
REMARK  5 active torsions:
REMARK  status: ('A' for Active; 'I' for Inactive)
REMARK    1  A    between atoms: C_6  and  N_7 
REMARK       I    between atoms: N_7  and  C_8 
REMARK    2  A    between atoms: C_8  and  C_9 
REMARK    3  A    between atoms: C_9  and  O_10 
REMARK    4  A    between atoms: O_10  and  C_11 
REMARK    5  A    between atoms: C_20  and  C_21 
ROOT
HETATM    1  C   UNL     1       9.059  21.991  54.080  1.00  0.00     0.073 C 
HETATM    2  C   UNL     1       8.441  22.767  55.184  1.00  0.00     0.065 A 
HETATM    3  N   UNL     1       8.714  22.455  56.456  1.00  0.00    -0.177 NA
HETATM    4  N   UNL     1       7.996  23.336  57.170  1.00  0.00    -0.262 N 
HETATM    5  H   UNL     1       8.107  23.336  58.180  1.00  0.00     0.191 HD
HETATM    6  C   UNL     1       7.236  24.185  56.408  1.00  0.00     0.137 A 
HETATM    7  C   UNL     1       7.525  23.853  55.095  1.00  0.00     0.046 A 
ENDROOT
BRANCH   6   8
HETATM    8  N   UNL     1       6.446  25.212  56.887  1.00  0.00    -0.309 N 
HETATM    9  C   UNL     1       6.758  26.534  57.053  1.00  0.00     0.247 C 
HETATM   10  O   UNL     1       5.856  27.318  57.364  1.00  0.00    -0.271 OA
HETATM   11  H   UNL     1       5.504  24.973  57.182  1.00  0.00     0.170 HD
BRANCH   9  12
HETATM   12  C   UNL     1       8.211  26.999  57.011  1.00  0.00     0.278 C 
BRANCH  12  13
HETATM   13  O   UNL     1       8.338  28.308  56.474  1.00  0.00    -0.339 OA
BRANCH  13  14
HETATM   14  C   UNL     1       8.756  29.275  57.353  1.00  0.00     0.108 A 
HETATM   15  C   UNL     1       9.936  29.949  57.011  1.00  0.00     0.152 A 
HETATM   16  F   UNL     1      10.578  29.636  55.875  1.00  0.00    -0.203 F 
HETATM   17  C   UNL     1      10.462  30.951  57.820  1.00  0.00     0.087 A 
HETATM   18  C   UNL     1       9.803  31.272  58.997  1.00  0.00     0.119 A 
HETATM   19  F   UNL     1      10.293  32.235  59.787  1.00  0.00    -0.206 F 
HETATM   20  C   UNL     1       8.640  30.607  59.372  1.00  0.00     0.045 A 
HETATM   21  C   UNL     1       8.115  29.603  58.552  1.00  0.00     0.043 A 
ENDBRANCH  13  14
ENDBRANCH  12  13
ENDBRANCH   9  12
ENDBRANCH   6   8
BRANCH   7  22
HETATM   22  C   UNL     1       6.913  24.468  53.931  1.00  0.00    -0.020 A 
HETATM   23  C   UNL     1       7.706  24.973  52.894  1.00  0.00     0.014 A 
HETATM   24  C   UNL     1       7.110  25.544  51.766  1.00  0.00     0.020 A 
HETATM   25  C   UNL     1       5.720  25.608  51.672  1.00  0.00     0.011 A 
HETATM   26 BR   UNL     1       4.915  26.375  50.144  1.00  0.00    -0.051 Br
HETATM   27  C   UNL     1       4.919  25.107  52.695  1.00  0.00     0.020 A 
HETATM   28  C   UNL     1       5.517  24.534  53.821  1.00  0.00     0.014 A 
ENDBRANCH   7  22
TORSDOF 5
ENDMDL
MODEL 2
REMARK VINA RESULT:      -9.0      1.623      2.089
REMARK  5 active torsions:
REMARK  status: ('A' for Active; 'I' for Inactive)
REMARK    1  A    between atoms: C_6  and  N_7 
REMARK       I    between atoms: N_7  and  C_8 
REMARK    2  A    between atoms: C_8  and  C_9 
REMARK    3  A    between atoms: C_9  and  O_10 
REMARK    4  A    between atoms: O_10  and  C_11 
REMARK    5  A    between atoms: C_20  and  C_21 
ROOT
HETATM    1  C   UNL     1       8.339  23.788  55.078  1.00  0.00     0.073 C 
HETATM    2  C   UNL     1       7.346  24.590  55.834  1.00  0.00     0.065 A 
HETATM    3  N   UNL     1       7.344  24.563  57.172  1.00  0.00    -0.177 NA
HETATM    4  N   UNL     1       6.334  25.380  57.514  1.00  0.00    -0.262 N 
HETATM    5  H   UNL     1       6.191  25.574  58.500  1.00  0.00     0.191 HD
HETATM    6  C   UNL     1       5.656  25.905  56.445  1.00  0.00     0.137 A 
HETATM    7  C   UNL     1       6.311  25.424  55.325  1.00  0.00     0.046 A 
ENDROOT
BRANCH   6   8
HETATM    8  N   UNL     1       4.611  26.806  56.517  1.00  0.00    -0.309 N 
HETATM    9  C   UNL     1       4.633  28.165  56.358  1.00  0.00     0.247 C 
HETATM   10  O   UNL     1       3.558  28.771  56.320  1.00  0.00    -0.271 OA
HETATM   11  H   UNL     1       3.692  26.434  56.734  1.00  0.00     0.170 HD
BRANCH   9  12
HETATM   12  C   UNL     1       5.954  28.929  56.389  1.00  0.00     0.278 C 
BRANCH  12  13
HETATM   13  O   UNL     1       6.669  28.712  57.597  1.00  0.00    -0.339 OA
BRANCH  13  14
HETATM   14  C   UNL     1       7.914  29.283  57.664  1.00  0.00     0.108 A 
HETATM   15  C   UNL     1       8.922  28.647  56.927  1.00  0.00     0.152 A 
HETATM   16  F   UNL     1       8.633  27.552  56.208  1.00  0.00    -0.203 F 
HETATM   17  C   UNL     1      10.227  29.129  56.913  1.00  0.00     0.087 A 
HETATM   18  C   UNL     1      10.529  30.258  57.659  1.00  0.00     0.119 A 
HETATM   19  F   UNL     1      11.779  30.737  57.657  1.00  0.00    -0.206 F 
HETATM   20  C   UNL     1       9.553  30.899  58.416  1.00  0.00     0.045 A 
HETATM   21  C   UNL     1       8.243  30.410  58.423  1.00  0.00     0.043 A 
ENDBRANCH  13  14
ENDBRANCH  12  13
ENDBRANCH   9  12
ENDBRANCH   6   8
BRANCH   7  22
HETATM   22  C   UNL     1       5.913  25.688  53.954  1.00  0.00    -0.020 A 
HETATM   23  C   UNL     1       6.351  26.842  53.295  1.00  0.00     0.014 A 
HETATM   24  C   UNL     1       5.981  27.079  51.968  1.00  0.00     0.020 A 
HETATM   25  C   UNL     1       5.174  26.160  51.297  1.00  0.00     0.011 A 
HETATM   26 BR   UNL     1       4.679  26.478  49.501  1.00  0.00    -0.051 Br
HETATM   27  C   UNL     1       4.733  25.007  51.940  1.00  0.00     0.020 A 
HETATM   28  C   UNL     1       5.105  24.770  53.266  1.00  0.00     0.014 A 
ENDBRANCH   7  22
TORSDOF 5
ENDMDL
MODEL 3
REMARK VINA RESULT:      -8.9      2.529      3.642
REMARK  5 active torsions:
REMARK  status: ('A' for Active; 'I' for Inactive)
REMARK    1  A    between atoms: C_6  and  N_7 
REMARK       I    between atoms: N_7  and  C_8 
REMARK    2  A    between atoms: C_8  and  C_9 
REMARK    3  A    between atoms: C_9  and  O_10 
REMARK    4  A    between atoms: O_10  and  C_11 
REMARK    5  A    between atoms: C_20  and  C_21 
ROOT
HETATM    1  C   UNL     1       5.481  26.860  51.486  1.00  0.00     0.073 C 
HETATM    2  C   UNL     1       6.063  27.301  52.778  1.00  0.00     0.065 A 
HETATM    3  N   UNL     1       5.994  28.589  53.137  1.00  0.00    -0.177 NA
HETATM    4  N   UNL     1       6.611  28.628  54.330  1.00  0.00    -0.262 N 
HETATM    5  H   UNL     1       6.614  29.509  54.836  1.00  0.00     0.191 HD
HETATM    6  C   UNL     1       7.112  27.420  54.739  1.00  0.00     0.137 A 
HETATM    7  C   UNL     1       6.747  26.521  53.752  1.00  0.00     0.046 A 
ENDROOT
BRANCH   6   8
HETATM    8  N   UNL     1       7.746  27.175  55.941  1.00  0.00    -0.309 N 
HETATM    9  C   UNL     1       7.418  27.616  57.195  1.00  0.00     0.247 C 
HETATM   10  O   UNL     1       8.038  27.162  58.160  1.00  0.00    -0.271 OA
HETATM   11  H   UNL     1       8.587  26.606  55.915  1.00  0.00     0.170 HD
BRANCH   9  12
HETATM   12  C   UNL     1       6.421  28.757  57.379  1.00  0.00     0.278 C 
BRANCH  12  13
HETATM   13  O   UNL     1       6.989  30.020  57.063  1.00  0.00    -0.339 OA
BRANCH  13  14
HETATM   14  C   UNL     1       7.570  30.692  58.109  1.00  0.00     0.108 A 
HETATM   15  C   UNL     1       8.968  30.637  58.174  1.00  0.00     0.152 A 
HETATM   16  F   UNL     1       9.655  29.962  57.239  1.00  0.00    -0.203 F 
HETATM   17  C   UNL     1       9.675  31.278  59.186  1.00  0.00     0.087 A 
HETATM   18  C   UNL     1       8.967  31.972  60.157  1.00  0.00     0.119 A 
HETATM   19  F   UNL     1       9.630  32.596  61.138  1.00  0.00    -0.206 F 
HETATM   20  C   UNL     1       7.578  32.027  60.129  1.00  0.00     0.045 A 
HETATM   21  C   UNL     1       6.874  31.383  59.106  1.00  0.00     0.043 A 
ENDBRANCH  13  14
ENDBRANCH  12  13
ENDBRANCH   9  12
ENDBRANCH   6   8
BRANCH   7  22
HETATM   22  C   UNL     1       7.102  25.113  53.740  1.00  0.00    -0.020 A 
HETATM   23  C   UNL     1       7.793  24.563  52.655  1.00  0.00     0.014 A 
HETATM   24  C   UNL     1       8.152  23.212  52.660  1.00  0.00     0.020 A 
HETATM   25  C   UNL     1       7.821  22.410  53.752  1.00  0.00     0.011 A 
HETATM   26 BR   UNL     1       8.311  20.584  53.761  1.00  0.00    -0.051 Br
HETATM   27  C   UNL     1       7.135  22.945  54.839  1.00  0.00     0.020 A 
HETATM   28  C   UNL     1       6.780  24.296  54.834  1.00  0.00     0.014 A 
ENDBRANCH   7  22
TORSDOF 5
ENDMDL
MODEL 4
REMARK VINA RESULT:      -8.8      3.166      4.612
REMARK  5 active torsions:
REMARK  status: ('A' for Active; 'I' for Inactive)
REMARK    1  A    between atoms: C_6  and  N_7 
REMARK       I    between atoms: N_7  and  C_8 
REMARK    2  A    between atoms: C_8  and  C_9 
REMARK    3  A    between atoms: C_9  and  O_10 
REMARK    4  A    between atoms: O_10  and  C_11 
REMARK    5  A    between atoms: C_20  and  C_21 
ROOT
HETATM    1  C   UNL     1       3.820  27.741  53.530  1.00  0.00     0.073 C 
HETATM    2  C   UNL     1       4.984  28.362  54.210  1.00  0.00     0.065 A 
HETATM    3  N   UNL     1       4.938  29.650  54.571  1.00  0.00    -0.177 NA
HETATM    4  N   UNL     1       6.134  29.873  55.139  1.00  0.00    -0.262 N 
HETATM    5  H   UNL     1       6.299  30.781  55.563  1.00  0.00     0.191 HD
HETATM    6  C   UNL     1       6.969  28.786  55.125  1.00  0.00     0.137 A 
HETATM    7  C   UNL     1       6.234  27.769  54.542  1.00  0.00     0.046 A 
ENDROOT
BRANCH   6   8
HETATM    8  N   UNL     1       8.232  28.732  55.683  1.00  0.00    -0.309 N 
HETATM    9  C   UNL     1       8.598  28.832  56.998  1.00  0.00     0.247 C 
HETATM   10  O   UNL     1       9.775  28.612  57.300  1.00  0.00    -0.271 OA
HETATM   11  H   UNL     1       9.015  28.620  55.047  1.00  0.00     0.170 HD
BRANCH   9  12
HETATM   12  C   UNL     1       7.614  29.359  58.039  1.00  0.00     0.278 C 
BRANCH  12  13
HETATM   13  O   UNL     1       7.763  30.754  58.258  1.00  0.00    -0.339 OA
BRANCH  13  14
HETATM   14  C   UNL     1       8.016  31.131  59.553  1.00  0.00     0.108 A 
HETATM   15  C   UNL     1       7.068  31.979  60.141  1.00  0.00     0.152 A 
HETATM   16  F   UNL     1       5.990  32.363  59.442  1.00  0.00    -0.203 F 
HETATM   17  C   UNL     1       7.209  32.430  61.449  1.00  0.00     0.087 A 
HETATM   18  C   UNL     1       8.325  32.038  62.173  1.00  0.00     0.119 A 
HETATM   19  F   UNL     1       8.478  32.462  63.434  1.00  0.00    -0.206 F 
HETATM   20  C   UNL     1       9.292  31.214  61.608  1.00  0.00     0.045 A 
HETATM   21  C   UNL     1       9.142  30.760  60.294  1.00  0.00     0.043 A 
ENDBRANCH  13  14
ENDBRANCH  12  13
ENDBRANCH   9  12
ENDBRANCH   6   8
BRANCH   7  22
HETATM   22  C   UNL     1       6.733  26.431  54.277  1.00  0.00    -0.020 A 
HETATM   23  C   UNL     1       6.490  25.390  55.181  1.00  0.00     0.014 A 
HETATM   24  C   UNL     1       6.955  24.100  54.909  1.00  0.00     0.020 A 
HETATM   25  C   UNL     1       7.662  23.849  53.733  1.00  0.00     0.011 A 
HETATM   26 BR   UNL     1       8.285  22.103  53.364  1.00  0.00    -0.051 Br
HETATM   27  C   UNL     1       7.909  24.875  52.825  1.00  0.00     0.020 A 
HETATM   28  C   UNL     1       7.441  26.164  53.097  1.00  0.00     0.014 A 
ENDBRANCH   7  22
TORSDOF 5
ENDMDL
MODEL 5
REMARK VINA RESULT:      -8.8      4.365      7.159
REMARK  5 active torsions:
REMARK  status: ('A' for Active; 'I' for Inactive)
REMARK    1  A    between atoms: C_6  and  N_7 
REMARK       I    between atoms: N_7  and  C_8 
REMARK    2  A    between atoms: C_8  and  C_9 
REMARK    3  A    between atoms: C_9  and  O_10 
REMARK    4  A    between atoms: O_10  and  C_11 
REMARK    5  A    between atoms: C_20  and  C_21 
ROOT
HETATM    1  C   UNL     1       5.372  27.762  50.890  1.00  0.00     0.073 C 
HETATM    2  C   UNL     1       5.258  26.772  51.990  1.00  0.00     0.065 A 
HETATM    3  N   UNL     1       5.248  25.462  51.713  1.00  0.00    -0.177 NA
HETATM    4  N   UNL     1       5.128  24.875  52.915  1.00  0.00    -0.262 N 
HETATM    5  H   UNL     1       5.175  23.861  52.957  1.00  0.00     0.191 HD
HETATM    6  C   UNL     1       5.022  25.756  53.958  1.00  0.00     0.137 A 
HETATM    7  C   UNL     1       5.127  27.013  53.386  1.00  0.00     0.046 A 
ENDROOT
BRANCH   6   8
HETATM    8  N   UNL     1       4.936  25.418  55.295  1.00  0.00    -0.309 N 
HETATM    9  C   UNL     1       5.937  25.315  56.223  1.00  0.00     0.247 C 
HETATM   10  O   UNL     1       5.627  25.138  57.405  1.00  0.00    -0.271 OA
HETATM   11  H   UNL     1       4.015  25.192  55.658  1.00  0.00     0.170 HD
BRANCH   9  12
HETATM   12  C   UNL     1       7.398  25.261  55.786  1.00  0.00     0.278 C 
BRANCH  12  13
HETATM   13  O   UNL     1       8.012  24.026  56.125  1.00  0.00    -0.339 OA
BRANCH  13  14
HETATM   14  C   UNL     1       8.031  23.077  55.134  1.00  0.00     0.108 A 
HETATM   15  C   UNL     1       8.042  21.743  55.560  1.00  0.00     0.152 A 
HETATM   16  F   UNL     1       8.024  21.460  56.872  1.00  0.00    -0.203 F 
HETATM   17  C   UNL     1       8.060  20.689  54.653  1.00  0.00     0.087 A 
HETATM   18  C   UNL     1       8.083  20.978  53.296  1.00  0.00     0.119 A 
HETATM   19  F   UNL     1       8.101  19.977  52.408  1.00  0.00    -0.206 F 
HETATM   20  C   UNL     1       8.094  22.293  52.844  1.00  0.00     0.045 A 
HETATM   21  C   UNL     1       8.071  23.348  53.763  1.00  0.00     0.043 A 
ENDBRANCH  13  14
ENDBRANCH  12  13
ENDBRANCH   9  12
ENDBRANCH   6   8
BRANCH   7  22
HETATM   22  C   UNL     1       5.026  28.266  54.114  1.00  0.00    -0.020 A 
HETATM   23  C   UNL     1       3.871  29.050  54.022  1.00  0.00     0.014 A 
HETATM   24  C   UNL     1       3.771  30.244  54.742  1.00  0.00     0.020 A 
HETATM   25  C   UNL     1       4.827  30.654  55.556  1.00  0.00     0.011 A 
HETATM   26 BR   UNL     1       4.690  32.266  56.533  1.00  0.00    -0.051 Br
HETATM   27  C   UNL     1       5.981  29.883  55.657  1.00  0.00     0.020 A 
HETATM   28  C   UNL     1       6.078  28.688  54.939  1.00  0.00     0.014 A 
ENDBRANCH   7  22
TORSDOF 5
ENDMDL
MODEL 6
REMARK VINA RESULT:      -8.7      1.066      1.518
REMARK  5 active torsions:
REMARK  status: ('A' for Active; 'I' for Inactive)
REMARK    1  A    between atoms: C_6  and  N_7 
REMARK       I    between atoms: N_7  and  C_8 
REMARK    2  A    between atoms: C_8  and  C_9 
REMARK    3  A    between atoms: C_9  and  O_10 
REMARK    4  A    between atoms: O_10  and  C_11 
REMARK    5  A    between atoms: C_20  and  C_21 
ROOT
HETATM    1  C   UNL     1       8.550  22.879  54.913  1.00  0.00     0.073 C 
HETATM    2  C   UNL     1       8.001  24.003  55.711  1.00  0.00     0.065 A 
HETATM    3  N   UNL     1       8.273  24.090  57.019  1.00  0.00    -0.177 NA
HETATM    4  N   UNL     1       7.625  25.198  57.414  1.00  0.00    -0.262 N 
HETATM    5  H   UNL     1       7.752  25.508  58.373  1.00  0.00     0.191 HD
HETATM    6  C   UNL     1       6.910  25.811  56.419  1.00  0.00     0.137 A 
HETATM    7  C   UNL     1       7.156  25.063  55.280  1.00  0.00     0.046 A 
ENDROOT
BRANCH   6   8
HETATM    8  N   UNL     1       6.197  26.987  56.545  1.00  0.00    -0.309 N 
HETATM    9  C   UNL     1       6.546  28.253  56.161  1.00  0.00     0.247 C 
HETATM   10  O   UNL     1       5.698  29.147  56.237  1.00  0.00    -0.271 OA
HETATM   11  H   UNL     1       5.290  26.932  57.000  1.00  0.00     0.170 HD
BRANCH   9  12
HETATM   12  C   UNL     1       7.993  28.583  55.801  1.00  0.00     0.278 C 
BRANCH  12  13
HETATM   13  O   UNL     1       8.875  28.383  56.896  1.00  0.00    -0.339 OA
BRANCH  13  14
HETATM   14  C   UNL     1       8.979  29.431  57.777  1.00  0.00     0.108 A 
HETATM   15  C   UNL     1      10.035  30.323  57.548  1.00  0.00     0.152 A 
HETATM   16  F   UNL     1      10.863  30.126  56.510  1.00  0.00    -0.203 F 
HETATM   17  C   UNL     1      10.247  31.425  58.369  1.00  0.00     0.087 A 
HETATM   18  C   UNL     1       9.396  31.628  59.445  1.00  0.00     0.119 A 
HETATM   19  F   UNL     1       9.584  32.684  60.246  1.00  0.00    -0.206 F 
HETATM   20  C   UNL     1       8.352  30.748  59.709  1.00  0.00     0.045 A 
HETATM   21  C   UNL     1       8.142  29.644  58.876  1.00  0.00     0.043 A 
ENDBRANCH  13  14
ENDBRANCH  12  13
ENDBRANCH   9  12
ENDBRANCH   6   8
BRANCH   7  22
HETATM   22  C   UNL     1       6.567  25.319  53.977  1.00  0.00    -0.020 A 
HETATM   23  C   UNL     1       5.368  24.700  53.605  1.00  0.00     0.014 A 
HETATM   24  C   UNL     1       4.795  24.967  52.358  1.00  0.00     0.020 A 
HETATM   25  C   UNL     1       5.420  25.856  51.483  1.00  0.00     0.011 A 
HETATM   26 BR   UNL     1       4.642  26.222  49.800  1.00  0.00    -0.051 Br
HETATM   27  C   UNL     1       6.612  26.480  51.842  1.00  0.00     0.020 A 
HETATM   28  C   UNL     1       7.182  26.213  53.090  1.00  0.00     0.014 A 
ENDBRANCH   7  22
TORSDOF 5
ENDMDL
MODEL 7
REMARK VINA RESULT:      -8.6      4.978      7.124
REMARK  5 active torsions:
REMARK  status: ('A' for Active; 'I' for Inactive)
REMARK    1  A    between atoms: C_6  and  N_7 
REMARK       I    between atoms: N_7  and  C_8 
REMARK    2  A    between atoms: C_8  and  C_9 
REMARK    3  A    between atoms: C_9  and  O_10 
REMARK    4  A    between atoms: O_10  and  C_11 
REMARK    5  A    between atoms: C_20  and  C_21 
ROOT
HETATM    1  C   UNL     1      11.360  29.702  57.046  1.00  0.00     0.073 C 
HETATM    2  C   UNL     1      10.243  30.407  57.723  1.00  0.00     0.065 A 
HETATM    3  N   UNL     1      10.489  31.501  58.455  1.00  0.00    -0.177 NA
HETATM    4  N   UNL     1       9.280  31.865  58.914  1.00  0.00    -0.262 N 
HETATM    5  H   UNL     1       9.211  32.729  59.442  1.00  0.00     0.191 HD
HETATM    6  C   UNL     1       8.264  31.025  58.536  1.00  0.00     0.137 A 
HETATM    7  C   UNL     1       8.861  30.069  57.732  1.00  0.00     0.046 A 
ENDROOT
BRANCH   6   8
HETATM    8  N   UNL     1       6.925  31.196  58.830  1.00  0.00    -0.309 N 
HETATM    9  C   UNL     1       6.349  31.936  59.826  1.00  0.00     0.247 C 
HETATM   10  O   UNL     1       5.122  32.069  59.827  1.00  0.00    -0.271 OA
HETATM   11  H   UNL     1       6.257  30.697  58.252  1.00  0.00     0.170 HD
BRANCH   9  12
HETATM   12  C   UNL     1       7.186  32.450  60.995  1.00  0.00     0.278 C 
BRANCH  12  13
HETATM   13  O   UNL     1       6.953  31.711  62.185  1.00  0.00    -0.339 OA
BRANCH  13  14
HETATM   14  C   UNL     1       6.693  32.455  63.308  1.00  0.00     0.108 A 
HETATM   15  C   UNL     1       5.341  32.670  63.603  1.00  0.00     0.152 A 
HETATM   16  F   UNL     1       4.393  32.148  62.810  1.00  0.00    -0.203 F 
HETATM   17  C   UNL     1       4.947  33.407  64.715  1.00  0.00     0.087 A 
HETATM   18  C   UNL     1       5.925  33.951  65.534  1.00  0.00     0.119 A 
HETATM   19  F   UNL     1       5.566  34.663  66.609  1.00  0.00    -0.206 F 
HETATM   20  C   UNL     1       7.276  33.772  65.254  1.00  0.00     0.045 A 
HETATM   21  C   UNL     1       7.664  33.026  64.137  1.00  0.00     0.043 A 
ENDBRANCH  13  14
ENDBRANCH  12  13
ENDBRANCH   9  12
ENDBRANCH   6   8
BRANCH   7  22
HETATM   22  C   UNL     1       8.171  28.940  57.134  1.00  0.00    -0.020 A 
HETATM   23  C   UNL     1       7.803  28.966  55.784  1.00  0.00     0.014 A 
HETATM   24  C   UNL     1       7.158  27.867  55.209  1.00  0.00     0.020 A 
HETATM   25  C   UNL     1       6.882  26.740  55.984  1.00  0.00     0.011 A 
HETATM   26 BR   UNL     1       6.015  25.252  55.205  1.00  0.00    -0.051 Br
HETATM   27  C   UNL     1       7.244  26.701  57.328  1.00  0.00     0.020 A 
HETATM   28  C   UNL     1       7.891  27.800  57.900  1.00  0.00     0.014 A 
ENDBRANCH   7  22
TORSDOF 5
ENDMDL
MODEL 8
REMARK VINA RESULT:      -8.4      4.244      8.076
REMARK  5 active torsions:
REMARK  status: ('A' for Active; 'I' for Inactive)
REMARK    1  A    between atoms: C_6  and  N_7 
REMARK       I    between atoms: N_7  and  C_8 
REMARK    2  A    between atoms: C_8  and  C_9 
REMARK    3  A    between atoms: C_9  and  O_10 
REMARK    4  A    between atoms: O_10  and  C_11 
REMARK    5  A    between atoms: C_20  and  C_21 
ROOT
HETATM    1  C   UNL     1      11.451  30.491  57.627  1.00  0.00     0.073 C 
HETATM    2  C   UNL     1      10.183  29.980  57.050  1.00  0.00     0.065 A 
HETATM    3  N   UNL     1      10.179  29.420  55.834  1.00  0.00    -0.177 NA
HETATM    4  N   UNL     1       8.894  29.085  55.632  1.00  0.00    -0.262 N 
HETATM    5  H   UNL     1       8.663  28.569  54.789  1.00  0.00     0.191 HD
HETATM    6  C   UNL     1       8.058  29.443  56.657  1.00  0.00     0.137 A 
HETATM    7  C   UNL     1       8.878  30.012  57.616  1.00  0.00     0.046 A 
ENDROOT
BRANCH   6   8
HETATM    8  N   UNL     1       6.704  29.175  56.724  1.00  0.00    -0.309 N 
HETATM    9  C   UNL     1       6.069  27.968  56.840  1.00  0.00     0.247 C 
HETATM   10  O   UNL     1       4.849  27.961  57.029  1.00  0.00    -0.271 OA
HETATM   11  H   UNL     1       6.072  29.967  56.663  1.00  0.00     0.170 HD
BRANCH   9  12
HETATM   12  C   UNL     1       6.823  26.667  56.583  1.00  0.00     0.278 C 
BRANCH  12  13
HETATM   13  O   UNL     1       7.235  26.546  55.230  1.00  0.00    -0.339 OA
BRANCH  13  14
HETATM   14  C   UNL     1       7.380  25.264  54.763  1.00  0.00     0.108 A 
HETATM   15  C   UNL     1       7.722  25.138  53.410  1.00  0.00     0.152 A 
HETATM   16  F   UNL     1       7.896  26.237  52.660  1.00  0.00    -0.203 F 
HETATM   17  C   UNL     1       7.898  23.892  52.817  1.00  0.00     0.087 A 
HETATM   18  C   UNL     1       7.713  22.755  53.589  1.00  0.00     0.119 A 
HETATM   19  F   UNL     1       7.879  21.547  53.036  1.00  0.00    -0.206 F 
HETATM   20  C   UNL     1       7.354  22.849  54.929  1.00  0.00     0.045 A 
HETATM   21  C   UNL     1       7.183  24.105  55.519  1.00  0.00     0.043 A 
ENDBRANCH  13  14
ENDBRANCH  12  13
ENDBRANCH   9  12
ENDBRANCH   6   8
BRANCH   7  22
HETATM   22  C   UNL     1       8.417  30.580  58.871  1.00  0.00    -0.020 A 
HETATM   23  C   UNL     1       9.062  30.267  60.073  1.00  0.00     0.014 A 
HETATM   24  C   UNL     1       8.626  30.835  61.274  1.00  0.00     0.020 A 
HETATM   25  C   UNL     1       7.547  31.717  61.273  1.00  0.00     0.011 A 
HETATM   26 BR   UNL     1       6.962  32.489  62.897  1.00  0.00    -0.051 Br
HETATM   27  C   UNL     1       6.897  32.039  60.084  1.00  0.00     0.020 A 
HETATM   28  C   UNL     1       7.335  31.473  58.884  1.00  0.00     0.014 A 
ENDBRANCH   7  22
TORSDOF 5
ENDMDL
MODEL 9
REMARK VINA RESULT:      -8.4      3.141      4.561
REMARK  5 active torsions:
REMARK  status: ('A' for Active; 'I' for Inactive)
REMARK    1  A    between atoms: C_6  and  N_7 
REMARK       I    between atoms: N_7  and  C_8 
REMARK    2  A    between atoms: C_8  and  C_9 
REMARK    3  A    between atoms: C_9  and  O_10 
REMARK    4  A    between atoms: O_10  and  C_11 
REMARK    5  A    between atoms: C_20  and  C_21 
ROOT
HETATM    1  C   UNL     1       5.144  26.941  49.214  1.00  0.00     0.073 C 
HETATM    2  C   UNL     1       4.577  27.393  50.509  1.00  0.00     0.065 A 
HETATM    3  N   UNL     1       3.708  28.411  50.539  1.00  0.00    -0.177 NA
HETATM    4  N   UNL     1       3.415  28.551  51.842  1.00  0.00    -0.262 N 
HETATM    5  H   UNL     1       2.703  29.228  52.101  1.00  0.00     0.191 HD
HETATM    6  C   UNL     1       4.092  27.687  52.662  1.00  0.00     0.137 A 
HETATM    7  C   UNL     1       4.848  26.896  51.814  1.00  0.00     0.046 A 
ENDROOT
BRANCH   6   8
HETATM    8  N   UNL     1       3.941  27.589  54.032  1.00  0.00    -0.309 N 
HETATM    9  C   UNL     1       4.730  28.104  55.025  1.00  0.00     0.247 C 
HETATM   10  O   UNL     1       4.336  28.021  56.192  1.00  0.00    -0.271 OA
HETATM   11  H   UNL     1       3.153  27.048  54.374  1.00  0.00     0.170 HD
BRANCH   9  12
HETATM   12  C   UNL     1       6.130  28.624  54.713  1.00  0.00     0.278 C 
BRANCH  12  13
HETATM   13  O   UNL     1       7.139  27.870  55.370  1.00  0.00    -0.339 OA
BRANCH  13  14
HETATM   14  C   UNL     1       8.152  28.600  55.941  1.00  0.00     0.108 A 
HETATM   15  C   UNL     1       8.002  28.900  57.301  1.00  0.00     0.152 A 
HETATM   16  F   UNL     1       6.918  28.469  57.965  1.00  0.00    -0.203 F 
HETATM   17  C   UNL     1       8.960  29.633  57.994  1.00  0.00     0.087 A 
HETATM   18  C   UNL     1      10.078  30.084  57.309  1.00  0.00     0.119 A 
HETATM   19  F   UNL     1      11.011  30.789  57.959  1.00  0.00    -0.206 F 
HETATM   20  C   UNL     1      10.244  29.818  55.954  1.00  0.00     0.045 A 
HETATM   21  C   UNL     1       9.278  29.078  55.265  1.00  0.00     0.043 A 
ENDBRANCH  13  14
ENDBRANCH  12  13
ENDBRANCH   9  12
ENDBRANCH   6   8
BRANCH   7  22
HETATM   22  C   UNL     1       5.766  25.857  52.247  1.00  0.00    -0.020 A 
HETATM   23  C   UNL     1       7.149  26.035  52.125  1.00  0.00     0.014 A 
HETATM   24  C   UNL     1       8.028  25.040  52.564  1.00  0.00     0.020 A 
HETATM   25  C   UNL     1       7.525  23.868  53.128  1.00  0.00     0.011 A 
HETATM   26 BR   UNL     1       8.714  22.527  53.727  1.00  0.00    -0.051 Br
HETATM   27  C   UNL     1       6.151  23.680  53.257  1.00  0.00     0.020 A 
HETATM   28  C   UNL     1       5.274  24.676  52.820  1.00  0.00     0.014 A 
ENDBRANCH   7  22
TORSDOF 5
ENDMDL
MODEL 10
REMARK VINA RESULT:      -8.4      4.090      8.105
REMARK  5 active torsions:
REMARK  status: ('A' for Active; 'I' for Inactive)
REMARK    1  A    between atoms: C_6  and  N_7 
REMARK       I    between atoms: N_7  and  C_8 
REMARK    2  A    between atoms: C_8  and  C_9 
REMARK    3  A    between atoms: C_9  and  O_10 
REMARK    4  A    between atoms: O_10  and  C_11 
REMARK    5  A    between atoms: C_20  and  C_21 
ROOT
HETATM    1  C   UNL     1      10.558  31.153  58.069  1.00  0.00     0.073 C 
HETATM    2  C   UNL     1       9.610  30.060  57.740  1.00  0.00     0.065 A 
HETATM    3  N   UNL     1      10.033  28.994  57.050  1.00  0.00    -0.177 NA
HETATM    4  N   UNL     1       8.936  28.227  56.930  1.00  0.00    -0.262 N 
HETATM    5  H   UNL     1       9.038  27.314  56.497  1.00  0.00     0.191 HD
HETATM    6  C   UNL     1       7.809  28.775  57.483  1.00  0.00     0.137 A 
HETATM    7  C   UNL     1       8.223  29.970  58.046  1.00  0.00     0.046 A 
ENDROOT
BRANCH   6   8
HETATM    8  N   UNL     1       6.565  28.176  57.540  1.00  0.00    -0.309 N 
HETATM    9  C   UNL     1       6.062  27.159  56.774  1.00  0.00     0.247 C 
HETATM   10  O   UNL     1       4.971  26.673  57.085  1.00  0.00    -0.271 OA
HETATM   11  H   UNL     1       5.909  28.537  58.225  1.00  0.00     0.170 HD
BRANCH   9  12
HETATM   12  C   UNL     1       6.756  26.747  55.479  1.00  0.00     0.278 C 
BRANCH  12  13
HETATM   13  O   UNL     1       7.794  25.805  55.705  1.00  0.00    -0.339 OA
BRANCH  13  14
HETATM   14  C   UNL     1       7.790  24.705  54.883  1.00  0.00     0.108 A 
HETATM   15  C   UNL     1       7.753  23.460  55.524  1.00  0.00     0.152 A 
HETATM   16  F   UNL     1       7.715  23.399  56.864  1.00  0.00    -0.203 F 
HETATM   17  C   UNL     1       7.744  22.271  54.803  1.00  0.00     0.087 A 
HETATM   18  C   UNL     1       7.788  22.331  53.418  1.00  0.00     0.119 A 
HETATM   19  F   UNL     1       7.780  21.197  52.707  1.00  0.00    -0.206 F 
HETATM   20  C   UNL     1       7.845  23.552  52.755  1.00  0.00     0.045 A 
HETATM   21  C   UNL     1       7.850  24.744  53.487  1.00  0.00     0.043 A 
ENDBRANCH  13  14
ENDBRANCH  12  13
ENDBRANCH   9  12
ENDBRANCH   6   8
BRANCH   7  22
HETATM   22  C   UNL     1       7.349  30.919  58.713  1.00  0.00    -0.020 A 
HETATM   23  C   UNL     1       7.580  31.284  60.044  1.00  0.00     0.014 A 
HETATM   24  C   UNL     1       6.748  32.215  60.673  1.00  0.00     0.020 A 
HETATM   25  C   UNL     1       5.686  32.783  59.970  1.00  0.00     0.011 A 
HETATM   26 BR   UNL     1       4.565  34.046  60.820  1.00  0.00    -0.051 Br
HETATM   27  C   UNL     1       5.446  32.430  58.645  1.00  0.00     0.020 A 
HETATM   28  C   UNL     1       6.280  31.501  58.017  1.00  0.00     0.014 A 
ENDBRANCH   7  22
TORSDOF 5
ENDMDL
