MODEL 1
REMARK VINA RESULT:      -9.1      0.000      0.000
REMARK  7 active torsions:
REMARK  status: ('A' for Active; 'I' for Inactive)
REMARK    1  A    between atoms: O_2  and  C_3 
REMARK    2  A    between atoms: C_7  and  C_8 
REMARK    3  A    between atoms: C_8  and  C_9 
REMARK       I    between atoms: C_9  and  N_10 
REMARK    4  A    between atoms: N_10  and  C_11 
REMARK    5  A    between atoms: C_11  and  C_12 
REMARK    6  A    between atoms: C_12  and  N_13 
REMARK    7  A    between atoms: C_12  and  C_19 
ROOT
HETATM    1  C   UNL     1       8.710  28.963  56.947  1.00  0.00     0.222 C 
HETATM    2  N   UNL     1       8.212  29.259  55.692  1.00  0.00    -0.358 N 
HETATM    3  O   UNL     1       8.727  27.801  57.349  1.00  0.00    -0.273 OA
HETATM    4  H   UNL     1       8.413  30.184  55.329  1.00  0.00     0.162 HD
ENDROOT
BRANCH   2   5
HETATM    5  C   UNL     1       8.000  28.219  54.701  1.00  0.00     0.160 C 
BRANCH   5   6
HETATM    6  C   UNL     1       7.060  27.021  55.074  1.00  0.00     0.240 C 
BRANCH   6   7
HETATM    7  N   UNL     1       5.567  27.376  54.975  1.00  0.00    -0.061 N 
HETATM    8  H   UNL     1       5.128  26.491  54.688  1.00  0.00     0.280 HD
HETATM    9  C   UNL     1       5.156  28.400  53.948  1.00  0.00     0.236 C 
HETATM   10  C   UNL     1       4.620  29.554  54.769  1.00  0.00     0.029 C 
HETATM   11  C   UNL     1       3.943  28.861  55.934  1.00  0.00     0.029 C 
HETATM   12  C   UNL     1       4.881  27.720  56.281  1.00  0.00     0.236 C 
ENDBRANCH   6   7
BRANCH   6  13
HETATM   13  C   UNL     1       7.353  25.749  54.270  1.00  0.00    -0.004 A 
HETATM   14  C   UNL     1       7.443  24.495  54.913  1.00  0.00     0.042 A 
HETATM   15 CL   UNL     1       7.168  24.330  56.612  1.00  0.00    -0.084 Cl
HETATM   16  C   UNL     1       7.717  23.328  54.194  1.00  0.00     0.024 A 
HETATM   17  C   UNL     1       7.899  23.382  52.815  1.00  0.00     0.002 A 
HETATM   18  C   UNL     1       7.801  24.600  52.155  1.00  0.00     0.001 A 
HETATM   19  C   UNL     1       7.527  25.770  52.871  1.00  0.00     0.011 A 
ENDBRANCH   6  13
ENDBRANCH   5   6
ENDBRANCH   2   5
BRANCH   1  20
HETATM   20  C   UNL     1       9.254  30.127  57.780  1.00  0.00     0.144 C 
BRANCH  20  21
HETATM   21  C   UNL     1       8.231  30.752  58.671  1.00  0.00    -0.014 A 
HETATM   22  C   UNL     1       8.366  31.067  60.060  1.00  0.00     0.006 A 
HETATM   23  C   UNL     1       7.214  31.758  60.412  1.00  0.00     0.088 A 
HETATM   24  C   UNL     1       9.366  30.894  61.034  1.00  0.00     0.017 A 
HETATM   25  C   UNL     1       6.987  32.331  61.663  1.00  0.00     0.074 A 
HETATM   26  O   UNL     1       6.362  31.814  59.352  1.00  0.00    -0.321 OA
HETATM   27  C   UNL     1       8.014  32.196  62.603  1.00  0.00     0.070 A 
HETATM   28  C   UNL     1       9.173  31.473  62.295  1.00  0.00     0.038 A 
HETATM   29  C   UNL     1       6.969  31.184  58.314  1.00  0.00     0.151 A 
BRANCH  27  30
HETATM   30  O   UNL     1       8.010  32.732  63.864  1.00  0.00    -0.356 OA
HETATM   31  C   UNL     1       6.788  33.296  64.323  1.00  0.00     0.210 C 
ENDBRANCH  27  30
ENDBRANCH  20  21
ENDBRANCH   1  20
TORSDOF 7
ENDMDL
MODEL 2
REMARK VINA RESULT:      -9.0      2.045      3.133
REMARK  7 active torsions:
REMARK  status: ('A' for Active; 'I' for Inactive)
REMARK    1  A    between atoms: O_2  and  C_3 
REMARK    2  A    between atoms: C_7  and  C_8 
REMARK    3  A    between atoms: C_8  and  C_9 
REMARK       I    between atoms: C_9  and  N_10 
REMARK    4  A    between atoms: N_10  and  C_11 
REMARK    5  A    between atoms: C_11  and  C_12 
REMARK    6  A    between atoms: C_12  and  N_13 
REMARK    7  A    between atoms: C_12  and  C_19 
ROOT
HETATM    1  C   UNL     1       9.517  31.566  59.287  1.00  0.00     0.222 C 
HETATM    2  N   UNL     1       8.978  30.301  59.143  1.00  0.00    -0.358 N 
HETATM    3  O   UNL     1      10.083  32.111  58.341  1.00  0.00    -0.273 OA
HETATM    4  H   UNL     1       8.347  29.989  59.872  1.00  0.00     0.162 HD
ENDROOT
BRANCH   2   5
HETATM    5  C   UNL     1       8.771  29.717  57.829  1.00  0.00     0.160 C 
BRANCH   5   6
HETATM    6  C   UNL     1       7.557  28.745  57.635  1.00  0.00     0.240 C 
BRANCH   6   7
HETATM    7  N   UNL     1       6.196  29.442  57.800  1.00  0.00    -0.061 N 
HETATM    8  H   UNL     1       6.134  29.612  58.813  1.00  0.00     0.280 HD
HETATM    9  C   UNL     1       4.959  28.665  57.428  1.00  0.00     0.236 C 
HETATM   10  C   UNL     1       4.380  29.428  56.256  1.00  0.00     0.029 C 
HETATM   11  C   UNL     1       4.684  30.872  56.603  1.00  0.00     0.029 C 
HETATM   12  C   UNL     1       6.083  30.824  57.189  1.00  0.00     0.236 C 
ENDBRANCH   6   7
BRANCH   6  13
HETATM   13  C   UNL     1       7.598  27.982  56.305  1.00  0.00    -0.004 A 
HETATM   14  C   UNL     1       7.424  26.582  56.272  1.00  0.00     0.042 A 
HETATM   15 CL   UNL     1       7.095  25.678  57.710  1.00  0.00    -0.084 Cl
HETATM   16  C   UNL     1       7.467  25.872  55.068  1.00  0.00     0.024 A 
HETATM   17  C   UNL     1       7.677  26.545  53.867  1.00  0.00     0.002 A 
HETATM   18  C   UNL     1       7.837  27.924  53.870  1.00  0.00     0.001 A 
HETATM   19  C   UNL     1       7.794  28.637  55.072  1.00  0.00     0.011 A 
ENDBRANCH   6  13
ENDBRANCH   5   6
ENDBRANCH   2   5
BRANCH   1  20
HETATM   20  C   UNL     1       9.351  32.250  60.647  1.00  0.00     0.144 C 
BRANCH  20  21
HETATM   21  C   UNL     1       7.925  32.423  61.057  1.00  0.00    -0.014 A 
HETATM   22  C   UNL     1       7.420  32.625  62.380  1.00  0.00     0.006 A 
HETATM   23  C   UNL     1       6.061  32.873  62.241  1.00  0.00     0.088 A 
HETATM   24  C   UNL     1       7.981  32.684  63.668  1.00  0.00     0.017 A 
HETATM   25  C   UNL     1       5.208  33.215  63.289  1.00  0.00     0.074 A 
HETATM   26  O   UNL     1       5.698  32.760  60.934  1.00  0.00    -0.321 OA
HETATM   27  C   UNL     1       5.793  33.323  64.555  1.00  0.00     0.070 A 
HETATM   28  C   UNL     1       7.152  33.042  64.739  1.00  0.00     0.038 A 
HETATM   29  C   UNL     1       6.820  32.463  60.229  1.00  0.00     0.151 A 
BRANCH  27  30
HETATM   30  O   UNL     1       5.142  33.701  65.701  1.00  0.00    -0.356 OA
HETATM   31  C   UNL     1       5.912  34.375  66.689  1.00  0.00     0.210 C 
ENDBRANCH  27  30
ENDBRANCH  20  21
ENDBRANCH   1  20
TORSDOF 7
ENDMDL
MODEL 3
REMARK VINA RESULT:      -9.0      2.638      5.869
REMARK  7 active torsions:
REMARK  status: ('A' for Active; 'I' for Inactive)
REMARK    1  A    between atoms: O_2  and  C_3 
REMARK    2  A    between atoms: C_7  and  C_8 
REMARK    3  A    between atoms: C_8  and  C_9 
REMARK       I    between atoms: C_9  and  N_10 
REMARK    4  A    between atoms: N_10  and  C_11 
REMARK    5  A    between atoms: C_11  and  C_12 
REMARK    6  A    between atoms: C_12  and  N_13 
REMARK    7  A    between atoms: C_12  and  C_19 
ROOT
HETATM    1  C   UNL     1       6.377  26.247  52.342  1.00  0.00     0.222 C 
HETATM    2  N   UNL     1       7.584  25.695  52.726  1.00  0.00    -0.358 N 
HETATM    3  O   UNL     1       5.508  25.544  51.829  1.00  0.00    -0.273 OA
HETATM    4  H   UNL     1       8.172  26.260  53.328  1.00  0.00     0.162 HD
ENDROOT
BRANCH   2   5
HETATM    5  C   UNL     1       7.752  24.257  52.842  1.00  0.00     0.160 C 
BRANCH   5   6
HETATM    6  C   UNL     1       7.097  23.532  54.067  1.00  0.00     0.240 C 
BRANCH   6   7
HETATM    7  N   UNL     1       7.273  22.004  54.026  1.00  0.00    -0.061 N 
HETATM    8  H   UNL     1       6.353  21.664  53.716  1.00  0.00     0.280 HD
HETATM    9  C   UNL     1       7.568  21.297  55.324  1.00  0.00     0.236 C 
HETATM   10  C   UNL     1       8.956  20.725  55.129  1.00  0.00     0.029 C 
HETATM   11  C   UNL     1       8.964  20.339  53.662  1.00  0.00     0.029 C 
HETATM   12  C   UNL     1       8.231  21.477  52.977  1.00  0.00     0.236 C 
ENDBRANCH   6   7
BRANCH   6  13
HETATM   13  C   UNL     1       7.571  24.080  55.418  1.00  0.00    -0.004 A 
HETATM   14  C   UNL     1       6.680  24.768  56.269  1.00  0.00     0.042 A 
HETATM   15 CL   UNL     1       5.012  24.969  55.858  1.00  0.00    -0.084 Cl
HETATM   16  C   UNL     1       7.099  25.280  57.501  1.00  0.00     0.024 A 
HETATM   17  C   UNL     1       8.417  25.109  57.917  1.00  0.00     0.002 A 
HETATM   18  C   UNL     1       9.311  24.422  57.106  1.00  0.00     0.001 A 
HETATM   19  C   UNL     1       8.895  23.909  55.874  1.00  0.00     0.011 A 
ENDBRANCH   6  13
ENDBRANCH   5   6
ENDBRANCH   2   5
BRANCH   1  20
HETATM   20  C   UNL     1       6.170  27.741  52.610  1.00  0.00     0.144 C 
BRANCH  20  21
HETATM   21  C   UNL     1       5.772  28.045  54.018  1.00  0.00    -0.014 A 
HETATM   22  C   UNL     1       6.636  28.226  55.144  1.00  0.00     0.006 A 
HETATM   23  C   UNL     1       5.821  28.626  56.194  1.00  0.00     0.088 A 
HETATM   24  C   UNL     1       8.023  28.153  55.364  1.00  0.00     0.017 A 
HETATM   25  C   UNL     1       6.284  29.001  57.456  1.00  0.00     0.074 A 
HETATM   26  O   UNL     1       4.518  28.625  55.800  1.00  0.00    -0.321 OA
HETATM   27  C   UNL     1       7.670  28.975  57.642  1.00  0.00     0.070 A 
HETATM   28  C   UNL     1       8.519  28.539  56.617  1.00  0.00     0.038 A 
HETATM   29  C   UNL     1       4.493  28.249  54.496  1.00  0.00     0.151 A 
BRANCH  27  30
HETATM   30  O   UNL     1       8.325  29.357  58.783  1.00  0.00    -0.356 OA
HETATM   31  C   UNL     1       7.950  30.604  59.356  1.00  0.00     0.210 C 
ENDBRANCH  27  30
ENDBRANCH  20  21
ENDBRANCH   1  20
TORSDOF 7
ENDMDL
MODEL 4
REMARK VINA RESULT:      -8.9      5.376      9.989
REMARK  7 active torsions:
REMARK  status: ('A' for Active; 'I' for Inactive)
REMARK    1  A    between atoms: O_2  and  C_3 
REMARK    2  A    between atoms: C_7  and  C_8 
REMARK    3  A    between atoms: C_8  and  C_9 
REMARK       I    between atoms: C_9  and  N_10 
REMARK    4  A    between atoms: N_10  and  C_11 
REMARK    5  A    between atoms: C_11  and  C_12 
REMARK    6  A    between atoms: C_12  and  N_13 
REMARK    7  A    between atoms: C_12  and  C_19 
ROOT
HETATM    1  C   UNL     1       5.071  26.793  52.095  1.00  0.00     0.222 C 
HETATM    2  N   UNL     1       4.818  25.526  52.585  1.00  0.00    -0.358 N 
HETATM    3  O   UNL     1       5.205  27.742  52.866  1.00  0.00    -0.273 OA
HETATM    4  H   UNL     1       4.927  24.756  51.936  1.00  0.00     0.162 HD
ENDROOT
BRANCH   2   5
HETATM    5  C   UNL     1       5.018  25.208  53.988  1.00  0.00     0.160 C 
BRANCH   5   6
HETATM    6  C   UNL     1       6.483  25.209  54.546  1.00  0.00     0.240 C 
BRANCH   6   7
HETATM    7  N   UNL     1       6.573  25.708  55.998  1.00  0.00    -0.061 N 
HETATM    8  H   UNL     1       6.910  24.885  56.515  1.00  0.00     0.280 HD
HETATM    9  C   UNL     1       5.296  26.135  56.674  1.00  0.00     0.236 C 
HETATM   10  C   UNL     1       5.487  27.615  56.929  1.00  0.00     0.029 C 
HETATM   11  C   UNL     1       6.965  27.719  57.249  1.00  0.00     0.029 C 
HETATM   12  C   UNL     1       7.624  26.766  56.269  1.00  0.00     0.236 C 
ENDBRANCH   6   7
BRANCH   6  13
HETATM   13  C   UNL     1       7.182  23.851  54.413  1.00  0.00    -0.004 A 
HETATM   14  C   UNL     1       7.837  23.492  53.215  1.00  0.00     0.042 A 
HETATM   15 CL   UNL     1       7.934  24.584  51.877  1.00  0.00    -0.084 Cl
HETATM   16  C   UNL     1       8.472  22.255  53.076  1.00  0.00     0.024 A 
HETATM   17  C   UNL     1       8.476  21.348  54.132  1.00  0.00     0.002 A 
HETATM   18  C   UNL     1       7.851  21.681  55.327  1.00  0.00     0.001 A 
HETATM   19  C   UNL     1       7.216  22.918  55.470  1.00  0.00     0.011 A 
ENDBRANCH   6  13
ENDBRANCH   5   6
ENDBRANCH   2   5
BRANCH   1  20
HETATM   20  C   UNL     1       5.204  26.946  50.577  1.00  0.00     0.144 C 
BRANCH  20  21
HETATM   21  C   UNL     1       4.109  27.753  49.961  1.00  0.00    -0.014 A 
HETATM   22  C   UNL     1       3.320  27.415  48.816  1.00  0.00     0.006 A 
HETATM   23  C   UNL     1       2.346  28.400  48.715  1.00  0.00     0.088 A 
HETATM   24  C   UNL     1       3.292  26.350  47.898  1.00  0.00     0.017 A 
HETATM   25  C   UNL     1       1.309  28.393  47.782  1.00  0.00     0.074 A 
HETATM   26  O   UNL     1       2.540  29.347  49.673  1.00  0.00    -0.321 OA
HETATM   27  C   UNL     1       1.264  27.300  46.911  1.00  0.00     0.070 A 
HETATM   28  C   UNL     1       2.252  26.308  46.960  1.00  0.00     0.038 A 
HETATM   29  C   UNL     1       3.618  28.966  50.403  1.00  0.00     0.151 A 
BRANCH  27  30
HETATM   30  O   UNL     1       0.299  27.078  45.965  1.00  0.00    -0.356 OA
HETATM   31  C   UNL     1      -0.847  27.921  46.000  1.00  0.00     0.210 C 
ENDBRANCH  27  30
ENDBRANCH  20  21
ENDBRANCH   1  20
TORSDOF 7
ENDMDL
MODEL 5
REMARK VINA RESULT:      -8.8      1.928      3.426
REMARK  7 active torsions:
REMARK  status: ('A' for Active; 'I' for Inactive)
REMARK    1  A    between atoms: O_2  and  C_3 
REMARK    2  A    between atoms: C_7  and  C_8 
REMARK    3  A    between atoms: C_8  and  C_9 
REMARK       I    between atoms: C_9  and  N_10 
REMARK    4  A    between atoms: N_10  and  C_11 
REMARK    5  A    between atoms: C_11  and  C_12 
REMARK    6  A    between atoms: C_12  and  N_13 
REMARK    7  A    between atoms: C_12  and  C_19 
ROOT
HETATM    1  C   UNL     1       7.116  26.964  56.249  1.00  0.00     0.222 C 
HETATM    2  N   UNL     1       7.362  26.434  54.996  1.00  0.00    -0.358 N 
HETATM    3  O   UNL     1       7.109  26.236  57.240  1.00  0.00    -0.273 OA
HETATM    4  H   UNL     1       7.566  27.093  54.254  1.00  0.00     0.162 HD
ENDROOT
BRANCH   2   5
HETATM    5  C   UNL     1       7.927  25.105  54.839  1.00  0.00     0.160 C 
BRANCH   5   6
HETATM    6  C   UNL     1       6.985  23.955  54.343  1.00  0.00     0.240 C 
BRANCH   6   7
HETATM    7  N   UNL     1       6.386  24.226  52.952  1.00  0.00    -0.061 N 
HETATM    8  H   UNL     1       6.278  23.285  52.549  1.00  0.00     0.280 HD
HETATM    9  C   UNL     1       7.218  25.011  51.971  1.00  0.00     0.236 C 
HETATM   10  C   UNL     1       6.428  26.283  51.749  1.00  0.00     0.029 C 
HETATM   11  C   UNL     1       4.990  25.809  51.809  1.00  0.00     0.029 C 
HETATM   12  C   UNL     1       4.981  24.795  52.937  1.00  0.00     0.236 C 
ENDBRANCH   6   7
BRANCH   6  13
HETATM   13  C   UNL     1       7.651  22.574  54.367  1.00  0.00    -0.004 A 
HETATM   14  C   UNL     1       8.218  22.069  55.558  1.00  0.00     0.042 A 
HETATM   15 CL   UNL     1       8.132  22.950  57.044  1.00  0.00    -0.084 Cl
HETATM   16  C   UNL     1       8.835  20.815  55.594  1.00  0.00     0.024 A 
HETATM   17  C   UNL     1       8.895  20.031  54.445  1.00  0.00     0.002 A 
HETATM   18  C   UNL     1       8.332  20.497  53.264  1.00  0.00     0.001 A 
HETATM   19  C   UNL     1       7.713  21.750  53.224  1.00  0.00     0.011 A 
ENDBRANCH   6  13
ENDBRANCH   5   6
ENDBRANCH   2   5
BRANCH   1  20
HETATM   20  C   UNL     1       6.888  28.476  56.340  1.00  0.00     0.144 C 
BRANCH  20  21
HETATM   21  C   UNL     1       7.964  29.197  57.083  1.00  0.00    -0.014 A 
HETATM   22  C   UNL     1       7.802  30.234  58.056  1.00  0.00     0.006 A 
HETATM   23  C   UNL     1       9.069  30.487  58.564  1.00  0.00     0.088 A 
HETATM   24  C   UNL     1       6.712  30.937  58.598  1.00  0.00     0.017 A 
HETATM   25  C   UNL     1       9.340  31.369  59.610  1.00  0.00     0.074 A 
HETATM   26  O   UNL     1       9.993  29.728  57.913  1.00  0.00    -0.321 OA
HETATM   27  C   UNL     1       8.238  32.019  60.174  1.00  0.00     0.070 A 
HETATM   28  C   UNL     1       6.951  31.818  59.661  1.00  0.00     0.038 A 
HETATM   29  C   UNL     1       9.325  28.973  57.004  1.00  0.00     0.151 A 
BRANCH  27  30
HETATM   30  O   UNL     1       8.284  32.878  61.241  1.00  0.00    -0.356 OA
HETATM   31  C   UNL     1       8.271  32.297  62.539  1.00  0.00     0.210 C 
ENDBRANCH  27  30
ENDBRANCH  20  21
ENDBRANCH   1  20
TORSDOF 7
ENDMDL
MODEL 6
REMARK VINA RESULT:      -8.7      2.343      4.327
REMARK  7 active torsions:
REMARK  status: ('A' for Active; 'I' for Inactive)
REMARK    1  A    between atoms: O_2  and  C_3 
REMARK    2  A    between atoms: C_7  and  C_8 
REMARK    3  A    between atoms: C_8  and  C_9 
REMARK       I    between atoms: C_9  and  N_10 
REMARK    4  A    between atoms: N_10  and  C_11 
REMARK    5  A    between atoms: C_11  and  C_12 
REMARK    6  A    between atoms: C_12  and  N_13 
REMARK    7  A    between atoms: C_12  and  C_19 
ROOT
HETATM    1  C   UNL     1       5.850  27.061  53.459  1.00  0.00     0.222 C 
HETATM    2  N   UNL     1       6.986  26.274  53.471  1.00  0.00    -0.358 N 
HETATM    3  O   UNL     1       4.741  26.547  53.326  1.00  0.00    -0.273 OA
HETATM    4  H   UNL     1       7.841  26.712  53.792  1.00  0.00     0.162 HD
ENDROOT
BRANCH   2   5
HETATM    5  C   UNL     1       6.903  24.835  53.651  1.00  0.00     0.160 C 
BRANCH   5   6
HETATM    6  C   UNL     1       7.877  24.160  54.677  1.00  0.00     0.240 C 
BRANCH   6   7
HETATM    7  N   UNL     1       7.441  24.359  56.139  1.00  0.00    -0.061 N 
HETATM    8  H   UNL     1       7.703  23.472  56.591  1.00  0.00     0.280 HD
HETATM    9  C   UNL     1       5.972  24.551  56.413  1.00  0.00     0.236 C 
HETATM   10  C   UNL     1       5.878  25.958  56.965  1.00  0.00     0.029 C 
HETATM   11  C   UNL     1       7.154  26.095  57.772  1.00  0.00     0.029 C 
HETATM   12  C   UNL     1       8.206  25.408  56.920  1.00  0.00     0.236 C 
ENDBRANCH   6   7
BRANCH   6  13
HETATM   13  C   UNL     1       8.115  22.672  54.397  1.00  0.00    -0.004 A 
HETATM   14  C   UNL     1       8.433  21.783  55.447  1.00  0.00     0.042 A 
HETATM   15 CL   UNL     1       8.507  22.316  57.090  1.00  0.00    -0.084 Cl
HETATM   16  C   UNL     1       8.660  20.425  55.206  1.00  0.00     0.024 A 
HETATM   17  C   UNL     1       8.567  19.919  53.912  1.00  0.00     0.002 A 
HETATM   18  C   UNL     1       8.241  20.768  52.863  1.00  0.00     0.001 A 
HETATM   19  C   UNL     1       8.012  22.127  53.100  1.00  0.00     0.011 A 
ENDBRANCH   6  13
ENDBRANCH   5   6
ENDBRANCH   2   5
BRANCH   1  20
HETATM   20  C   UNL     1       6.038  28.569  53.647  1.00  0.00     0.144 C 
BRANCH  20  21
HETATM   21  C   UNL     1       5.979  29.003  55.075  1.00  0.00    -0.014 A 
HETATM   22  C   UNL     1       7.079  29.198  55.969  1.00  0.00     0.006 A 
HETATM   23  C   UNL     1       6.541  29.735  57.131  1.00  0.00     0.088 A 
HETATM   24  C   UNL     1       8.474  29.033  55.893  1.00  0.00     0.017 A 
HETATM   25  C   UNL     1       7.291  30.162  58.226  1.00  0.00     0.074 A 
HETATM   26  O   UNL     1       5.186  29.807  57.027  1.00  0.00    -0.321 OA
HETATM   27  C   UNL     1       8.680  30.042  58.112  1.00  0.00     0.070 A 
HETATM   28  C   UNL     1       9.255  29.468  56.971  1.00  0.00     0.038 A 
HETATM   29  C   UNL     1       4.851  29.341  55.797  1.00  0.00     0.151 A 
BRANCH  27  30
HETATM   30  O   UNL     1       9.592  30.453  59.048  1.00  0.00    -0.356 OA
HETATM   31  C   UNL     1       9.094  30.761  60.344  1.00  0.00     0.210 C 
ENDBRANCH  27  30
ENDBRANCH  20  21
ENDBRANCH   1  20
TORSDOF 7
ENDMDL
MODEL 7
REMARK VINA RESULT:      -8.5      3.640      6.149
REMARK  7 active torsions:
REMARK  status: ('A' for Active; 'I' for Inactive)
REMARK    1  A    between atoms: O_2  and  C_3 
REMARK    2  A    between atoms: C_7  and  C_8 
REMARK    3  A    between atoms: C_8  and  C_9 
REMARK       I    between atoms: C_9  and  N_10 
REMARK    4  A    between atoms: N_10  and  C_11 
REMARK    5  A    between atoms: C_11  and  C_12 
REMARK    6  A    between atoms: C_12  and  N_13 
REMARK    7  A    between atoms: C_12  and  C_19 
ROOT
HETATM    1  C   UNL     1       4.541  29.661  55.438  1.00  0.00     0.222 C 
HETATM    2  N   UNL     1       4.160  28.640  54.588  1.00  0.00    -0.358 N 
HETATM    3  O   UNL     1       4.755  30.789  54.996  1.00  0.00    -0.273 OA
HETATM    4  H   UNL     1       3.794  27.800  55.021  1.00  0.00     0.162 HD
ENDROOT
BRANCH   2   5
HETATM    5  C   UNL     1       3.692  28.916  53.241  1.00  0.00     0.160 C 
BRANCH   5   6
HETATM    6  C   UNL     1       4.666  28.629  52.047  1.00  0.00     0.240 C 
BRANCH   6   7
HETATM    7  N   UNL     1       5.288  29.906  51.457  1.00  0.00    -0.061 N 
HETATM    8  H   UNL     1       6.142  30.039  52.017  1.00  0.00     0.280 HD
HETATM    9  C   UNL     1       4.505  31.188  51.577  1.00  0.00     0.236 C 
HETATM   10  C   UNL     1       4.187  31.565  50.146  1.00  0.00     0.029 C 
HETATM   11  C   UNL     1       5.426  31.123  49.392  1.00  0.00     0.029 C 
HETATM   12  C   UNL     1       5.796  29.798  50.034  1.00  0.00     0.236 C 
ENDBRANCH   6   7
BRANCH   6  13
HETATM   13  C   UNL     1       5.767  27.619  52.393  1.00  0.00    -0.004 A 
HETATM   14  C   UNL     1       5.866  26.395  51.698  1.00  0.00     0.042 A 
HETATM   15 CL   UNL     1       4.798  26.008  50.393  1.00  0.00    -0.084 Cl
HETATM   16  C   UNL     1       6.860  25.461  52.007  1.00  0.00     0.024 A 
HETATM   17  C   UNL     1       7.784  25.731  53.013  1.00  0.00     0.002 A 
HETATM   18  C   UNL     1       7.719  26.935  53.703  1.00  0.00     0.001 A 
HETATM   19  C   UNL     1       6.727  27.871  53.395  1.00  0.00     0.011 A 
ENDBRANCH   6  13
ENDBRANCH   5   6
ENDBRANCH   2   5
BRANCH   1  20
HETATM   20  C   UNL     1       4.651  29.330  56.929  1.00  0.00     0.144 C 
BRANCH  20  21
HETATM   21  C   UNL     1       5.895  28.583  57.284  1.00  0.00    -0.014 A 
HETATM   22  C   UNL     1       6.147  27.185  57.111  1.00  0.00     0.006 A 
HETATM   23  C   UNL     1       7.478  26.989  57.452  1.00  0.00     0.088 A 
HETATM   24  C   UNL     1       5.406  26.084  56.646  1.00  0.00     0.017 A 
HETATM   25  C   UNL     1       8.155  25.775  57.331  1.00  0.00     0.074 A 
HETATM   26  O   UNL     1       8.025  28.156  57.890  1.00  0.00    -0.321 OA
HETATM   27  C   UNL     1       7.419  24.703  56.816  1.00  0.00     0.070 A 
HETATM   28  C   UNL     1       6.063  24.855  56.498  1.00  0.00     0.038 A 
HETATM   29  C   UNL     1       7.059  29.106  57.811  1.00  0.00     0.151 A 
BRANCH  27  30
HETATM   30  O   UNL     1       7.911  23.448  56.568  1.00  0.00    -0.356 OA
HETATM   31  C   UNL     1       8.975  23.346  55.630  1.00  0.00     0.210 C 
ENDBRANCH  27  30
ENDBRANCH  20  21
ENDBRANCH   1  20
TORSDOF 7
ENDMDL
MODEL 8
REMARK VINA RESULT:      -8.4      2.813      9.004
REMARK  7 active torsions:
REMARK  status: ('A' for Active; 'I' for Inactive)
REMARK    1  A    between atoms: O_2  and  C_3 
REMARK    2  A    between atoms: C_7  and  C_8 
REMARK    3  A    between atoms: C_8  and  C_9 
REMARK       I    between atoms: C_9  and  N_10 
REMARK    4  A    between atoms: N_10  and  C_11 
REMARK    5  A    between atoms: C_11  and  C_12 
REMARK    6  A    between atoms: C_12  and  N_13 
REMARK    7  A    between atoms: C_12  and  C_19 
ROOT
HETATM    1  C   UNL     1       7.775  28.697  56.316  1.00  0.00     0.222 C 
HETATM    2  N   UNL     1       6.712  29.443  56.790  1.00  0.00    -0.358 N 
HETATM    3  O   UNL     1       8.831  28.652  56.945  1.00  0.00    -0.273 OA
HETATM    4  H   UNL     1       5.811  29.279  56.356  1.00  0.00     0.162 HD
ENDROOT
BRANCH   2   5
HETATM    5  C   UNL     1       6.680  29.922  58.161  1.00  0.00     0.160 C 
BRANCH   5   6
HETATM    6  C   UNL     1       6.760  31.468  58.407  1.00  0.00     0.240 C 
BRANCH   6   7
HETATM    7  N   UNL     1       5.391  32.162  58.321  1.00  0.00    -0.061 N 
HETATM    8  H   UNL     1       5.404  32.820  59.112  1.00  0.00     0.280 HD
HETATM    9  C   UNL     1       4.160  31.312  58.503  1.00  0.00     0.236 C 
HETATM   10  C   UNL     1       3.458  31.383  57.164  1.00  0.00     0.029 C 
HETATM   11  C   UNL     1       3.732  32.802  56.708  1.00  0.00     0.029 C 
HETATM   12  C   UNL     1       5.174  33.048  57.110  1.00  0.00     0.236 C 
ENDBRANCH   6   7
BRANCH   6  13
HETATM   13  C   UNL     1       7.454  31.835  59.725  1.00  0.00    -0.004 A 
HETATM   14  C   UNL     1       8.862  31.865  59.813  1.00  0.00     0.042 A 
HETATM   15 CL   UNL     1       9.861  31.552  58.436  1.00  0.00    -0.084 Cl
HETATM   16  C   UNL     1       9.509  32.191  61.010  1.00  0.00     0.024 A 
HETATM   17  C   UNL     1       8.765  32.503  62.144  1.00  0.00     0.002 A 
HETATM   18  C   UNL     1       7.377  32.496  62.081  1.00  0.00     0.001 A 
HETATM   19  C   UNL     1       6.728  32.171  60.886  1.00  0.00     0.011 A 
ENDBRANCH   6  13
ENDBRANCH   5   6
ENDBRANCH   2   5
BRANCH   1  20
HETATM   20  C   UNL     1       7.564  27.923  55.012  1.00  0.00     0.144 C 
BRANCH  20  21
HETATM   21  C   UNL     1       7.247  26.478  55.221  1.00  0.00    -0.014 A 
HETATM   22  C   UNL     1       7.435  25.405  54.294  1.00  0.00     0.006 A 
HETATM   23  C   UNL     1       7.130  24.241  54.986  1.00  0.00     0.088 A 
HETATM   24  C   UNL     1       7.887  25.296  52.967  1.00  0.00     0.017 A 
HETATM   25  C   UNL     1       7.276  22.953  54.469  1.00  0.00     0.074 A 
HETATM   26  O   UNL     1       6.700  24.543  56.241  1.00  0.00    -0.321 OA
HETATM   27  C   UNL     1       7.779  22.860  53.167  1.00  0.00     0.070 A 
HETATM   28  C   UNL     1       8.060  24.014  52.427  1.00  0.00     0.038 A 
HETATM   29  C   UNL     1       6.747  25.893  56.368  1.00  0.00     0.151 A 
BRANCH  27  30
HETATM   30  O   UNL     1       8.047  21.692  52.502  1.00  0.00    -0.356 OA
HETATM   31  C   UNL     1       7.880  20.481  53.229  1.00  0.00     0.210 C 
ENDBRANCH  27  30
ENDBRANCH  20  21
ENDBRANCH   1  20
TORSDOF 7
ENDMDL
MODEL 9
REMARK VINA RESULT:      -8.3      4.554      9.043
REMARK  7 active torsions:
REMARK  status: ('A' for Active; 'I' for Inactive)
REMARK    1  A    between atoms: O_2  and  C_3 
REMARK    2  A    between atoms: C_7  and  C_8 
REMARK    3  A    between atoms: C_8  and  C_9 
REMARK       I    between atoms: C_9  and  N_10 
REMARK    4  A    between atoms: N_10  and  C_11 
REMARK    5  A    between atoms: C_11  and  C_12 
REMARK    6  A    between atoms: C_12  and  N_13 
REMARK    7  A    between atoms: C_12  and  C_19 
ROOT
HETATM    1  C   UNL     1       4.923  28.167  53.063  1.00  0.00     0.222 C 
HETATM    2  N   UNL     1       5.964  27.265  53.182  1.00  0.00    -0.358 N 
HETATM    3  O   UNL     1       3.796  27.868  53.452  1.00  0.00    -0.273 OA
HETATM    4  H   UNL     1       6.900  27.630  53.047  1.00  0.00     0.162 HD
ENDROOT
BRANCH   2   5
HETATM    5  C   UNL     1       5.854  26.098  54.039  1.00  0.00     0.160 C 
BRANCH   5   6
HETATM    6  C   UNL     1       7.134  25.622  54.809  1.00  0.00     0.240 C 
BRANCH   6   7
HETATM    7  N   UNL     1       7.102  25.977  56.306  1.00  0.00    -0.061 N 
HETATM    8  H   UNL     1       7.248  25.071  56.771  1.00  0.00     0.280 HD
HETATM    9  C   UNL     1       5.819  26.534  56.867  1.00  0.00     0.236 C 
HETATM   10  C   UNL     1       6.181  27.941  57.295  1.00  0.00     0.029 C 
HETATM   11  C   UNL     1       7.605  27.791  57.796  1.00  0.00     0.029 C 
HETATM   12  C   UNL     1       8.246  26.835  56.806  1.00  0.00     0.236 C 
ENDBRANCH   6   7
BRANCH   6  13
HETATM   13  C   UNL     1       7.428  24.128  54.630  1.00  0.00    -0.004 A 
HETATM   14  C   UNL     1       7.793  23.612  53.367  1.00  0.00     0.042 A 
HETATM   15 CL   UNL     1       7.985  24.643  51.992  1.00  0.00    -0.084 Cl
HETATM   16  C   UNL     1       8.057  22.251  53.186  1.00  0.00     0.024 A 
HETATM   17  C   UNL     1       7.970  21.373  54.263  1.00  0.00     0.002 A 
HETATM   18  C   UNL     1       7.628  21.856  55.519  1.00  0.00     0.001 A 
HETATM   19  C   UNL     1       7.364  23.216  55.704  1.00  0.00     0.011 A 
ENDBRANCH   6  13
ENDBRANCH   5   6
ENDBRANCH   2   5
BRANCH   1  20
HETATM   20  C   UNL     1       5.246  29.537  52.460  1.00  0.00     0.144 C 
BRANCH  20  21
HETATM   21  C   UNL     1       5.278  29.539  50.967  1.00  0.00    -0.014 A 
HETATM   22  C   UNL     1       4.962  28.454  50.090  1.00  0.00     0.006 A 
HETATM   23  C   UNL     1       5.000  28.974  48.804  1.00  0.00     0.088 A 
HETATM   24  C   UNL     1       4.589  27.108  50.256  1.00  0.00     0.017 A 
HETATM   25  C   UNL     1       4.657  28.264  47.653  1.00  0.00     0.074 A 
HETATM   26  O   UNL     1       5.390  30.277  48.839  1.00  0.00    -0.321 OA
HETATM   27  C   UNL     1       4.237  26.943  47.841  1.00  0.00     0.070 A 
HETATM   28  C   UNL     1       4.224  26.374  49.120  1.00  0.00     0.038 A 
HETATM   29  C   UNL     1       5.582  30.604  50.142  1.00  0.00     0.151 A 
BRANCH  27  30
HETATM   30  O   UNL     1       3.806  26.099  46.851  1.00  0.00    -0.356 OA
HETATM   31  C   UNL     1       2.775  25.180  47.190  1.00  0.00     0.210 C 
ENDBRANCH  27  30
ENDBRANCH  20  21
ENDBRANCH   1  20
TORSDOF 7
ENDMDL
MODEL 10
REMARK VINA RESULT:      -8.3      6.993      8.988
REMARK  7 active torsions:
REMARK  status: ('A' for Active; 'I' for Inactive)
REMARK    1  A    between atoms: O_2  and  C_3 
REMARK    2  A    between atoms: C_7  and  C_8 
REMARK    3  A    between atoms: C_8  and  C_9 
REMARK       I    between atoms: C_9  and  N_10 
REMARK    4  A    between atoms: N_10  and  C_11 
REMARK    5  A    between atoms: C_11  and  C_12 
REMARK    6  A    between atoms: C_12  and  N_13 
REMARK    7  A    between atoms: C_12  and  C_19 
ROOT
HETATM    1  C   UNL     1       4.991  27.522  52.707  1.00  0.00     0.222 C 
HETATM    2  N   UNL     1       3.933  27.719  51.840  1.00  0.00    -0.358 N 
HETATM    3  O   UNL     1       5.826  28.408  52.878  1.00  0.00    -0.273 OA
HETATM    4  H   UNL     1       3.169  27.056  51.895  1.00  0.00     0.162 HD
ENDROOT
BRANCH   2   5
HETATM    5  C   UNL     1       3.588  29.047  51.362  1.00  0.00     0.160 C 
BRANCH   5   6
HETATM    6  C   UNL     1       3.681  29.327  49.823  1.00  0.00     0.240 C 
BRANCH   6   7
HETATM    7  N   UNL     1       4.962  30.078  49.424  1.00  0.00    -0.061 N 
HETATM    8  H   UNL     1       5.606  29.325  49.144  1.00  0.00     0.280 HD
HETATM    9  C   UNL     1       5.676  30.864  50.494  1.00  0.00     0.236 C 
HETATM   10  C   UNL     1       5.569  32.302  50.033  1.00  0.00     0.029 C 
HETATM   11  C   UNL     1       5.675  32.187  48.525  1.00  0.00     0.029 C 
HETATM   12  C   UNL     1       4.860  30.951  48.190  1.00  0.00     0.236 C 
ENDBRANCH   6   7
BRANCH   6  13
HETATM   13  C   UNL     1       3.525  28.063  48.968  1.00  0.00    -0.004 A 
HETATM   14  C   UNL     1       2.302  27.775  48.324  1.00  0.00     0.042 A 
HETATM   15 CL   UNL     1       0.955  28.856  48.419  1.00  0.00    -0.084 Cl
HETATM   16  C   UNL     1       2.142  26.624  47.548  1.00  0.00     0.024 A 
HETATM   17  C   UNL     1       3.202  25.736  47.388  1.00  0.00     0.002 A 
HETATM   18  C   UNL     1       4.422  26.002  47.998  1.00  0.00     0.001 A 
HETATM   19  C   UNL     1       4.584  27.153  48.775  1.00  0.00     0.011 A 
ENDBRANCH   6  13
ENDBRANCH   5   6
ENDBRANCH   2   5
BRANCH   1  20
HETATM   20  C   UNL     1       5.051  26.184  53.450  1.00  0.00     0.144 C 
BRANCH  20  21
HETATM   21  C   UNL     1       6.227  25.345  53.072  1.00  0.00    -0.014 A 
HETATM   22  C   UNL     1       6.898  24.376  53.883  1.00  0.00     0.006 A 
HETATM   23  C   UNL     1       7.830  23.761  53.057  1.00  0.00     0.088 A 
HETATM   24  C   UNL     1       6.771  23.915  55.206  1.00  0.00     0.017 A 
HETATM   25  C   UNL     1       8.633  22.685  53.434  1.00  0.00     0.074 A 
HETATM   26  O   UNL     1       7.819  24.344  51.827  1.00  0.00    -0.321 OA
HETATM   27  C   UNL     1       8.456  22.205  54.736  1.00  0.00     0.070 A 
HETATM   28  C   UNL     1       7.553  22.825  55.609  1.00  0.00     0.038 A 
HETATM   29  C   UNL     1       6.871  25.314  51.850  1.00  0.00     0.151 A 
BRANCH  27  30
HETATM   30  O   UNL     1       9.103  21.126  55.279  1.00  0.00    -0.356 OA
HETATM   31  C   UNL     1       8.662  20.684  56.557  1.00  0.00     0.210 C 
ENDBRANCH  27  30
ENDBRANCH  20  21
ENDBRANCH   1  20
TORSDOF 7
ENDMDL
