MODEL 1
REMARK VINA RESULT:      -9.6      0.000      0.000
REMARK  2 active torsions:
REMARK  status: ('A' for Active; 'I' for Inactive)
REMARK    1  A    between atoms: O_2  and  C_3 
REMARK    2  A    between atoms: C_7  and  N_8 
REMARK       I    between atoms: N_8  and  C_9 
REMARK       I    between atoms: C_9  and  N_10 
ROOT
HETATM    1  N   UNL     1       7.664  28.000  56.791  1.00  0.00    -0.309 N 
HETATM    2  C   UNL     1       7.398  26.769  57.346  1.00  0.00     0.323 C 
HETATM    3  N   UNL     1       7.030  25.778  56.443  1.00  0.00    -0.328 N 
HETATM    4  C   UNL     1       6.898  24.415  56.977  1.00  0.00     0.185 C 
HETATM    5  C   UNL     1       7.322  23.458  55.917  1.00  0.00     0.035 A 
HETATM    6  C   UNL     1       7.542  23.740  54.583  1.00  0.00    -0.020 A 
HETATM    7  C   UNL     1       7.375  25.121  54.051  1.00  0.00     0.061 C 
HETATM    8  C   UNL     1       6.554  25.964  55.051  1.00  0.00     0.132 C 
HETATM    9  N   UNL     1       7.571  22.129  56.120  1.00  0.00    -0.357 N 
HETATM   10  H   UNL     1       7.499  21.643  57.003  1.00  0.00     0.166 HD
HETATM   11  C   UNL     1       7.960  21.543  54.934  1.00  0.00     0.043 A 
HETATM   12  C   UNL     1       7.954  22.537  53.950  1.00  0.00    -0.001 A 
HETATM   13  C   UNL     1       8.325  20.218  54.665  1.00  0.00     0.030 A 
HETATM   14  C   UNL     1       8.696  19.900  53.355  1.00  0.00     0.002 A 
HETATM   15  C   UNL     1       8.701  20.870  52.355  1.00  0.00     0.001 A 
HETATM   16  C   UNL     1       8.333  22.191  52.639  1.00  0.00     0.014 A 
HETATM   17  O   UNL     1       7.494  26.518  58.546  1.00  0.00    -0.247 OA
HETATM   18  H   UNL     1       7.705  28.035  55.789  1.00  0.00     0.170 HD
ENDROOT
BRANCH   1  19
HETATM   19  C   UNL     1       8.078  29.178  57.452  1.00  0.00     0.038 A 
HETATM   20  C   UNL     1       7.212  30.087  58.062  1.00  0.00     0.056 A 
HETATM   21  C   UNL     1       7.718  31.211  58.726  1.00  0.00     0.069 A 
HETATM   22  C   UNL     1       9.097  31.440  58.793  1.00  0.00     0.090 A 
HETATM   23 CL   UNL     1       6.597  32.285  59.489  1.00  0.00    -0.081 Cl
HETATM   24  C   UNL     1       9.963  30.555  58.148  1.00  0.00     0.041 A 
HETATM   25  C   UNL     1       9.455  29.429  57.491  1.00  0.00     0.032 A 
BRANCH  22  26
HETATM   26  O   UNL     1       9.542  32.563  59.441  1.00  0.00    -0.354 OA
HETATM   27  C   UNL     1       9.834  32.364  60.821  1.00  0.00     0.210 C 
ENDBRANCH  22  26
ENDBRANCH   1  19
TORSDOF 2
ENDMDL
MODEL 2
REMARK VINA RESULT:      -9.0      4.142     10.589
REMARK  2 active torsions:
REMARK  status: ('A' for Active; 'I' for Inactive)
REMARK    1  A    between atoms: O_2  and  C_3 
REMARK    2  A    between atoms: C_7  and  N_8 
REMARK       I    between atoms: N_8  and  C_9 
REMARK       I    between atoms: C_9  and  N_10 
ROOT
HETATM    1  N   UNL     1       6.985  29.860  58.223  1.00  0.00    -0.309 N 
HETATM    2  C   UNL     1       7.930  30.405  59.063  1.00  0.00     0.323 C 
HETATM    3  N   UNL     1       7.496  31.489  59.818  1.00  0.00    -0.328 N 
HETATM    4  C   UNL     1       8.425  31.991  60.841  1.00  0.00     0.185 C 
HETATM    5  C   UNL     1       7.621  32.480  61.997  1.00  0.00     0.035 A 
HETATM    6  C   UNL     1       6.257  32.692  62.030  1.00  0.00    -0.020 A 
HETATM    7  C   UNL     1       5.408  32.423  60.836  1.00  0.00     0.061 C 
HETATM    8  C   UNL     1       6.299  32.329  59.579  1.00  0.00     0.132 C 
HETATM    9  N   UNL     1       8.131  32.787  63.228  1.00  0.00    -0.357 N 
HETATM   10  H   UNL     1       9.102  32.718  63.498  1.00  0.00     0.166 HD
HETATM   11  C   UNL     1       7.112  33.188  64.066  1.00  0.00     0.043 A 
HETATM   12  C   UNL     1       5.920  33.134  63.337  1.00  0.00    -0.001 A 
HETATM   13  C   UNL     1       7.157  33.582  65.409  1.00  0.00     0.030 A 
HETATM   14  C   UNL     1       5.951  33.927  66.026  1.00  0.00     0.002 A 
HETATM   15  C   UNL     1       4.748  33.880  65.324  1.00  0.00     0.001 A 
HETATM   16  C   UNL     1       4.718  33.486  63.981  1.00  0.00     0.014 A 
HETATM   17  O   UNL     1       9.075  29.974  59.183  1.00  0.00    -0.247 OA
HETATM   18  H   UNL     1       6.046  30.197  58.333  1.00  0.00     0.170 HD
ENDROOT
BRANCH   1  19
HETATM   19  C   UNL     1       7.127  28.750  57.362  1.00  0.00     0.038 A 
HETATM   20  C   UNL     1       7.512  27.473  57.776  1.00  0.00     0.056 A 
HETATM   21  C   UNL     1       7.590  26.422  56.854  1.00  0.00     0.069 A 
HETATM   22  C   UNL     1       7.280  26.632  55.504  1.00  0.00     0.090 A 
HETATM   23 CL   UNL     1       8.043  24.856  57.432  1.00  0.00    -0.081 Cl
HETATM   24  C   UNL     1       6.936  27.917  55.080  1.00  0.00     0.041 A 
HETATM   25  C   UNL     1       6.852  28.963  56.005  1.00  0.00     0.032 A 
BRANCH  22  26
HETATM   26  O   UNL     1       7.387  25.576  54.638  1.00  0.00    -0.354 OA
HETATM   27  C   UNL     1       6.141  24.989  54.275  1.00  0.00     0.210 C 
ENDBRANCH  22  26
ENDBRANCH   1  19
TORSDOF 2
ENDMDL
MODEL 3
REMARK VINA RESULT:      -9.0      3.565     10.088
REMARK  2 active torsions:
REMARK  status: ('A' for Active; 'I' for Inactive)
REMARK    1  A    between atoms: O_2  and  C_3 
REMARK    2  A    between atoms: C_7  and  N_8 
REMARK       I    between atoms: N_8  and  C_9 
REMARK       I    between atoms: C_9  and  N_10 
ROOT
HETATM    1  N   UNL     1       6.720  28.973  57.246  1.00  0.00    -0.309 N 
HETATM    2  C   UNL     1       7.778  29.364  58.033  1.00  0.00     0.323 C 
HETATM    3  N   UNL     1       7.599  30.564  58.713  1.00  0.00    -0.328 N 
HETATM    4  C   UNL     1       8.638  30.930  59.687  1.00  0.00     0.185 C 
HETATM    5  C   UNL     1       7.984  31.652  60.814  1.00  0.00     0.035 A 
HETATM    6  C   UNL     1       6.694  32.145  60.848  1.00  0.00    -0.020 A 
HETATM    7  C   UNL     1       5.776  31.979  59.686  1.00  0.00     0.061 C 
HETATM    8  C   UNL     1       6.596  31.617  58.429  1.00  0.00     0.132 C 
HETATM    9  N   UNL     1       8.578  31.929  62.013  1.00  0.00    -0.357 N 
HETATM   10  H   UNL     1       9.521  31.678  62.276  1.00  0.00     0.166 HD
HETATM   11  C   UNL     1       7.687  32.589  62.833  1.00  0.00     0.043 A 
HETATM   12  C   UNL     1       6.491  32.735  62.123  1.00  0.00    -0.001 A 
HETATM   13  C   UNL     1       7.848  33.055  64.143  1.00  0.00     0.030 A 
HETATM   14  C   UNL     1       6.756  33.685  64.748  1.00  0.00     0.002 A 
HETATM   15  C   UNL     1       5.552  33.842  64.066  1.00  0.00     0.001 A 
HETATM   16  C   UNL     1       5.406  33.373  62.755  1.00  0.00     0.014 A 
HETATM   17  O   UNL     1       8.812  28.714  58.170  1.00  0.00    -0.247 OA
HETATM   18  H   UNL     1       5.874  29.505  57.342  1.00  0.00     0.170 HD
ENDROOT
BRANCH   1  19
HETATM   19  C   UNL     1       6.606  27.801  56.465  1.00  0.00     0.038 A 
HETATM   20  C   UNL     1       7.195  27.627  55.211  1.00  0.00     0.056 A 
HETATM   21  C   UNL     1       7.058  26.414  54.525  1.00  0.00     0.069 A 
HETATM   22  C   UNL     1       6.332  25.356  55.085  1.00  0.00     0.090 A 
HETATM   23 CL   UNL     1       7.837  26.249  52.990  1.00  0.00    -0.081 Cl
HETATM   24  C   UNL     1       5.707  25.541  56.319  1.00  0.00     0.041 A 
HETATM   25  C   UNL     1       5.852  26.752  57.005  1.00  0.00     0.032 A 
BRANCH  22  26
HETATM   26  O   UNL     1       6.213  24.195  54.368  1.00  0.00    -0.354 OA
HETATM   27  C   UNL     1       7.167  23.193  54.713  1.00  0.00     0.210 C 
ENDBRANCH  22  26
ENDBRANCH   1  19
TORSDOF 2
ENDMDL
MODEL 4
REMARK VINA RESULT:      -8.8      2.792      3.711
REMARK  2 active torsions:
REMARK  status: ('A' for Active; 'I' for Inactive)
REMARK    1  A    between atoms: O_2  and  C_3 
REMARK    2  A    between atoms: C_7  and  N_8 
REMARK       I    between atoms: N_8  and  C_9 
REMARK       I    between atoms: C_9  and  N_10 
ROOT
HETATM    1  N   UNL     1       6.212  28.556  56.903  1.00  0.00    -0.309 N 
HETATM    2  C   UNL     1       6.650  28.168  55.657  1.00  0.00     0.323 C 
HETATM    3  N   UNL     1       7.417  27.009  55.634  1.00  0.00    -0.328 N 
HETATM    4  C   UNL     1       7.763  26.476  54.308  1.00  0.00     0.185 C 
HETATM    5  C   UNL     1       7.801  24.989  54.401  1.00  0.00     0.035 A 
HETATM    6  C   UNL     1       7.788  24.228  55.554  1.00  0.00    -0.020 A 
HETATM    7  C   UNL     1       7.721  24.868  56.897  1.00  0.00     0.061 C 
HETATM    8  C   UNL     1       8.100  26.360  56.778  1.00  0.00     0.132 C 
HETATM    9  N   UNL     1       7.843  24.141  53.330  1.00  0.00    -0.357 N 
HETATM   10  H   UNL     1       7.852  24.418  52.358  1.00  0.00     0.166 HD
HETATM   11  C   UNL     1       7.849  22.834  53.771  1.00  0.00     0.043 A 
HETATM   12  C   UNL     1       7.812  22.861  55.169  1.00  0.00    -0.001 A 
HETATM   13  C   UNL     1       7.874  21.640  53.040  1.00  0.00     0.030 A 
HETATM   14  C   UNL     1       7.858  20.440  53.757  1.00  0.00     0.002 A 
HETATM   15  C   UNL     1       7.818  20.437  55.149  1.00  0.00     0.001 A 
HETATM   16  C   UNL     1       7.795  21.639  55.867  1.00  0.00     0.014 A 
HETATM   17  O   UNL     1       6.380  28.763  54.616  1.00  0.00    -0.247 OA
HETATM   18  H   UNL     1       6.362  27.903  57.650  1.00  0.00     0.170 HD
ENDROOT
BRANCH   1  19
HETATM   19  C   UNL     1       5.404  29.668  57.231  1.00  0.00     0.038 A 
HETATM   20  C   UNL     1       5.804  30.717  58.061  1.00  0.00     0.056 A 
HETATM   21  C   UNL     1       4.947  31.798  58.300  1.00  0.00     0.069 A 
HETATM   22  C   UNL     1       3.678  31.847  57.710  1.00  0.00     0.090 A 
HETATM   23 CL   UNL     1       5.510  33.082  59.313  1.00  0.00    -0.081 Cl
HETATM   24  C   UNL     1       3.259  30.779  56.914  1.00  0.00     0.041 A 
HETATM   25  C   UNL     1       4.121  29.704  56.671  1.00  0.00     0.032 A 
BRANCH  22  26
HETATM   26  O   UNL     1       2.869  32.918  57.988  1.00  0.00    -0.354 OA
HETATM   27  C   UNL     1       2.916  33.954  57.011  1.00  0.00     0.210 C 
ENDBRANCH  22  26
ENDBRANCH   1  19
TORSDOF 2
ENDMDL
MODEL 5
REMARK VINA RESULT:      -8.8      7.589     10.005
REMARK  2 active torsions:
REMARK  status: ('A' for Active; 'I' for Inactive)
REMARK    1  A    between atoms: O_2  and  C_3 
REMARK    2  A    between atoms: C_7  and  N_8 
REMARK       I    between atoms: N_8  and  C_9 
REMARK       I    between atoms: C_9  and  N_10 
ROOT
HETATM    1  N   UNL     1       5.595  26.028  50.786  1.00  0.00    -0.309 N 
HETATM    2  C   UNL     1       5.333  27.337  50.451  1.00  0.00     0.323 C 
HETATM    3  N   UNL     1       4.706  27.520  49.224  1.00  0.00    -0.328 N 
HETATM    4  C   UNL     1       4.264  28.887  48.908  1.00  0.00     0.185 C 
HETATM    5  C   UNL     1       3.009  28.795  48.110  1.00  0.00     0.035 A 
HETATM    6  C   UNL     1       2.478  27.663  47.523  1.00  0.00    -0.020 A 
HETATM    7  C   UNL     1       3.151  26.341  47.654  1.00  0.00     0.061 C 
HETATM    8  C   UNL     1       4.612  26.548  48.109  1.00  0.00     0.132 C 
HETATM    9  N   UNL     1       2.175  29.845  47.844  1.00  0.00    -0.357 N 
HETATM   10  H   UNL     1       2.307  30.797  48.156  1.00  0.00     0.166 HD
HETATM   11  C   UNL     1       1.100  29.409  47.099  1.00  0.00     0.043 A 
HETATM   12  C   UNL     1       1.265  28.036  46.885  1.00  0.00    -0.001 A 
HETATM   13  C   UNL     1      -0.002  30.120  46.610  1.00  0.00     0.030 A 
HETATM   14  C   UNL     1      -0.965  29.411  45.886  1.00  0.00     0.002 A 
HETATM   15  C   UNL     1      -0.827  28.043  45.660  1.00  0.00     0.001 A 
HETATM   16  C   UNL     1       0.281  27.344  46.154  1.00  0.00     0.014 A 
HETATM   17  O   UNL     1       5.595  28.298  51.171  1.00  0.00    -0.247 OA
HETATM   18  H   UNL     1       5.191  25.328  50.191  1.00  0.00     0.170 HD
ENDROOT
BRANCH   1  19
HETATM   19  C   UNL     1       6.196  25.538  51.967  1.00  0.00     0.038 A 
HETATM   20  C   UNL     1       5.627  25.628  53.239  1.00  0.00     0.056 A 
HETATM   21  C   UNL     1       6.281  25.080  54.349  1.00  0.00     0.069 A 
HETATM   22  C   UNL     1       7.512  24.430  54.202  1.00  0.00     0.090 A 
HETATM   23 CL   UNL     1       5.512  25.196  55.893  1.00  0.00    -0.081 Cl
HETATM   24  C   UNL     1       8.104  24.375  52.939  1.00  0.00     0.041 A 
HETATM   25  C   UNL     1       7.445  24.918  51.831  1.00  0.00     0.032 A 
BRANCH  22  26
HETATM   26  O   UNL     1       8.121  23.924  55.321  1.00  0.00    -0.354 OA
HETATM   27  C   UNL     1       7.952  22.519  55.493  1.00  0.00     0.210 C 
ENDBRANCH  22  26
ENDBRANCH   1  19
TORSDOF 2
ENDMDL
MODEL 6
REMARK VINA RESULT:      -8.7      3.347      9.323
REMARK  2 active torsions:
REMARK  status: ('A' for Active; 'I' for Inactive)
REMARK    1  A    between atoms: O_2  and  C_3 
REMARK    2  A    between atoms: C_7  and  N_8 
REMARK       I    between atoms: N_8  and  C_9 
REMARK       I    between atoms: C_9  and  N_10 
ROOT
HETATM    1  N   UNL     1       7.499  26.240  55.600  1.00  0.00    -0.309 N 
HETATM    2  C   UNL     1       8.071  26.927  56.647  1.00  0.00     0.323 C 
HETATM    3  N   UNL     1       7.788  28.287  56.688  1.00  0.00    -0.328 N 
HETATM    4  C   UNL     1       8.245  29.019  57.879  1.00  0.00     0.185 C 
HETATM    5  C   UNL     1       7.251  30.089  58.175  1.00  0.00     0.035 A 
HETATM    6  C   UNL     1       6.227  30.522  57.356  1.00  0.00    -0.020 A 
HETATM    7  C   UNL     1       6.001  29.909  56.017  1.00  0.00     0.061 C 
HETATM    8  C   UNL     1       7.263  29.130  55.587  1.00  0.00     0.132 C 
HETATM    9  N   UNL     1       7.203  30.809  59.336  1.00  0.00    -0.357 N 
HETATM   10  H   UNL     1       7.827  30.701  60.124  1.00  0.00     0.166 HD
HETATM   11  C   UNL     1       6.152  31.701  59.287  1.00  0.00     0.043 A 
HETATM   12  C   UNL     1       5.519  31.538  58.051  1.00  0.00    -0.001 A 
HETATM   13  C   UNL     1       5.713  32.625  60.243  1.00  0.00     0.030 A 
HETATM   14  C   UNL     1       4.595  33.402  59.930  1.00  0.00     0.002 A 
HETATM   15  C   UNL     1       3.942  33.260  58.707  1.00  0.00     0.001 A 
HETATM   16  C   UNL     1       4.393  32.333  57.760  1.00  0.00     0.014 A 
HETATM   17  O   UNL     1       8.766  26.404  57.516  1.00  0.00    -0.247 OA
HETATM   18  H   UNL     1       6.827  26.745  55.052  1.00  0.00     0.170 HD
ENDROOT
BRANCH   1  19
HETATM   19  C   UNL     1       7.590  24.860  55.315  1.00  0.00     0.038 A 
HETATM   20  C   UNL     1       7.889  23.876  56.260  1.00  0.00     0.056 A 
HETATM   21  C   UNL     1       7.920  22.526  55.892  1.00  0.00     0.069 A 
HETATM   22  C   UNL     1       7.650  22.139  54.574  1.00  0.00     0.090 A 
HETATM   23 CL   UNL     1       8.266  21.351  57.114  1.00  0.00    -0.081 Cl
HETATM   24  C   UNL     1       7.393  23.122  53.618  1.00  0.00     0.041 A 
HETATM   25  C   UNL     1       7.355  24.470  53.990  1.00  0.00     0.032 A 
BRANCH  22  26
HETATM   26  O   UNL     1       7.709  20.806  54.260  1.00  0.00    -0.354 OA
HETATM   27  C   UNL     1       8.282  20.531  52.984  1.00  0.00     0.210 C 
ENDBRANCH  22  26
ENDBRANCH   1  19
TORSDOF 2
ENDMDL
MODEL 7
REMARK VINA RESULT:      -8.6      2.814      4.725
REMARK  2 active torsions:
REMARK  status: ('A' for Active; 'I' for Inactive)
REMARK    1  A    between atoms: O_2  and  C_3 
REMARK    2  A    between atoms: C_7  and  N_8 
REMARK       I    between atoms: N_8  and  C_9 
REMARK       I    between atoms: C_9  and  N_10 
ROOT
HETATM    1  N   UNL     1       7.602  30.836  59.490  1.00  0.00    -0.309 N 
HETATM    2  C   UNL     1       7.013  30.844  58.246  1.00  0.00     0.323 C 
HETATM    3  N   UNL     1       7.493  29.890  57.357  1.00  0.00    -0.328 N 
HETATM    4  C   UNL     1       6.778  29.761  56.078  1.00  0.00     0.185 C 
HETATM    5  C   UNL     1       6.815  28.329  55.668  1.00  0.00     0.035 A 
HETATM    6  C   UNL     1       7.595  27.329  56.213  1.00  0.00    -0.020 A 
HETATM    7  C   UNL     1       8.524  27.607  57.344  1.00  0.00     0.061 C 
HETATM    8  C   UNL     1       8.762  29.129  57.454  1.00  0.00     0.132 C 
HETATM    9  N   UNL     1       6.054  27.783  54.673  1.00  0.00    -0.357 N 
HETATM   10  H   UNL     1       5.382  28.279  54.104  1.00  0.00     0.166 HD
HETATM   11  C   UNL     1       6.322  26.434  54.569  1.00  0.00     0.043 A 
HETATM   12  C   UNL     1       7.288  26.122  55.531  1.00  0.00    -0.001 A 
HETATM   13  C   UNL     1       5.778  25.474  53.707  1.00  0.00     0.030 A 
HETATM   14  C   UNL     1       6.230  24.157  53.834  1.00  0.00     0.002 A 
HETATM   15  C   UNL     1       7.189  23.817  54.785  1.00  0.00     0.001 A 
HETATM   16  C   UNL     1       7.726  24.787  55.639  1.00  0.00     0.014 A 
HETATM   17  O   UNL     1       6.107  31.608  57.917  1.00  0.00    -0.247 OA
HETATM   18  H   UNL     1       8.213  30.065  59.687  1.00  0.00     0.170 HD
ENDROOT
BRANCH   1  19
HETATM   19  C   UNL     1       7.307  31.666  60.594  1.00  0.00     0.038 A 
HETATM   20  C   UNL     1       6.284  32.615  60.619  1.00  0.00     0.056 A 
HETATM   21  C   UNL     1       6.042  33.368  61.774  1.00  0.00     0.069 A 
HETATM   22  C   UNL     1       6.817  33.178  62.925  1.00  0.00     0.090 A 
HETATM   23 CL   UNL     1       4.741  34.507  61.753  1.00  0.00    -0.081 Cl
HETATM   24  C   UNL     1       7.868  32.260  62.890  1.00  0.00     0.041 A 
HETATM   25  C   UNL     1       8.103  31.505  61.736  1.00  0.00     0.032 A 
BRANCH  22  26
HETATM   26  O   UNL     1       6.552  33.950  64.025  1.00  0.00    -0.354 OA
HETATM   27  C   UNL     1       7.155  33.481  65.228  1.00  0.00     0.210 C 
ENDBRANCH  22  26
ENDBRANCH   1  19
TORSDOF 2
ENDMDL
MODEL 8
REMARK VINA RESULT:      -8.4      5.805      9.044
REMARK  2 active torsions:
REMARK  status: ('A' for Active; 'I' for Inactive)
REMARK    1  A    between atoms: O_2  and  C_3 
REMARK    2  A    between atoms: C_7  and  N_8 
REMARK       I    between atoms: N_8  and  C_9 
REMARK       I    between atoms: C_9  and  N_10 
ROOT
HETATM    1  N   UNL     1       6.922  25.600  53.508  1.00  0.00    -0.309 N 
HETATM    2  C   UNL     1       5.670  26.072  53.830  1.00  0.00     0.323 C 
HETATM    3  N   UNL     1       5.323  27.281  53.237  1.00  0.00    -0.328 N 
HETATM    4  C   UNL     1       3.936  27.733  53.426  1.00  0.00     0.185 C 
HETATM    5  C   UNL     1       3.511  28.453  52.194  1.00  0.00     0.035 A 
HETATM    6  C   UNL     1       4.319  28.877  51.158  1.00  0.00    -0.020 A 
HETATM    7  C   UNL     1       5.787  28.625  51.176  1.00  0.00     0.061 C 
HETATM    8  C   UNL     1       6.233  28.269  52.610  1.00  0.00     0.132 C 
HETATM    9  N   UNL     1       2.222  28.799  51.898  1.00  0.00    -0.357 N 
HETATM   10  H   UNL     1       1.412  28.608  52.473  1.00  0.00     0.166 HD
HETATM   11  C   UNL     1       2.179  29.435  50.675  1.00  0.00     0.043 A 
HETATM   12  C   UNL     1       3.488  29.495  50.186  1.00  0.00    -0.001 A 
HETATM   13  C   UNL     1       1.086  29.950  49.968  1.00  0.00     0.030 A 
HETATM   14  C   UNL     1       1.335  30.539  48.725  1.00  0.00     0.002 A 
HETATM   15  C   UNL     1       2.628  30.609  48.211  1.00  0.00     0.001 A 
HETATM   16  C   UNL     1       3.713  30.092  48.930  1.00  0.00     0.014 A 
HETATM   17  O   UNL     1       4.878  25.483  54.563  1.00  0.00    -0.247 OA
HETATM   18  H   UNL     1       7.407  26.088  52.777  1.00  0.00     0.170 HD
ENDROOT
BRANCH   1  19
HETATM   19  C   UNL     1       7.533  24.400  53.936  1.00  0.00     0.038 A 
HETATM   20  C   UNL     1       7.561  23.219  53.192  1.00  0.00     0.056 A 
HETATM   21  C   UNL     1       8.224  22.088  53.683  1.00  0.00     0.069 A 
HETATM   22  C   UNL     1       8.872  22.122  54.923  1.00  0.00     0.090 A 
HETATM   23 CL   UNL     1       8.250  20.663  52.702  1.00  0.00    -0.081 Cl
HETATM   24  C   UNL     1       8.809  23.288  55.689  1.00  0.00     0.041 A 
HETATM   25  C   UNL     1       8.152  24.419  55.192  1.00  0.00     0.032 A 
BRANCH  22  26
HETATM   26  O   UNL     1       9.493  20.984  55.367  1.00  0.00    -0.354 OA
HETATM   27  C   UNL     1       8.739  20.242  56.322  1.00  0.00     0.210 C 
ENDBRANCH  22  26
ENDBRANCH   1  19
TORSDOF 2
ENDMDL
MODEL 9
REMARK VINA RESULT:      -8.2      5.411      9.477
REMARK  2 active torsions:
REMARK  status: ('A' for Active; 'I' for Inactive)
REMARK    1  A    between atoms: O_2  and  C_3 
REMARK    2  A    between atoms: C_7  and  N_8 
REMARK       I    between atoms: N_8  and  C_9 
REMARK       I    between atoms: C_9  and  N_10 
ROOT
HETATM    1  N   UNL     1       6.037  28.479  52.932  1.00  0.00    -0.309 N 
HETATM    2  C   UNL     1       5.316  28.756  54.071  1.00  0.00     0.323 C 
HETATM    3  N   UNL     1       6.048  28.748  55.253  1.00  0.00    -0.328 N 
HETATM    4  C   UNL     1       5.347  29.199  56.464  1.00  0.00     0.185 C 
HETATM    5  C   UNL     1       6.333  29.895  57.339  1.00  0.00     0.035 A 
HETATM    6  C   UNL     1       7.707  29.899  57.203  1.00  0.00    -0.020 A 
HETATM    7  C   UNL     1       8.371  29.167  56.088  1.00  0.00     0.061 C 
HETATM    8  C   UNL     1       7.384  28.149  55.478  1.00  0.00     0.132 C 
HETATM    9  N   UNL     1       6.009  30.659  58.425  1.00  0.00    -0.357 N 
HETATM   10  H   UNL     1       5.073  30.843  58.759  1.00  0.00     0.166 HD
HETATM   11  C   UNL     1       7.157  31.170  58.993  1.00  0.00     0.043 A 
HETATM   12  C   UNL     1       8.241  30.708  58.240  1.00  0.00    -0.001 A 
HETATM   13  C   UNL     1       7.313  32.007  60.104  1.00  0.00     0.030 A 
HETATM   14  C   UNL     1       8.612  32.387  60.454  1.00  0.00     0.002 A 
HETATM   15  C   UNL     1       9.711  31.945  59.721  1.00  0.00     0.001 A 
HETATM   16  C   UNL     1       9.540  31.106  58.613  1.00  0.00     0.014 A 
HETATM   17  O   UNL     1       4.115  29.021  54.079  1.00  0.00    -0.247 OA
HETATM   18  H   UNL     1       7.035  28.437  53.038  1.00  0.00     0.170 HD
ENDROOT
BRANCH   1  19
HETATM   19  C   UNL     1       5.572  28.438  51.599  1.00  0.00     0.038 A 
HETATM   20  C   UNL     1       5.074  27.296  50.971  1.00  0.00     0.056 A 
HETATM   21  C   UNL     1       4.600  27.359  49.655  1.00  0.00     0.069 A 
HETATM   22  C   UNL     1       4.614  28.569  48.949  1.00  0.00     0.090 A 
HETATM   23 CL   UNL     1       3.966  25.917  48.941  1.00  0.00    -0.081 Cl
HETATM   24  C   UNL     1       5.151  29.704  49.560  1.00  0.00     0.041 A 
HETATM   25  C   UNL     1       5.617  29.638  50.877  1.00  0.00     0.032 A 
BRANCH  22  26
HETATM   26  O   UNL     1       4.155  28.577  47.658  1.00  0.00    -0.354 OA
HETATM   27  C   UNL     1       2.828  29.075  47.513  1.00  0.00     0.210 C 
ENDBRANCH  22  26
ENDBRANCH   1  19
TORSDOF 2
ENDMDL
MODEL 10
REMARK VINA RESULT:      -8.2      5.429      6.667
REMARK  2 active torsions:
REMARK  status: ('A' for Active; 'I' for Inactive)
REMARK    1  A    between atoms: O_2  and  C_3 
REMARK    2  A    between atoms: C_7  and  N_8 
REMARK       I    between atoms: N_8  and  C_9 
REMARK       I    between atoms: C_9  and  N_10 
ROOT
HETATM    1  N   UNL     1       5.487  27.698  52.377  1.00  0.00    -0.309 N 
HETATM    2  C   UNL     1       6.012  26.594  51.745  1.00  0.00     0.323 C 
HETATM    3  N   UNL     1       6.948  25.878  52.483  1.00  0.00    -0.328 N 
HETATM    4  C   UNL     1       7.406  24.606  51.907  1.00  0.00     0.185 C 
HETATM    5  C   UNL     1       7.668  23.658  53.027  1.00  0.00     0.035 A 
HETATM    6  C   UNL     1       7.743  23.961  54.372  1.00  0.00    -0.020 A 
HETATM    7  C   UNL     1       7.544  25.355  54.858  1.00  0.00     0.061 C 
HETATM    8  C   UNL     1       7.692  26.339  53.679  1.00  0.00     0.132 C 
HETATM    9  N   UNL     1       7.868  22.313  52.880  1.00  0.00    -0.357 N 
HETATM   10  H   UNL     1       7.860  21.807  52.005  1.00  0.00     0.166 HD
HETATM   11  C   UNL     1       8.063  21.734  54.116  1.00  0.00     0.043 A 
HETATM   12  C   UNL     1       7.986  22.751  55.074  1.00  0.00    -0.001 A 
HETATM   13  C   UNL     1       8.290  20.395  54.455  1.00  0.00     0.030 A 
HETATM   14  C   UNL     1       8.439  20.084  55.810  1.00  0.00     0.002 A 
HETATM   15  C   UNL     1       8.365  21.075  56.785  1.00  0.00     0.001 A 
HETATM   16  C   UNL     1       8.139  22.411  56.432  1.00  0.00     0.014 A 
HETATM   17  O   UNL     1       5.681  26.222  50.621  1.00  0.00    -0.247 OA
HETATM   18  H   UNL     1       5.717  27.805  53.349  1.00  0.00     0.170 HD
ENDROOT
BRANCH   1  19
HETATM   19  C   UNL     1       4.511  28.595  51.889  1.00  0.00     0.038 A 
HETATM   20  C   UNL     1       3.569  28.280  50.908  1.00  0.00     0.056 A 
HETATM   21  C   UNL     1       2.613  29.224  50.513  1.00  0.00     0.069 A 
HETATM   22  C   UNL     1       2.583  30.496  51.097  1.00  0.00     0.090 A 
HETATM   23 CL   UNL     1       1.453  28.764  49.315  1.00  0.00    -0.081 Cl
HETATM   24  C   UNL     1       3.550  30.829  52.047  1.00  0.00     0.041 A 
HETATM   25  C   UNL     1       4.499  29.881  52.445  1.00  0.00     0.032 A 
BRANCH  22  26
HETATM   26  O   UNL     1       1.639  31.391  50.665  1.00  0.00    -0.354 OA
HETATM   27  C   UNL     1       1.560  32.580  51.445  1.00  0.00     0.210 C 
ENDBRANCH  22  26
ENDBRANCH   1  19
TORSDOF 2
ENDMDL
