MODEL 1
REMARK VINA RESULT:      -9.8      0.000      0.000
REMARK  8 active torsions:
REMARK  status: ('A' for Active; 'I' for Inactive)
REMARK    1  A    between atoms: C_2  and  N_3 
REMARK    2  A    between atoms: C_2  and  C_23 
REMARK       I    between atoms: N_3  and  C_4 
REMARK    3  A    between atoms: N_3  and  C_16 
REMARK    4  A    between atoms: C_4  and  C_5 
REMARK    5  A    between atoms: C_5  and  N_6 
REMARK    6  A    between atoms: C_16  and  C_17 
REMARK       I    between atoms: C_23  and  N_24 
REMARK    7  A    between atoms: N_24  and  C_25 
REMARK    8  A    between atoms: C_28  and  O_29 
ROOT
HETATM    1  N   UNL     1       7.960  28.869  57.110  1.00  0.00    -0.333 N 
HETATM    2  C   UNL     1       7.600  27.528  57.252  1.00  0.00     0.240 C 
HETATM    3  O   UNL     1       8.137  26.822  58.112  1.00  0.00    -0.271 OA
ENDROOT
BRANCH   1   4
HETATM    4  C   UNL     1       9.058  29.390  57.965  1.00  0.00     0.176 C 
HETATM    5  C   UNL     1      10.372  29.575  57.201  1.00  0.00     0.042 C 
BRANCH   4   6
HETATM    6  C   UNL     1       8.736  30.641  58.836  1.00  0.00     0.244 C 
HETATM    7  N   UNL     1       8.108  30.359  60.039  1.00  0.00    -0.325 N 
HETATM    8  H   UNL     1       7.768  29.411  60.165  1.00  0.00     0.169 HD
HETATM    9  O   UNL     1       9.172  31.744  58.505  1.00  0.00    -0.271 OA
BRANCH   7  10
HETATM   10  C   UNL     1       7.754  31.282  61.050  1.00  0.00     0.035 A 
HETATM   11  C   UNL     1       8.387  31.361  62.292  1.00  0.00     0.032 A 
HETATM   12  C   UNL     1       7.987  32.311  63.238  1.00  0.00     0.039 A 
HETATM   13  C   UNL     1       6.959  33.207  62.958  1.00  0.00     0.068 A 
HETATM   14  C   UNL     1       6.307  33.126  61.729  1.00  0.00     0.039 A 
HETATM   15  C   UNL     1       6.703  32.168  60.783  1.00  0.00     0.032 A 
BRANCH  13  16
HETATM   16  O   UNL     1       6.671  34.088  63.963  1.00  0.00    -0.356 OA
HETATM   17  C   UNL     1       7.107  33.719  65.265  1.00  0.00     0.210 C 
ENDBRANCH  13  16
ENDBRANCH   7  10
ENDBRANCH   4   6
ENDBRANCH   1   4
BRANCH   1  18
HETATM   18  C   UNL     1       7.320  29.826  56.191  1.00  0.00     0.165 C 
BRANCH  18  19
HETATM   19  C   UNL     1       5.856  30.100  56.447  1.00  0.00    -0.040 A 
HETATM   20  C   UNL     1       5.359  30.406  57.722  1.00  0.00     0.009 A 
HETATM   21  C   UNL     1       4.001  30.664  57.919  1.00  0.00     0.001 A 
HETATM   22  C   UNL     1       3.120  30.634  56.840  1.00  0.00     0.000 A 
HETATM   23  C   UNL     1       3.600  30.360  55.563  1.00  0.00     0.001 A 
HETATM   24  C   UNL     1       4.958  30.107  55.366  1.00  0.00     0.009 A 
ENDBRANCH  18  19
ENDBRANCH   1  18
BRANCH   2  25
HETATM   25  C   UNL     1       6.526  26.906  56.381  1.00  0.00     0.250 C 
BRANCH  25  26
HETATM   26  N   UNL     1       7.016  26.305  55.160  1.00  0.00    -0.263 N 
HETATM   27  N   UNL     1       7.221  27.046  54.050  1.00  0.00     0.006 NA
HETATM   28  N   UNL     1       7.559  26.215  53.072  1.00  0.00    -0.158 NA
HETATM   29  C   UNL     1       7.605  24.946  53.587  1.00  0.00     0.102 A 
HETATM   30  C   UNL     1       7.281  24.977  54.938  1.00  0.00     0.079 A 
HETATM   31  C   UNL     1       7.899  23.719  52.976  1.00  0.00     0.035 A 
HETATM   32  C   UNL     1       7.248  23.832  55.740  1.00  0.00     0.033 A 
HETATM   33  C   UNL     1       7.545  22.615  55.115  1.00  0.00     0.002 A 
HETATM   34  C   UNL     1       7.862  22.556  53.757  1.00  0.00     0.002 A 
ENDBRANCH  25  26
ENDBRANCH   2  25
TORSDOF 8
ENDMDL
MODEL 2
REMARK VINA RESULT:      -9.6      3.593      6.746
REMARK  8 active torsions:
REMARK  status: ('A' for Active; 'I' for Inactive)
REMARK    1  A    between atoms: C_2  and  N_3 
REMARK    2  A    between atoms: C_2  and  C_23 
REMARK       I    between atoms: N_3  and  C_4 
REMARK    3  A    between atoms: N_3  and  C_16 
REMARK    4  A    between atoms: C_4  and  C_5 
REMARK    5  A    between atoms: C_5  and  N_6 
REMARK    6  A    between atoms: C_16  and  C_17 
REMARK       I    between atoms: C_23  and  N_24 
REMARK    7  A    between atoms: N_24  and  C_25 
REMARK    8  A    between atoms: C_28  and  O_29 
ROOT
HETATM    1  N   UNL     1       6.374  25.914  53.977  1.00  0.00    -0.333 N 
HETATM    2  C   UNL     1       5.423  26.149  52.983  1.00  0.00     0.240 C 
HETATM    3  O   UNL     1       4.313  26.607  53.273  1.00  0.00    -0.271 OA
ENDROOT
BRANCH   1   4
HETATM    4  C   UNL     1       5.981  26.155  55.390  1.00  0.00     0.176 C 
HETATM    5  C   UNL     1       5.463  24.894  56.088  1.00  0.00     0.042 C 
BRANCH   4   6
HETATM    6  C   UNL     1       7.008  26.909  56.285  1.00  0.00     0.244 C 
HETATM    7  N   UNL     1       6.954  28.291  56.185  1.00  0.00    -0.325 N 
HETATM    8  H   UNL     1       6.389  28.672  55.434  1.00  0.00     0.169 HD
HETATM    9  O   UNL     1       7.674  26.284  57.111  1.00  0.00    -0.271 OA
BRANCH   7  10
HETATM   10  C   UNL     1       7.719  29.227  56.919  1.00  0.00     0.035 A 
HETATM   11  C   UNL     1       7.192  30.065  57.904  1.00  0.00     0.032 A 
HETATM   12  C   UNL     1       8.016  30.958  58.597  1.00  0.00     0.039 A 
HETATM   13  C   UNL     1       9.381  31.023  58.330  1.00  0.00     0.068 A 
HETATM   14  C   UNL     1       9.916  30.205  57.336  1.00  0.00     0.039 A 
HETATM   15  C   UNL     1       9.087  29.314  56.636  1.00  0.00     0.032 A 
BRANCH  13  16
HETATM   16  O   UNL     1      10.075  31.930  59.081  1.00  0.00    -0.356 OA
HETATM   17  C   UNL     1       9.625  32.113  60.417  1.00  0.00     0.210 C 
ENDBRANCH  13  16
ENDBRANCH   7  10
ENDBRANCH   4   6
ENDBRANCH   1   4
BRANCH   1  18
HETATM   18  C   UNL     1       7.757  25.466  53.738  1.00  0.00     0.165 C 
BRANCH  18  19
HETATM   19  C   UNL     1       7.999  23.981  53.887  1.00  0.00    -0.040 A 
HETATM   20  C   UNL     1       7.661  23.060  52.886  1.00  0.00     0.009 A 
HETATM   21  C   UNL     1       7.909  21.696  53.055  1.00  0.00     0.001 A 
HETATM   22  C   UNL     1       8.511  21.234  54.223  1.00  0.00     0.000 A 
HETATM   23  C   UNL     1       8.878  22.137  55.216  1.00  0.00     0.001 A 
HETATM   24  C   UNL     1       8.635  23.501  55.044  1.00  0.00     0.009 A 
ENDBRANCH  18  19
ENDBRANCH   1  18
BRANCH   2  25
HETATM   25  C   UNL     1       5.728  25.877  51.523  1.00  0.00     0.250 C 
BRANCH  25  26
HETATM   26  N   UNL     1       5.287  26.912  50.614  1.00  0.00    -0.263 N 
HETATM   27  N   UNL     1       5.618  28.205  50.815  1.00  0.00     0.006 NA
HETATM   28  N   UNL     1       4.986  28.927  49.897  1.00  0.00    -0.158 NA
HETATM   29  C   UNL     1       4.285  28.070  49.090  1.00  0.00     0.102 A 
HETATM   30  C   UNL     1       4.478  26.761  49.516  1.00  0.00     0.079 A 
HETATM   31  C   UNL     1       3.454  28.321  47.988  1.00  0.00     0.035 A 
HETATM   32  C   UNL     1       3.893  25.659  48.884  1.00  0.00     0.033 A 
HETATM   33  C   UNL     1       3.068  25.927  47.786  1.00  0.00     0.002 A 
HETATM   34  C   UNL     1       2.848  27.234  47.345  1.00  0.00     0.002 A 
ENDBRANCH  25  26
ENDBRANCH   2  25
TORSDOF 8
ENDMDL
MODEL 3
REMARK VINA RESULT:      -9.3      4.266      7.351
REMARK  8 active torsions:
REMARK  status: ('A' for Active; 'I' for Inactive)
REMARK    1  A    between atoms: C_2  and  N_3 
REMARK    2  A    between atoms: C_2  and  C_23 
REMARK       I    between atoms: N_3  and  C_4 
REMARK    3  A    between atoms: N_3  and  C_16 
REMARK    4  A    between atoms: C_4  and  C_5 
REMARK    5  A    between atoms: C_5  and  N_6 
REMARK    6  A    between atoms: C_16  and  C_17 
REMARK       I    between atoms: C_23  and  N_24 
REMARK    7  A    between atoms: N_24  and  C_25 
REMARK    8  A    between atoms: C_28  and  O_29 
ROOT
HETATM    1  N   UNL     1       5.128  32.762  60.977  1.00  0.00    -0.333 N 
HETATM    2  C   UNL     1       6.177  32.470  60.104  1.00  0.00     0.240 C 
HETATM    3  O   UNL     1       6.331  33.123  59.067  1.00  0.00    -0.271 OA
ENDROOT
BRANCH   1   4
HETATM    4  C   UNL     1       4.164  33.821  60.578  1.00  0.00     0.176 C 
HETATM    5  C   UNL     1       2.753  33.281  60.331  1.00  0.00     0.042 C 
BRANCH   4   6
HETATM    6  C   UNL     1       4.127  35.103  61.462  1.00  0.00     0.244 C 
HETATM    7  N   UNL     1       5.373  35.608  61.798  1.00  0.00    -0.325 N 
HETATM    8  H   UNL     1       6.174  35.020  61.592  1.00  0.00     0.169 HD
HETATM    9  O   UNL     1       3.052  35.667  61.675  1.00  0.00    -0.271 OA
BRANCH   7  10
HETATM   10  C   UNL     1       5.643  36.786  62.532  1.00  0.00     0.035 A 
HETATM   11  C   UNL     1       5.314  36.962  63.877  1.00  0.00     0.032 A 
HETATM   12  C   UNL     1       5.624  38.155  64.539  1.00  0.00     0.039 A 
HETATM   13  C   UNL     1       6.282  39.188  63.875  1.00  0.00     0.068 A 
HETATM   14  C   UNL     1       6.600  39.032  62.528  1.00  0.00     0.039 A 
HETATM   15  C   UNL     1       6.280  37.838  61.862  1.00  0.00     0.032 A 
BRANCH  13  16
HETATM   16  O   UNL     1       6.534  40.295  64.636  1.00  0.00    -0.356 OA
HETATM   17  C   UNL     1       7.576  41.147  64.177  1.00  0.00     0.210 C 
ENDBRANCH  13  16
ENDBRANCH   7  10
ENDBRANCH   4   6
ENDBRANCH   1   4
BRANCH   1  18
HETATM   18  C   UNL     1       4.907  32.119  62.283  1.00  0.00     0.165 C 
BRANCH  18  19
HETATM   19  C   UNL     1       5.645  32.734  63.450  1.00  0.00    -0.040 A 
HETATM   20  C   UNL     1       7.041  32.861  63.474  1.00  0.00     0.009 A 
HETATM   21  C   UNL     1       7.687  33.445  64.567  1.00  0.00     0.001 A 
HETATM   22  C   UNL     1       6.946  33.923  65.645  1.00  0.00     0.000 A 
HETATM   23  C   UNL     1       5.558  33.830  65.625  1.00  0.00     0.001 A 
HETATM   24  C   UNL     1       4.912  33.251  64.531  1.00  0.00     0.009 A 
ENDBRANCH  18  19
ENDBRANCH   1  18
BRANCH   2  25
HETATM   25  C   UNL     1       7.172  31.368  60.412  1.00  0.00     0.250 C 
BRANCH  25  26
HETATM   26  N   UNL     1       8.369  31.395  59.602  1.00  0.00    -0.263 N 
HETATM   27  N   UNL     1       9.232  32.431  59.666  1.00  0.00     0.006 NA
HETATM   28  N   UNL     1      10.163  32.233  58.741  1.00  0.00    -0.158 NA
HETATM   29  C   UNL     1       9.901  31.040  58.120  1.00  0.00     0.102 A 
HETATM   30  C   UNL     1       8.761  30.466  58.671  1.00  0.00     0.079 A 
HETATM   31  C   UNL     1      10.569  30.383  57.077  1.00  0.00     0.035 A 
HETATM   32  C   UNL     1       8.244  29.238  58.245  1.00  0.00     0.033 A 
HETATM   33  C   UNL     1       8.923  28.595  57.204  1.00  0.00     0.002 A 
HETATM   34  C   UNL     1      10.064  29.156  56.627  1.00  0.00     0.002 A 
ENDBRANCH  25  26
ENDBRANCH   2  25
TORSDOF 8
ENDMDL
MODEL 4
REMARK VINA RESULT:      -9.3      4.065      8.550
REMARK  8 active torsions:
REMARK  status: ('A' for Active; 'I' for Inactive)
REMARK    1  A    between atoms: C_2  and  N_3 
REMARK    2  A    between atoms: C_2  and  C_23 
REMARK       I    between atoms: N_3  and  C_4 
REMARK    3  A    between atoms: N_3  and  C_16 
REMARK    4  A    between atoms: C_4  and  C_5 
REMARK    5  A    between atoms: C_5  and  N_6 
REMARK    6  A    between atoms: C_16  and  C_17 
REMARK       I    between atoms: C_23  and  N_24 
REMARK    7  A    between atoms: N_24  and  C_25 
REMARK    8  A    between atoms: C_28  and  O_29 
ROOT
HETATM    1  N   UNL     1       6.529  27.521  54.996  1.00  0.00    -0.333 N 
HETATM    2  C   UNL     1       6.462  26.218  55.492  1.00  0.00     0.240 C 
HETATM    3  O   UNL     1       5.369  25.672  55.675  1.00  0.00    -0.271 OA
ENDROOT
BRANCH   1   4
HETATM    4  C   UNL     1       5.253  28.250  54.776  1.00  0.00     0.176 C 
HETATM    5  C   UNL     1       5.340  29.732  55.148  1.00  0.00     0.042 C 
BRANCH   4   6
HETATM    6  C   UNL     1       4.567  28.059  53.390  1.00  0.00     0.244 C 
HETATM    7  N   UNL     1       5.431  27.713  52.362  1.00  0.00    -0.325 N 
HETATM    8  H   UNL     1       6.424  27.782  52.558  1.00  0.00     0.169 HD
HETATM    9  O   UNL     1       3.338  28.068  53.310  1.00  0.00    -0.271 OA
BRANCH   7  10
HETATM   10  C   UNL     1       5.084  27.418  51.023  1.00  0.00     0.035 A 
HETATM   11  C   UNL     1       4.749  26.142  50.566  1.00  0.00     0.032 A 
HETATM   12  C   UNL     1       4.406  25.931  49.226  1.00  0.00     0.039 A 
HETATM   13  C   UNL     1       4.377  26.991  48.322  1.00  0.00     0.068 A 
HETATM   14  C   UNL     1       4.728  28.265  48.762  1.00  0.00     0.039 A 
HETATM   15  C   UNL     1       5.080  28.475  50.105  1.00  0.00     0.032 A 
BRANCH  13  16
HETATM   16  O   UNL     1       4.018  26.653  47.047  1.00  0.00    -0.356 OA
HETATM   17  C   UNL     1       2.746  26.036  46.897  1.00  0.00     0.210 C 
ENDBRANCH  13  16
ENDBRANCH   7  10
ENDBRANCH   4   6
ENDBRANCH   1   4
BRANCH   1  18
HETATM   18  C   UNL     1       7.771  28.233  54.648  1.00  0.00     0.165 C 
BRANCH  18  19
HETATM   19  C   UNL     1       8.502  28.878  55.803  1.00  0.00    -0.040 A 
HETATM   20  C   UNL     1       7.972  28.919  57.100  1.00  0.00     0.009 A 
HETATM   21  C   UNL     1       8.681  29.515  58.145  1.00  0.00     0.001 A 
HETATM   22  C   UNL     1       9.938  30.068  57.911  1.00  0.00     0.000 A 
HETATM   23  C   UNL     1      10.491  30.012  56.636  1.00  0.00     0.001 A 
HETATM   24  C   UNL     1       9.784  29.411  55.593  1.00  0.00     0.009 A 
ENDBRANCH  18  19
ENDBRANCH   1  18
BRANCH   2  25
HETATM   25  C   UNL     1       7.720  25.427  55.795  1.00  0.00     0.250 C 
BRANCH  25  26
HETATM   26  N   UNL     1       7.980  24.339  54.879  1.00  0.00    -0.263 N 
HETATM   27  N   UNL     1       8.024  24.544  53.545  1.00  0.00     0.006 NA
HETATM   28  N   UNL     1       8.166  23.360  52.963  1.00  0.00    -0.158 NA
HETATM   29  C   UNL     1       8.253  22.409  53.945  1.00  0.00     0.102 A 
HETATM   30  C   UNL     1       8.158  23.015  55.193  1.00  0.00     0.079 A 
HETATM   31  C   UNL     1       8.399  21.017  53.864  1.00  0.00     0.035 A 
HETATM   32  C   UNL     1       8.218  22.301  56.394  1.00  0.00     0.033 A 
HETATM   33  C   UNL     1       8.365  20.912  56.295  1.00  0.00     0.002 A 
HETATM   34  C   UNL     1       8.451  20.279  55.054  1.00  0.00     0.002 A 
ENDBRANCH  25  26
ENDBRANCH   2  25
TORSDOF 8
ENDMDL
MODEL 5
REMARK VINA RESULT:      -9.1      3.688      8.149
REMARK  8 active torsions:
REMARK  status: ('A' for Active; 'I' for Inactive)
REMARK    1  A    between atoms: C_2  and  N_3 
REMARK    2  A    between atoms: C_2  and  C_23 
REMARK       I    between atoms: N_3  and  C_4 
REMARK    3  A    between atoms: N_3  and  C_16 
REMARK    4  A    between atoms: C_4  and  C_5 
REMARK    5  A    between atoms: C_5  and  N_6 
REMARK    6  A    between atoms: C_16  and  C_17 
REMARK       I    between atoms: C_23  and  N_24 
REMARK    7  A    between atoms: N_24  and  C_25 
REMARK    8  A    between atoms: C_28  and  O_29 
ROOT
HETATM    1  N   UNL     1       6.546  27.471  55.916  1.00  0.00    -0.333 N 
HETATM    2  C   UNL     1       6.616  26.264  56.613  1.00  0.00     0.240 C 
HETATM    3  O   UNL     1       5.584  25.684  56.967  1.00  0.00    -0.271 OA
ENDROOT
BRANCH   1   4
HETATM    4  C   UNL     1       5.204  28.069  55.690  1.00  0.00     0.176 C 
HETATM    5  C   UNL     1       5.032  29.426  56.377  1.00  0.00     0.042 C 
BRANCH   4   6
HETATM    6  C   UNL     1       4.697  28.118  54.218  1.00  0.00     0.244 C 
HETATM    7  N   UNL     1       5.532  27.498  53.300  1.00  0.00    -0.325 N 
HETATM    8  H   UNL     1       6.452  27.229  53.630  1.00  0.00     0.169 HD
HETATM    9  O   UNL     1       3.566  28.541  53.975  1.00  0.00    -0.271 OA
BRANCH   7  10
HETATM   10  C   UNL     1       5.299  27.335  51.915  1.00  0.00     0.035 A 
HETATM   11  C   UNL     1       5.024  26.107  51.309  1.00  0.00     0.032 A 
HETATM   12  C   UNL     1       4.793  26.027  49.931  1.00  0.00     0.039 A 
HETATM   13  C   UNL     1       4.819  27.171  49.136  1.00  0.00     0.068 A 
HETATM   14  C   UNL     1       5.111  28.399  49.726  1.00  0.00     0.039 A 
HETATM   15  C   UNL     1       5.351  28.478  51.107  1.00  0.00     0.032 A 
BRANCH  13  16
HETATM   16  O   UNL     1       4.570  26.958  47.809  1.00  0.00    -0.356 OA
HETATM   17  C   UNL     1       3.381  27.543  47.293  1.00  0.00     0.210 C 
ENDBRANCH  13  16
ENDBRANCH   7  10
ENDBRANCH   4   6
ENDBRANCH   1   4
BRANCH   1  18
HETATM   18  C   UNL     1       7.700  28.198  55.360  1.00  0.00     0.165 C 
BRANCH  18  19
HETATM   19  C   UNL     1       8.516  28.990  56.356  1.00  0.00    -0.040 A 
HETATM   20  C   UNL     1       8.069  29.248  57.659  1.00  0.00     0.009 A 
HETATM   21  C   UNL     1       8.856  29.976  58.555  1.00  0.00     0.001 A 
HETATM   22  C   UNL     1      10.109  30.444  58.166  1.00  0.00     0.000 A 
HETATM   23  C   UNL     1      10.580  30.173  56.885  1.00  0.00     0.001 A 
HETATM   24  C   UNL     1       9.795  29.442  55.991  1.00  0.00     0.009 A 
ENDBRANCH  18  19
ENDBRANCH   1  18
BRANCH   2  25
HETATM   25  C   UNL     1       7.949  25.617  56.931  1.00  0.00     0.250 C 
BRANCH  25  26
HETATM   26  N   UNL     1       8.091  24.263  56.443  1.00  0.00    -0.263 N 
HETATM   27  N   UNL     1       8.393  23.247  57.280  1.00  0.00     0.006 NA
HETATM   28  N   UNL     1       8.567  22.159  56.541  1.00  0.00    -0.158 NA
HETATM   29  C   UNL     1       8.331  22.489  55.233  1.00  0.00     0.102 A 
HETATM   30  C   UNL     1       8.000  23.836  55.142  1.00  0.00     0.079 A 
HETATM   31  C   UNL     1       8.388  21.713  54.066  1.00  0.00     0.035 A 
HETATM   32  C   UNL     1       7.699  24.468  53.931  1.00  0.00     0.033 A 
HETATM   33  C   UNL     1       7.760  23.679  52.777  1.00  0.00     0.002 A 
HETATM   34  C   UNL     1       8.101  22.326  52.840  1.00  0.00     0.002 A 
ENDBRANCH  25  26
ENDBRANCH   2  25
TORSDOF 8
ENDMDL
MODEL 6
REMARK VINA RESULT:      -9.0      1.657      2.466
REMARK  8 active torsions:
REMARK  status: ('A' for Active; 'I' for Inactive)
REMARK    1  A    between atoms: C_2  and  N_3 
REMARK    2  A    between atoms: C_2  and  C_23 
REMARK       I    between atoms: N_3  and  C_4 
REMARK    3  A    between atoms: N_3  and  C_16 
REMARK    4  A    between atoms: C_4  and  C_5 
REMARK    5  A    between atoms: C_5  and  N_6 
REMARK    6  A    between atoms: C_16  and  C_17 
REMARK       I    between atoms: C_23  and  N_24 
REMARK    7  A    between atoms: N_24  and  C_25 
REMARK    8  A    between atoms: C_28  and  O_29 
ROOT
HETATM    1  N   UNL     1       7.233  28.121  57.422  1.00  0.00    -0.333 N 
HETATM    2  C   UNL     1       7.577  26.771  57.502  1.00  0.00     0.240 C 
HETATM    3  O   UNL     1       8.682  26.429  57.934  1.00  0.00    -0.271 OA
ENDROOT
BRANCH   1   4
HETATM    4  C   UNL     1       8.264  29.126  57.794  1.00  0.00     0.176 C 
HETATM    5  C   UNL     1       9.135  29.553  56.610  1.00  0.00     0.042 C 
BRANCH   4   6
HETATM    6  C   UNL     1       7.777  30.362  58.607  1.00  0.00     0.244 C 
HETATM    7  N   UNL     1       7.945  30.253  59.979  1.00  0.00    -0.325 N 
HETATM    8  H   UNL     1       8.202  29.338  60.336  1.00  0.00     0.169 HD
HETATM    9  O   UNL     1       7.430  31.384  58.014  1.00  0.00    -0.271 OA
BRANCH   7  10
HETATM   10  C   UNL     1       7.653  31.237  60.952  1.00  0.00     0.035 A 
HETATM   11  C   UNL     1       6.579  32.125  60.867  1.00  0.00     0.032 A 
HETATM   12  C   UNL     1       6.349  33.065  61.878  1.00  0.00     0.039 A 
HETATM   13  C   UNL     1       7.177  33.126  62.996  1.00  0.00     0.068 A 
HETATM   14  C   UNL     1       8.263  32.258  63.083  1.00  0.00     0.039 A 
HETATM   15  C   UNL     1       8.499  31.321  62.065  1.00  0.00     0.032 A 
BRANCH  13  16
HETATM   16  O   UNL     1       6.839  34.083  63.913  1.00  0.00    -0.356 OA
HETATM   17  C   UNL     1       5.871  33.705  64.884  1.00  0.00     0.210 C 
ENDBRANCH  13  16
ENDBRANCH   7  10
ENDBRANCH   4   6
ENDBRANCH   1   4
BRANCH   1  18
HETATM   18  C   UNL     1       5.915  28.638  57.018  1.00  0.00     0.165 C 
BRANCH  18  19
HETATM   19  C   UNL     1       5.585  28.516  55.549  1.00  0.00    -0.040 A 
HETATM   20  C   UNL     1       6.576  28.416  54.561  1.00  0.00     0.009 A 
HETATM   21  C   UNL     1       6.233  28.294  53.213  1.00  0.00     0.001 A 
HETATM   22  C   UNL     1       4.893  28.256  52.832  1.00  0.00     0.000 A 
HETATM   23  C   UNL     1       3.897  28.326  53.801  1.00  0.00     0.001 A 
HETATM   24  C   UNL     1       4.241  28.443  55.149  1.00  0.00     0.009 A 
ENDBRANCH  18  19
ENDBRANCH   1  18
BRANCH   2  25
HETATM   25  C   UNL     1       6.601  25.686  57.089  1.00  0.00     0.250 C 
BRANCH  25  26
HETATM   26  N   UNL     1       7.213  24.530  56.473  1.00  0.00    -0.263 N 
HETATM   27  N   UNL     1       7.922  23.643  57.203  1.00  0.00     0.006 NA
HETATM   28  N   UNL     1       8.449  22.763  56.360  1.00  0.00    -0.158 NA
HETATM   29  C   UNL     1       8.031  23.080  55.095  1.00  0.00     0.102 A 
HETATM   30  C   UNL     1       7.213  24.204  55.140  1.00  0.00     0.079 A 
HETATM   31  C   UNL     1       8.308  22.478  53.859  1.00  0.00     0.035 A 
HETATM   32  C   UNL     1       6.628  24.767  54.001  1.00  0.00     0.033 A 
HETATM   33  C   UNL     1       6.913  24.153  52.777  1.00  0.00     0.002 A 
HETATM   34  C   UNL     1       7.741  23.031  52.703  1.00  0.00     0.002 A 
ENDBRANCH  25  26
ENDBRANCH   2  25
TORSDOF 8
ENDMDL
MODEL 7
REMARK VINA RESULT:      -8.9      2.446      4.084
REMARK  8 active torsions:
REMARK  status: ('A' for Active; 'I' for Inactive)
REMARK    1  A    between atoms: C_2  and  N_3 
REMARK    2  A    between atoms: C_2  and  C_23 
REMARK       I    between atoms: N_3  and  C_4 
REMARK    3  A    between atoms: N_3  and  C_16 
REMARK    4  A    between atoms: C_4  and  C_5 
REMARK    5  A    between atoms: C_5  and  N_6 
REMARK    6  A    between atoms: C_16  and  C_17 
REMARK       I    between atoms: C_23  and  N_24 
REMARK    7  A    between atoms: N_24  and  C_25 
REMARK    8  A    between atoms: C_28  and  O_29 
ROOT
HETATM    1  N   UNL     1       5.948  28.103  54.653  1.00  0.00    -0.333 N 
HETATM    2  C   UNL     1       7.285  27.706  54.621  1.00  0.00     0.240 C 
HETATM    3  O   UNL     1       8.151  28.374  55.196  1.00  0.00    -0.271 OA
ENDROOT
BRANCH   1   4
HETATM    4  C   UNL     1       5.618  29.387  55.326  1.00  0.00     0.176 C 
HETATM    5  C   UNL     1       4.198  29.872  55.022  1.00  0.00     0.042 C 
BRANCH   4   6
HETATM    6  C   UNL     1       5.927  29.480  56.850  1.00  0.00     0.244 C 
HETATM    7  N   UNL     1       6.921  30.387  57.182  1.00  0.00    -0.325 N 
HETATM    8  H   UNL     1       7.462  30.772  56.415  1.00  0.00     0.169 HD
HETATM    9  O   UNL     1       5.206  28.891  57.657  1.00  0.00    -0.271 OA
BRANCH   7  10
HETATM   10  C   UNL     1       7.365  30.724  58.482  1.00  0.00     0.035 A 
HETATM   11  C   UNL     1       8.440  30.107  59.125  1.00  0.00     0.032 A 
HETATM   12  C   UNL     1       8.827  30.504  60.409  1.00  0.00     0.039 A 
HETATM   13  C   UNL     1       8.158  31.532  61.070  1.00  0.00     0.068 A 
HETATM   14  C   UNL     1       7.072  32.142  60.446  1.00  0.00     0.039 A 
HETATM   15  C   UNL     1       6.679  31.738  59.161  1.00  0.00     0.032 A 
BRANCH  13  16
HETATM   16  O   UNL     1       8.640  31.828  62.315  1.00  0.00    -0.356 OA
HETATM   17  C   UNL     1       7.779  32.586  63.155  1.00  0.00     0.210 C 
ENDBRANCH  13  16
ENDBRANCH   7  10
ENDBRANCH   4   6
ENDBRANCH   1   4
BRANCH   1  18
HETATM   18  C   UNL     1       4.822  27.338  54.091  1.00  0.00     0.165 C 
BRANCH  18  19
HETATM   19  C   UNL     1       4.794  27.228  52.583  1.00  0.00    -0.040 A 
HETATM   20  C   UNL     1       5.064  26.027  51.913  1.00  0.00     0.009 A 
HETATM   21  C   UNL     1       5.018  25.960  50.518  1.00  0.00     0.001 A 
HETATM   22  C   UNL     1       4.689  27.090  49.774  1.00  0.00     0.000 A 
HETATM   23  C   UNL     1       4.391  28.283  50.424  1.00  0.00     0.001 A 
HETATM   24  C   UNL     1       4.431  28.348  51.818  1.00  0.00     0.009 A 
ENDBRANCH  18  19
ENDBRANCH   1  18
BRANCH   2  25
HETATM   25  C   UNL     1       7.711  26.438  53.908  1.00  0.00     0.250 C 
BRANCH  25  26
HETATM   26  N   UNL     1       7.597  25.235  54.702  1.00  0.00    -0.263 N 
HETATM   27  N   UNL     1       7.430  25.295  56.041  1.00  0.00     0.006 NA
HETATM   28  N   UNL     1       7.470  24.052  56.505  1.00  0.00    -0.158 NA
HETATM   29  C   UNL     1       7.623  23.204  55.440  1.00  0.00     0.102 A 
HETATM   30  C   UNL     1       7.686  23.939  54.261  1.00  0.00     0.079 A 
HETATM   31  C   UNL     1       7.731  21.807  55.388  1.00  0.00     0.035 A 
HETATM   32  C   UNL     1       7.836  23.349  53.002  1.00  0.00     0.033 A 
HETATM   33  C   UNL     1       7.940  21.953  52.968  1.00  0.00     0.002 A 
HETATM   34  C   UNL     1       7.892  21.194  54.138  1.00  0.00     0.002 A 
ENDBRANCH  25  26
ENDBRANCH   2  25
TORSDOF 8
ENDMDL
MODEL 8
REMARK VINA RESULT:      -8.7      5.083      9.203
REMARK  8 active torsions:
REMARK  status: ('A' for Active; 'I' for Inactive)
REMARK    1  A    between atoms: C_2  and  N_3 
REMARK    2  A    between atoms: C_2  and  C_23 
REMARK       I    between atoms: N_3  and  C_4 
REMARK    3  A    between atoms: N_3  and  C_16 
REMARK    4  A    between atoms: C_4  and  C_5 
REMARK    5  A    between atoms: C_5  and  N_6 
REMARK    6  A    between atoms: C_16  and  C_17 
REMARK       I    between atoms: C_23  and  N_24 
REMARK    7  A    between atoms: N_24  and  C_25 
REMARK    8  A    between atoms: C_28  and  O_29 
ROOT
HETATM    1  N   UNL     1       6.128  26.790  53.256  1.00  0.00    -0.333 N 
HETATM    2  C   UNL     1       6.538  25.458  53.323  1.00  0.00     0.240 C 
HETATM    3  O   UNL     1       5.775  24.549  52.981  1.00  0.00    -0.271 OA
ENDROOT
BRANCH   1   4
HETATM    4  C   UNL     1       4.728  27.069  52.840  1.00  0.00     0.176 C 
HETATM    5  C   UNL     1       4.039  28.110  53.726  1.00  0.00     0.042 C 
BRANCH   4   6
HETATM    6  C   UNL     1       4.493  27.372  51.331  1.00  0.00     0.244 C 
HETATM    7  N   UNL     1       3.459  28.260  51.076  1.00  0.00    -0.325 N 
HETATM    8  H   UNL     1       2.855  28.493  51.857  1.00  0.00     0.169 HD
HETATM    9  O   UNL     1       5.292  26.955  50.492  1.00  0.00    -0.271 OA
BRANCH   7  10
HETATM   10  C   UNL     1       3.062  28.763  49.815  1.00  0.00     0.035 A 
HETATM   11  C   UNL     1       2.135  28.135  48.980  1.00  0.00     0.032 A 
HETATM   12  C   UNL     1       1.784  28.702  47.750  1.00  0.00     0.039 A 
HETATM   13  C   UNL     1       2.341  29.910  47.337  1.00  0.00     0.068 A 
HETATM   14  C   UNL     1       3.280  30.536  48.152  1.00  0.00     0.039 A 
HETATM   15  C   UNL     1       3.639  29.964  49.383  1.00  0.00     0.032 A 
BRANCH  13  16
HETATM   16  O   UNL     1       1.909  30.359  46.120  1.00  0.00    -0.356 OA
HETATM   17  C   UNL     1       0.500  30.398  45.930  1.00  0.00     0.210 C 
ENDBRANCH  13  16
ENDBRANCH   7  10
ENDBRANCH   4   6
ENDBRANCH   1   4
BRANCH   1  18
HETATM   18  C   UNL     1       6.981  27.956  53.543  1.00  0.00     0.165 C 
BRANCH  18  19
HETATM   19  C   UNL     1       7.344  28.160  54.996  1.00  0.00    -0.040 A 
HETATM   20  C   UNL     1       6.577  27.632  56.044  1.00  0.00     0.009 A 
HETATM   21  C   UNL     1       6.949  27.834  57.375  1.00  0.00     0.001 A 
HETATM   22  C   UNL     1       8.101  28.555  57.678  1.00  0.00     0.000 A 
HETATM   23  C   UNL     1       8.889  29.063  56.650  1.00  0.00     0.001 A 
HETATM   24  C   UNL     1       8.520  28.857  55.319  1.00  0.00     0.009 A 
ENDBRANCH  18  19
ENDBRANCH   1  18
BRANCH   2  25
HETATM   25  C   UNL     1       7.933  25.088  53.789  1.00  0.00     0.250 C 
BRANCH  25  26
HETATM   26  N   UNL     1       7.976  24.025  54.768  1.00  0.00    -0.263 N 
HETATM   27  N   UNL     1       7.927  24.291  56.091  1.00  0.00     0.006 NA
HETATM   28  N   UNL     1       8.097  23.144  56.736  1.00  0.00    -0.158 NA
HETATM   29  C   UNL     1       8.214  22.144  55.807  1.00  0.00     0.102 A 
HETATM   30  C   UNL     1       8.117  22.681  54.528  1.00  0.00     0.079 A 
HETATM   31  C   UNL     1       8.415  20.765  55.962  1.00  0.00     0.035 A 
HETATM   32  C   UNL     1       8.194  21.904  53.367  1.00  0.00     0.033 A 
HETATM   33  C   UNL     1       8.394  20.530  53.540  1.00  0.00     0.002 A 
HETATM   34  C   UNL     1       8.506  19.968  54.814  1.00  0.00     0.002 A 
ENDBRANCH  25  26
ENDBRANCH   2  25
TORSDOF 8
ENDMDL
MODEL 9
REMARK VINA RESULT:      -8.5      2.732      8.805
REMARK  8 active torsions:
REMARK  status: ('A' for Active; 'I' for Inactive)
REMARK    1  A    between atoms: C_2  and  N_3 
REMARK    2  A    between atoms: C_2  and  C_23 
REMARK       I    between atoms: N_3  and  C_4 
REMARK    3  A    between atoms: N_3  and  C_16 
REMARK    4  A    between atoms: C_4  and  C_5 
REMARK    5  A    between atoms: C_5  and  N_6 
REMARK    6  A    between atoms: C_16  and  C_17 
REMARK       I    between atoms: C_23  and  N_24 
REMARK    7  A    between atoms: N_24  and  C_25 
REMARK    8  A    between atoms: C_28  and  O_29 
ROOT
HETATM    1  N   UNL     1       6.848  28.279  56.391  1.00  0.00    -0.333 N 
HETATM    2  C   UNL     1       8.209  28.258  56.700  1.00  0.00     0.240 C 
HETATM    3  O   UNL     1       8.676  27.363  57.412  1.00  0.00    -0.271 OA
ENDROOT
BRANCH   1   4
HETATM    4  C   UNL     1       5.977  27.245  57.008  1.00  0.00     0.176 C 
HETATM    5  C   UNL     1       4.576  27.766  57.339  1.00  0.00     0.042 C 
BRANCH   4   6
HETATM    6  C   UNL     1       5.906  25.866  56.286  1.00  0.00     0.244 C 
HETATM    7  N   UNL     1       7.076  25.491  55.644  1.00  0.00    -0.325 N 
HETATM    8  H   UNL     1       7.796  26.201  55.556  1.00  0.00     0.169 HD
HETATM    9  O   UNL     1       4.921  25.144  56.445  1.00  0.00    -0.271 OA
BRANCH   7  10
HETATM   10  C   UNL     1       7.321  24.275  54.966  1.00  0.00     0.035 A 
HETATM   11  C   UNL     1       7.503  23.047  55.605  1.00  0.00     0.032 A 
HETATM   12  C   UNL     1       7.731  21.882  54.863  1.00  0.00     0.039 A 
HETATM   13  C   UNL     1       7.766  21.919  53.471  1.00  0.00     0.068 A 
HETATM   14  C   UNL     1       7.603  23.142  52.822  1.00  0.00     0.039 A 
HETATM   15  C   UNL     1       7.384  24.311  53.567  1.00  0.00     0.032 A 
BRANCH  13  16
HETATM   16  O   UNL     1       7.987  20.713  52.866  1.00  0.00    -0.356 OA
HETATM   17  C   UNL     1       9.025  19.915  53.422  1.00  0.00     0.210 C 
ENDBRANCH  13  16
ENDBRANCH   7  10
ENDBRANCH   4   6
ENDBRANCH   1   4
BRANCH   1  18
HETATM   18  C   UNL     1       6.201  29.235  55.477  1.00  0.00     0.165 C 
BRANCH  18  19
HETATM   19  C   UNL     1       5.650  28.648  54.198  1.00  0.00    -0.040 A 
HETATM   20  C   UNL     1       4.294  28.741  53.851  1.00  0.00     0.009 A 
HETATM   21  C   UNL     1       3.822  28.195  52.655  1.00  0.00     0.001 A 
HETATM   22  C   UNL     1       4.701  27.560  51.781  1.00  0.00     0.000 A 
HETATM   23  C   UNL     1       6.054  27.482  52.096  1.00  0.00     0.001 A 
HETATM   24  C   UNL     1       6.526  28.033  53.289  1.00  0.00     0.009 A 
ENDBRANCH  18  19
ENDBRANCH   1  18
BRANCH   2  25
HETATM   25  C   UNL     1       9.155  29.309  56.155  1.00  0.00     0.250 C 
BRANCH  25  26
HETATM   26  N   UNL     1       9.644  30.247  57.141  1.00  0.00    -0.263 N 
HETATM   27  N   UNL     1      10.948  30.592  57.191  1.00  0.00     0.006 NA
HETATM   28  N   UNL     1      11.115  31.370  58.254  1.00  0.00    -0.158 NA
HETATM   29  C   UNL     1       9.895  31.547  58.849  1.00  0.00     0.102 A 
HETATM   30  C   UNL     1       8.922  30.852  58.139  1.00  0.00     0.079 A 
HETATM   31  C   UNL     1       9.529  32.267  59.995  1.00  0.00     0.035 A 
HETATM   32  C   UNL     1       7.571  30.845  58.503  1.00  0.00     0.033 A 
HETATM   33  C   UNL     1       7.223  31.570  59.649  1.00  0.00     0.002 A 
HETATM   34  C   UNL     1       8.183  32.266  60.385  1.00  0.00     0.002 A 
ENDBRANCH  25  26
ENDBRANCH   2  25
TORSDOF 8
ENDMDL
MODEL 10
REMARK VINA RESULT:      -8.5      4.709      9.931
REMARK  8 active torsions:
REMARK  status: ('A' for Active; 'I' for Inactive)
REMARK    1  A    between atoms: C_2  and  N_3 
REMARK    2  A    between atoms: C_2  and  C_23 
REMARK       I    between atoms: N_3  and  C_4 
REMARK    3  A    between atoms: N_3  and  C_16 
REMARK    4  A    between atoms: C_4  and  C_5 
REMARK    5  A    between atoms: C_5  and  N_6 
REMARK    6  A    between atoms: C_16  and  C_17 
REMARK       I    between atoms: C_23  and  N_24 
REMARK    7  A    between atoms: N_24  and  C_25 
REMARK    8  A    between atoms: C_28  and  O_29 
ROOT
HETATM    1  N   UNL     1       6.926  26.427  52.760  1.00  0.00    -0.333 N 
HETATM    2  C   UNL     1       6.990  27.557  53.576  1.00  0.00     0.240 C 
HETATM    3  O   UNL     1       5.997  28.274  53.735  1.00  0.00    -0.271 OA
ENDROOT
BRANCH   1   4
HETATM    4  C   UNL     1       5.657  26.165  52.031  1.00  0.00     0.176 C 
HETATM    5  C   UNL     1       4.605  25.467  52.896  1.00  0.00     0.042 C 
BRANCH   4   6
HETATM    6  C   UNL     1       5.036  27.363  51.252  1.00  0.00     0.244 C 
HETATM    7  N   UNL     1       5.759  27.762  50.138  1.00  0.00    -0.325 N 
HETATM    8  H   UNL     1       6.688  27.367  50.031  1.00  0.00     0.169 HD
HETATM    9  O   UNL     1       3.915  27.772  51.553  1.00  0.00    -0.271 OA
BRANCH   7  10
HETATM   10  C   UNL     1       5.407  28.773  49.214  1.00  0.00     0.035 A 
HETATM   11  C   UNL     1       4.849  28.524  47.959  1.00  0.00     0.032 A 
HETATM   12  C   UNL     1       4.517  29.580  47.103  1.00  0.00     0.039 A 
HETATM   13  C   UNL     1       4.722  30.903  47.489  1.00  0.00     0.068 A 
HETATM   14  C   UNL     1       5.295  31.163  48.732  1.00  0.00     0.039 A 
HETATM   15  C   UNL     1       5.636  30.104  49.587  1.00  0.00     0.032 A 
BRANCH  13  16
HETATM   16  O   UNL     1       4.347  31.839  46.566  1.00  0.00    -0.356 OA
HETATM   17  C   UNL     1       5.382  32.681  46.074  1.00  0.00     0.210 C 
ENDBRANCH  13  16
ENDBRANCH   7  10
ENDBRANCH   4   6
ENDBRANCH   1   4
BRANCH   1  18
HETATM   18  C   UNL     1       8.012  25.450  52.577  1.00  0.00     0.165 C 
BRANCH  18  19
HETATM   19  C   UNL     1       7.881  24.169  53.368  1.00  0.00    -0.040 A 
HETATM   20  C   UNL     1       7.990  22.904  52.773  1.00  0.00     0.009 A 
HETATM   21  C   UNL     1       7.873  21.741  53.539  1.00  0.00     0.001 A 
HETATM   22  C   UNL     1       7.659  21.826  54.912  1.00  0.00     0.000 A 
HETATM   23  C   UNL     1       7.576  23.073  55.523  1.00  0.00     0.001 A 
HETATM   24  C   UNL     1       7.698  24.235  54.759  1.00  0.00     0.009 A 
ENDBRANCH  18  19
ENDBRANCH   1  18
BRANCH   2  25
HETATM   25  C   UNL     1       8.265  27.924  54.311  1.00  0.00     0.250 C 
BRANCH  25  26
HETATM   26  N   UNL     1       8.082  28.239  55.711  1.00  0.00    -0.263 N 
HETATM   27  N   UNL     1       7.036  27.746  56.407  1.00  0.00     0.006 NA
HETATM   28  N   UNL     1       7.068  28.289  57.617  1.00  0.00    -0.158 NA
HETATM   29  C   UNL     1       8.171  29.099  57.691  1.00  0.00     0.102 A 
HETATM   30  C   UNL     1       8.856  29.069  56.482  1.00  0.00     0.079 A 
HETATM   31  C   UNL     1       8.651  29.901  58.736  1.00  0.00     0.035 A 
HETATM   32  C   UNL     1      10.030  29.794  56.252  1.00  0.00     0.033 A 
HETATM   33  C   UNL     1      10.497  30.588  57.306  1.00  0.00     0.002 A 
HETATM   34  C   UNL     1       9.820  30.645  58.526  1.00  0.00     0.002 A 
ENDBRANCH  25  26
ENDBRANCH   2  25
TORSDOF 8
ENDMDL
