MODEL 1
REMARK VINA RESULT:     -10.6      0.000      0.000
REMARK  5 active torsions:
REMARK  status: ('A' for Active; 'I' for Inactive)
REMARK    1  A    between atoms: O_2  and  C_3 
REMARK    2  A    between atoms: C_4  and  O_5 
REMARK    3  A    between atoms: C_8  and  C_9 
REMARK    4  A    between atoms: C_13  and  C_14 
REMARK       I    between atoms: C_14  and  N_15 
REMARK    5  A    between atoms: N_15  and  N_16 
ROOT
HETATM    1  C   UNL     1       7.723  28.223  56.951  1.00  0.00     0.069 A 
HETATM    2  N   UNL     1       8.196  27.026  57.365  1.00  0.00    -0.248 NA
HETATM    3  C   UNL     1       7.976  25.928  56.627  1.00  0.00     0.068 A 
HETATM    4  C   UNL     1       7.238  25.935  55.424  1.00  0.00     0.009 A 
HETATM    5  C   UNL     1       6.647  27.176  55.073  1.00  0.00     0.048 A 
HETATM    6  C   UNL     1       6.915  28.322  55.834  1.00  0.00     0.050 A 
HETATM    7  C   UNL     1       8.534  24.740  57.077  1.00  0.00     0.032 A 
HETATM    8  C   UNL     1       8.425  23.550  56.358  1.00  0.00     0.002 A 
HETATM    9  C   UNL     1       7.761  23.548  55.143  1.00  0.00     0.001 A 
HETATM   10  C   UNL     1       7.184  24.728  54.673  1.00  0.00     0.015 A 
ENDROOT
BRANCH   5  11
HETATM   11  C   UNL     1       5.730  27.398  53.914  1.00  0.00     0.271 C 
HETATM   12  N   UNL     1       6.305  27.461  52.661  1.00  0.00    -0.252 N 
HETATM   13  H   UNL     1       7.220  27.047  52.503  1.00  0.00     0.191 HD
HETATM   14  O   UNL     1       4.517  27.424  54.107  1.00  0.00    -0.266 OA
BRANCH  12  15
HETATM   15  N   UNL     1       5.459  27.431  51.558  1.00  0.00    -0.167 N 
HETATM   16  C   UNL     1       4.982  26.255  51.046  1.00  0.00     0.345 C 
HETATM   17  O   UNL     1       5.134  25.134  51.503  1.00  0.00    -0.245 OA
HETATM   18  N   UNL     1       4.350  26.541  49.852  1.00  0.00    -0.323 N 
HETATM   19  C   UNL     1       4.298  27.972  49.598  1.00  0.00     0.117 C 
HETATM   20  H   UNL     1       3.861  25.821  49.332  1.00  0.00     0.165 HD
HETATM   21  C   UNL     1       2.911  28.527  49.960  1.00  0.00     0.041 C 
HETATM   22  C   UNL     1       4.711  28.341  48.175  1.00  0.00     0.041 C 
HETATM   23  C   UNL     1       5.333  28.451  50.641  1.00  0.00     0.275 C 
HETATM   24  C   UNL     1       1.856  28.132  48.928  1.00  0.00     0.003 C 
HETATM   25  C   UNL     1       2.274  28.536  47.517  1.00  0.00     0.000 C 
HETATM   26  C   UNL     1       3.642  27.972  47.146  1.00  0.00     0.003 C 
HETATM   27  O   UNL     1       5.903  29.533  50.626  1.00  0.00    -0.268 OA
ENDBRANCH  12  15
ENDBRANCH   5  11
BRANCH   1  28
HETATM   28  C   UNL     1       8.159  29.393  57.742  1.00  0.00    -0.004 A 
HETATM   29  C   UNL     1       7.226  30.164  58.469  1.00  0.00     0.053 A 
HETATM   30  C   UNL     1       7.620  31.246  59.272  1.00  0.00     0.102 A 
HETATM   31  C   UNL     1       8.986  31.544  59.376  1.00  0.00     0.101 A 
HETATM   32  C   UNL     1       9.922  30.821  58.637  1.00  0.00     0.040 A 
HETATM   33  C   UNL     1       9.514  29.753  57.837  1.00  0.00     0.017 A 
BRANCH  30  34
HETATM   34  O   UNL     1       6.754  32.045  59.971  1.00  0.00    -0.353 OA
HETATM   35  C   UNL     1       5.717  32.686  59.242  1.00  0.00     0.210 C 
ENDBRANCH  30  34
BRANCH  31  36
HETATM   36  O   UNL     1       9.508  32.562  60.135  1.00  0.00    -0.353 OA
HETATM   37  C   UNL     1       9.806  32.165  61.473  1.00  0.00     0.210 C 
ENDBRANCH  31  36
ENDBRANCH   1  28
TORSDOF 5
ENDMDL
MODEL 2
REMARK VINA RESULT:     -10.5      2.264      9.399
REMARK  5 active torsions:
REMARK  status: ('A' for Active; 'I' for Inactive)
REMARK    1  A    between atoms: O_2  and  C_3 
REMARK    2  A    between atoms: C_4  and  O_5 
REMARK    3  A    between atoms: C_8  and  C_9 
REMARK    4  A    between atoms: C_13  and  C_14 
REMARK       I    between atoms: C_14  and  N_15 
REMARK    5  A    between atoms: N_15  and  N_16 
ROOT
HETATM    1  C   UNL     1       5.760  26.800  51.621  1.00  0.00     0.069 A 
HETATM    2  N   UNL     1       6.128  25.501  51.552  1.00  0.00    -0.248 NA
HETATM    3  C   UNL     1       6.821  24.947  52.559  1.00  0.00     0.068 A 
HETATM    4  C   UNL     1       7.226  25.660  53.707  1.00  0.00     0.009 A 
HETATM    5  C   UNL     1       6.937  27.049  53.703  1.00  0.00     0.048 A 
HETATM    6  C   UNL     1       6.182  27.605  52.662  1.00  0.00     0.050 A 
HETATM    7  C   UNL     1       7.121  23.596  52.453  1.00  0.00     0.032 A 
HETATM    8  C   UNL     1       7.781  22.902  53.467  1.00  0.00     0.002 A 
HETATM    9  C   UNL     1       8.130  23.566  54.631  1.00  0.00     0.001 A 
HETATM   10  C   UNL     1       7.846  24.926  54.756  1.00  0.00     0.015 A 
ENDROOT
BRANCH   5  11
HETATM   11  C   UNL     1       7.371  28.023  54.749  1.00  0.00     0.271 C 
HETATM   12  N   UNL     1       6.576  28.134  55.871  1.00  0.00    -0.252 N 
HETATM   13  H   UNL     1       5.949  27.375  56.125  1.00  0.00     0.191 HD
HETATM   14  O   UNL     1       8.442  28.609  54.614  1.00  0.00    -0.266 OA
BRANCH  12  15
HETATM   15  N   UNL     1       7.077  28.853  56.952  1.00  0.00    -0.167 N 
HETATM   16  C   UNL     1       7.575  28.231  58.064  1.00  0.00     0.345 C 
HETATM   17  O   UNL     1       7.736  27.033  58.231  1.00  0.00    -0.245 OA
HETATM   18  N   UNL     1       7.798  29.198  59.024  1.00  0.00    -0.323 N 
HETATM   19  C   UNL     1       7.549  30.535  58.510  1.00  0.00     0.117 C 
HETATM   20  H   UNL     1       8.233  28.966  59.910  1.00  0.00     0.165 HD
HETATM   21  C   UNL     1       8.875  31.219  58.140  1.00  0.00     0.041 C 
HETATM   22  C   UNL     1       6.705  31.390  59.453  1.00  0.00     0.041 C 
HETATM   23  C   UNL     1       6.780  30.170  57.219  1.00  0.00     0.275 C 
HETATM   24  C   UNL     1       9.653  31.655  59.382  1.00  0.00     0.003 C 
HETATM   25  C   UNL     1       8.801  32.532  60.296  1.00  0.00     0.000 C 
HETATM   26  C   UNL     1       7.492  31.849  60.680  1.00  0.00     0.003 C 
HETATM   27  O   UNL     1       6.063  30.932  56.585  1.00  0.00    -0.268 OA
ENDBRANCH  12  15
ENDBRANCH   5  11
BRANCH   1  28
HETATM   28  C   UNL     1       4.860  27.269  50.546  1.00  0.00    -0.004 A 
HETATM   29  C   UNL     1       4.747  26.555  49.334  1.00  0.00     0.053 A 
HETATM   30  C   UNL     1       3.859  26.947  48.320  1.00  0.00     0.102 A 
HETATM   31  C   UNL     1       3.039  28.064  48.538  1.00  0.00     0.101 A 
HETATM   32  C   UNL     1       3.161  28.807  49.712  1.00  0.00     0.040 A 
HETATM   33  C   UNL     1       4.054  28.409  50.707  1.00  0.00     0.017 A 
BRANCH  30  34
HETATM   34  O   UNL     1       3.733  26.309  47.114  1.00  0.00    -0.353 OA
HETATM   35  C   UNL     1       2.731  25.310  47.001  1.00  0.00     0.210 C 
ENDBRANCH  30  34
BRANCH  31  36
HETATM   36  O   UNL     1       2.120  28.545  47.639  1.00  0.00    -0.353 OA
HETATM   37  C   UNL     1       2.514  29.783  47.047  1.00  0.00     0.210 C 
ENDBRANCH  31  36
ENDBRANCH   1  28
TORSDOF 5
ENDMDL
MODEL 3
REMARK VINA RESULT:     -10.1      2.082      8.921
REMARK  5 active torsions:
REMARK  status: ('A' for Active; 'I' for Inactive)
REMARK    1  A    between atoms: O_2  and  C_3 
REMARK    2  A    between atoms: C_4  and  O_5 
REMARK    3  A    between atoms: C_8  and  C_9 
REMARK    4  A    between atoms: C_13  and  C_14 
REMARK       I    between atoms: C_14  and  N_15 
REMARK    5  A    between atoms: N_15  and  N_16 
ROOT
HETATM    1  C   UNL     1       6.575  25.972  53.293  1.00  0.00     0.069 A 
HETATM    2  N   UNL     1       6.918  24.668  53.188  1.00  0.00    -0.248 NA
HETATM    3  C   UNL     1       7.451  24.030  54.241  1.00  0.00     0.068 A 
HETATM    4  C   UNL     1       7.709  24.655  55.479  1.00  0.00     0.009 A 
HETATM    5  C   UNL     1       7.457  26.050  55.528  1.00  0.00     0.048 A 
HETATM    6  C   UNL     1       6.867  26.696  54.434  1.00  0.00     0.050 A 
HETATM    7  C   UNL     1       7.731  22.680  54.087  1.00  0.00     0.032 A 
HETATM    8  C   UNL     1       8.226  21.901  55.133  1.00  0.00     0.002 A 
HETATM    9  C   UNL     1       8.425  22.478  56.375  1.00  0.00     0.001 A 
HETATM   10  C   UNL     1       8.160  23.836  56.552  1.00  0.00     0.015 A 
ENDROOT
BRANCH   5  11
HETATM   11  C   UNL     1       7.764  26.942  56.687  1.00  0.00     0.271 C 
HETATM   12  N   UNL     1       7.896  28.290  56.423  1.00  0.00    -0.252 N 
HETATM   13  H   UNL     1       7.477  28.685  55.585  1.00  0.00     0.191 HD
HETATM   14  O   UNL     1       7.797  26.464  57.818  1.00  0.00    -0.266 OA
BRANCH  12  15
HETATM   15  N   UNL     1       7.948  29.160  57.507  1.00  0.00    -0.167 N 
HETATM   16  C   UNL     1       6.834  29.808  57.967  1.00  0.00     0.345 C 
HETATM   17  O   UNL     1       5.684  29.661  57.587  1.00  0.00    -0.245 OA
HETATM   18  N   UNL     1       7.243  30.740  58.901  1.00  0.00    -0.323 N 
HETATM   19  C   UNL     1       8.670  30.645  59.167  1.00  0.00     0.117 C 
HETATM   20  H   UNL     1       6.570  31.289  59.422  1.00  0.00     0.165 HD
HETATM   21  C   UNL     1       8.919  29.874  60.472  1.00  0.00     0.041 C 
HETATM   22  C   UNL     1       9.369  32.003  59.159  1.00  0.00     0.041 C 
HETATM   23  C   UNL     1       9.094  29.772  57.964  1.00  0.00     0.275 C 
HETATM   24  C   UNL     1       8.570  30.714  61.701  1.00  0.00     0.003 C 
HETATM   25  C   UNL     1       9.302  32.052  61.690  1.00  0.00     0.000 C 
HETATM   26  C   UNL     1       9.043  32.830  60.403  1.00  0.00     0.003 C 
HETATM   27  O   UNL     1      10.235  29.667  57.534  1.00  0.00    -0.268 OA
ENDBRANCH  12  15
ENDBRANCH   5  11
BRANCH   1  28
HETATM   28  C   UNL     1       5.844  26.537  52.139  1.00  0.00    -0.004 A 
HETATM   29  C   UNL     1       5.638  27.929  52.024  1.00  0.00     0.053 A 
HETATM   30  C   UNL     1       4.997  28.496  50.912  1.00  0.00     0.102 A 
HETATM   31  C   UNL     1       4.580  27.653  49.873  1.00  0.00     0.101 A 
HETATM   32  C   UNL     1       4.738  26.272  49.981  1.00  0.00     0.040 A 
HETATM   33  C   UNL     1       5.370  25.722  51.097  1.00  0.00     0.017 A 
BRANCH  30  34
HETATM   34  O   UNL     1       4.744  29.835  50.766  1.00  0.00    -0.353 OA
HETATM   35  C   UNL     1       5.739  30.627  50.134  1.00  0.00     0.210 C 
ENDBRANCH  30  34
BRANCH  31  36
HETATM   36  O   UNL     1       3.955  28.076  48.726  1.00  0.00    -0.353 OA
HETATM   37  C   UNL     1       2.596  27.652  48.642  1.00  0.00     0.210 C 
ENDBRANCH  31  36
ENDBRANCH   1  28
TORSDOF 5
ENDMDL
MODEL 4
REMARK VINA RESULT:     -10.0      3.776      6.546
REMARK  5 active torsions:
REMARK  status: ('A' for Active; 'I' for Inactive)
REMARK    1  A    between atoms: O_2  and  C_3 
REMARK    2  A    between atoms: C_4  and  O_5 
REMARK    3  A    between atoms: C_8  and  C_9 
REMARK    4  A    between atoms: C_13  and  C_14 
REMARK       I    between atoms: C_14  and  N_15 
REMARK    5  A    between atoms: N_15  and  N_16 
ROOT
HETATM    1  C   UNL     1       6.547  26.314  53.380  1.00  0.00     0.069 A 
HETATM    2  N   UNL     1       6.540  27.159  54.436  1.00  0.00    -0.248 NA
HETATM    3  C   UNL     1       5.848  28.307  54.371  1.00  0.00     0.068 A 
HETATM    4  C   UNL     1       5.126  28.714  53.229  1.00  0.00     0.009 A 
HETATM    5  C   UNL     1       5.247  27.874  52.092  1.00  0.00     0.048 A 
HETATM    6  C   UNL     1       5.944  26.662  52.186  1.00  0.00     0.050 A 
HETATM    7  C   UNL     1       5.837  29.104  55.506  1.00  0.00     0.032 A 
HETATM    8  C   UNL     1       5.099  30.286  55.574  1.00  0.00     0.002 A 
HETATM    9  C   UNL     1       4.331  30.672  54.489  1.00  0.00     0.001 A 
HETATM   10  C   UNL     1       4.333  29.891  53.333  1.00  0.00     0.015 A 
ENDROOT
BRANCH   5  11
HETATM   11  C   UNL     1       4.674  28.161  50.743  1.00  0.00     0.271 C 
HETATM   12  N   UNL     1       3.823  27.215  50.208  1.00  0.00    -0.252 N 
HETATM   13  H   UNL     1       3.353  26.552  50.821  1.00  0.00     0.191 HD
HETATM   14  O   UNL     1       4.905  29.244  50.212  1.00  0.00    -0.266 OA
BRANCH  12  15
HETATM   15  N   UNL     1       3.100  27.561  49.071  1.00  0.00    -0.167 N 
HETATM   16  C   UNL     1       3.665  27.548  47.825  1.00  0.00     0.345 C 
HETATM   17  O   UNL     1       4.784  27.164  47.524  1.00  0.00    -0.245 OA
HETATM   18  N   UNL     1       2.770  28.130  46.950  1.00  0.00    -0.323 N 
HETATM   19  C   UNL     1       1.508  28.447  47.601  1.00  0.00     0.117 C 
HETATM   20  H   UNL     1       2.956  28.163  45.955  1.00  0.00     0.165 HD
HETATM   21  C   UNL     1       0.457  27.375  47.278  1.00  0.00     0.041 C 
HETATM   22  C   UNL     1       1.010  29.856  47.283  1.00  0.00     0.041 C 
HETATM   23  C   UNL     1       1.946  28.311  49.078  1.00  0.00     0.275 C 
HETATM   24  C   UNL     1      -0.056  27.499  45.843  1.00  0.00     0.003 C 
HETATM   25  C   UNL     1      -0.576  28.904  45.555  1.00  0.00     0.000 C 
HETATM   26  C   UNL     1       0.471  29.971  45.857  1.00  0.00     0.003 C 
HETATM   27  O   UNL     1       1.353  28.785  50.037  1.00  0.00    -0.268 OA
ENDBRANCH  12  15
ENDBRANCH   5  11
BRANCH   1  28
HETATM   28  C   UNL     1       7.196  25.007  53.610  1.00  0.00    -0.004 A 
HETATM   29  C   UNL     1       7.586  24.610  54.908  1.00  0.00     0.053 A 
HETATM   30  C   UNL     1       8.153  23.351  55.161  1.00  0.00     0.102 A 
HETATM   31  C   UNL     1       8.305  22.454  54.095  1.00  0.00     0.101 A 
HETATM   32  C   UNL     1       7.964  22.838  52.799  1.00  0.00     0.040 A 
HETATM   33  C   UNL     1       7.408  24.096  52.561  1.00  0.00     0.017 A 
BRANCH  30  34
HETATM   34  O   UNL     1       8.576  22.930  56.395  1.00  0.00    -0.353 OA
HETATM   35  C   UNL     1       8.802  23.922  57.386  1.00  0.00     0.210 C 
ENDBRANCH  30  34
BRANCH  31  36
HETATM   36  O   UNL     1       8.830  21.191  54.206  1.00  0.00    -0.353 OA
HETATM   37  C   UNL     1       8.550  20.369  53.074  1.00  0.00     0.210 C 
ENDBRANCH  31  36
ENDBRANCH   1  28
TORSDOF 5
ENDMDL
MODEL 5
REMARK VINA RESULT:      -9.8      2.487      8.989
REMARK  5 active torsions:
REMARK  status: ('A' for Active; 'I' for Inactive)
REMARK    1  A    between atoms: O_2  and  C_3 
REMARK    2  A    between atoms: C_4  and  O_5 
REMARK    3  A    between atoms: C_8  and  C_9 
REMARK    4  A    between atoms: C_13  and  C_14 
REMARK       I    between atoms: C_14  and  N_15 
REMARK    5  A    between atoms: N_15  and  N_16 
ROOT
HETATM    1  C   UNL     1       5.764  26.886  51.684  1.00  0.00     0.069 A 
HETATM    2  N   UNL     1       6.523  25.774  51.567  1.00  0.00    -0.248 NA
HETATM    3  C   UNL     1       7.039  25.196  52.662  1.00  0.00     0.068 A 
HETATM    4  C   UNL     1       6.856  25.702  53.967  1.00  0.00     0.009 A 
HETATM    5  C   UNL     1       6.161  26.936  54.055  1.00  0.00     0.048 A 
HETATM    6  C   UNL     1       5.599  27.509  52.907  1.00  0.00     0.050 A 
HETATM    7  C   UNL     1       7.763  24.026  52.480  1.00  0.00     0.032 A 
HETATM    8  C   UNL     1       8.290  23.306  53.552  1.00  0.00     0.002 A 
HETATM    9  C   UNL     1       8.067  23.749  54.844  1.00  0.00     0.001 A 
HETATM   10  C   UNL     1       7.349  24.926  55.052  1.00  0.00     0.015 A 
ENDROOT
BRANCH   5  11
HETATM   11  C   UNL     1       5.952  27.720  55.310  1.00  0.00     0.271 C 
HETATM   12  N   UNL     1       6.410  29.022  55.320  1.00  0.00    -0.252 N 
HETATM   13  H   UNL     1       6.558  29.513  54.442  1.00  0.00     0.191 HD
HETATM   14  O   UNL     1       5.315  27.216  56.232  1.00  0.00    -0.266 OA
BRANCH  12  15
HETATM   15  N   UNL     1       6.023  29.837  56.379  1.00  0.00    -0.167 N 
HETATM   16  C   UNL     1       6.682  29.824  57.578  1.00  0.00     0.345 C 
HETATM   17  O   UNL     1       7.700  29.211  57.856  1.00  0.00    -0.245 OA
HETATM   18  N   UNL     1       5.945  30.575  58.472  1.00  0.00    -0.323 N 
HETATM   19  C   UNL     1       4.806  31.212  57.830  1.00  0.00     0.117 C 
HETATM   20  H   UNL     1       6.285  30.757  59.409  1.00  0.00     0.165 HD
HETATM   21  C   UNL     1       5.120  32.685  57.526  1.00  0.00     0.041 C 
HETATM   22  C   UNL     1       3.509  31.052  58.622  1.00  0.00     0.041 C 
HETATM   23  C   UNL     1       4.777  30.407  56.511  1.00  0.00     0.275 C 
HETATM   24  C   UNL     1       5.104  33.541  58.793  1.00  0.00     0.003 C 
HETATM   25  C   UNL     1       3.790  33.390  59.552  1.00  0.00     0.000 C 
HETATM   26  C   UNL     1       3.482  31.931  59.873  1.00  0.00     0.003 C 
HETATM   27  O   UNL     1       3.819  30.324  55.755  1.00  0.00    -0.268 OA
ENDBRANCH  12  15
ENDBRANCH   5  11
BRANCH   1  28
HETATM   28  C   UNL     1       5.107  27.348  50.444  1.00  0.00    -0.004 A 
HETATM   29  C   UNL     1       4.856  26.453  49.381  1.00  0.00     0.053 A 
HETATM   30  C   UNL     1       4.184  26.853  48.215  1.00  0.00     0.102 A 
HETATM   31  C   UNL     1       3.723  28.174  48.124  1.00  0.00     0.101 A 
HETATM   32  C   UNL     1       3.993  29.086  49.144  1.00  0.00     0.040 A 
HETATM   33  C   UNL     1       4.669  28.675  50.293  1.00  0.00     0.017 A 
BRANCH  30  34
HETATM   34  O   UNL     1       3.943  26.034  47.144  1.00  0.00    -0.353 OA
HETATM   35  C   UNL     1       2.796  25.197  47.201  1.00  0.00     0.210 C 
ENDBRANCH  30  34
BRANCH  31  36
HETATM   36  O   UNL     1       3.041  28.691  47.050  1.00  0.00    -0.353 OA
HETATM   37  C   UNL     1       2.784  30.089  47.173  1.00  0.00     0.210 C 
ENDBRANCH  31  36
ENDBRANCH   1  28
TORSDOF 5
ENDMDL
MODEL 6
REMARK VINA RESULT:      -9.7      3.255      6.164
REMARK  5 active torsions:
REMARK  status: ('A' for Active; 'I' for Inactive)
REMARK    1  A    between atoms: O_2  and  C_3 
REMARK    2  A    between atoms: C_4  and  O_5 
REMARK    3  A    between atoms: C_8  and  C_9 
REMARK    4  A    between atoms: C_13  and  C_14 
REMARK       I    between atoms: C_14  and  N_15 
REMARK    5  A    between atoms: N_15  and  N_16 
ROOT
HETATM    1  C   UNL     1       5.869  32.215  58.531  1.00  0.00     0.069 A 
HETATM    2  N   UNL     1       5.427  33.346  57.936  1.00  0.00    -0.248 NA
HETATM    3  C   UNL     1       4.788  33.276  56.758  1.00  0.00     0.068 A 
HETATM    4  C   UNL     1       4.564  32.067  56.066  1.00  0.00     0.009 A 
HETATM    5  C   UNL     1       5.143  30.910  56.647  1.00  0.00     0.048 A 
HETATM    6  C   UNL     1       5.777  30.992  57.894  1.00  0.00     0.050 A 
HETATM    7  C   UNL     1       4.311  34.465  56.226  1.00  0.00     0.032 A 
HETATM    8  C   UNL     1       3.577  34.505  55.040  1.00  0.00     0.002 A 
HETATM    9  C   UNL     1       3.289  33.324  54.378  1.00  0.00     0.001 A 
HETATM   10  C   UNL     1       3.766  32.117  54.889  1.00  0.00     0.015 A 
ENDROOT
BRANCH   5  11
HETATM   11  C   UNL     1       5.141  29.545  56.038  1.00  0.00     0.271 C 
HETATM   12  N   UNL     1       5.845  29.382  54.862  1.00  0.00    -0.252 N 
HETATM   13  H   UNL     1       6.584  30.037  54.620  1.00  0.00     0.191 HD
HETATM   14  O   UNL     1       4.600  28.621  56.640  1.00  0.00    -0.266 OA
BRANCH  12  15
HETATM   15  N   UNL     1       6.051  28.084  54.405  1.00  0.00    -0.167 N 
HETATM   16  C   UNL     1       5.071  27.383  53.757  1.00  0.00     0.345 C 
HETATM   17  O   UNL     1       3.972  27.790  53.416  1.00  0.00    -0.245 OA
HETATM   18  N   UNL     1       5.506  26.080  53.618  1.00  0.00    -0.323 N 
HETATM   19  C   UNL     1       6.874  25.916  54.086  1.00  0.00     0.117 C 
HETATM   20  H   UNL     1       4.962  25.398  53.103  1.00  0.00     0.165 HD
HETATM   21  C   UNL     1       7.847  25.906  52.897  1.00  0.00     0.041 C 
HETATM   22  C   UNL     1       7.053  24.695  54.986  1.00  0.00     0.041 C 
HETATM   23  C   UNL     1       7.032  27.238  54.871  1.00  0.00     0.275 C 
HETATM   24  C   UNL     1       7.774  24.594  52.117  1.00  0.00     0.003 C 
HETATM   25  C   UNL     1       7.986  23.389  53.029  1.00  0.00     0.000 C 
HETATM   26  C   UNL     1       7.010  23.384  54.201  1.00  0.00     0.003 C 
HETATM   27  O   UNL     1       7.879  27.455  55.726  1.00  0.00    -0.268 OA
ENDBRANCH  12  15
ENDBRANCH   5  11
BRANCH   1  28
HETATM   28  C   UNL     1       6.408  32.379  59.898  1.00  0.00    -0.004 A 
HETATM   29  C   UNL     1       7.686  31.884  60.236  1.00  0.00     0.053 A 
HETATM   30  C   UNL     1       8.243  32.075  61.511  1.00  0.00     0.102 A 
HETATM   31  C   UNL     1       7.517  32.807  62.460  1.00  0.00     0.101 A 
HETATM   32  C   UNL     1       6.237  33.272  62.161  1.00  0.00     0.040 A 
HETATM   33  C   UNL     1       5.693  33.068  60.892  1.00  0.00     0.017 A 
BRANCH  30  34
HETATM   34  O   UNL     1       9.464  31.588  61.900  1.00  0.00    -0.353 OA
HETATM   35  C   UNL     1       9.593  30.182  62.049  1.00  0.00     0.210 C 
ENDBRANCH  30  34
BRANCH  31  36
HETATM   36  O   UNL     1       7.949  33.079  63.734  1.00  0.00    -0.353 OA
HETATM   37  C   UNL     1       6.880  33.316  64.648  1.00  0.00     0.210 C 
ENDBRANCH  31  36
ENDBRANCH   1  28
TORSDOF 5
ENDMDL
MODEL 7
REMARK VINA RESULT:      -9.7      3.203      6.393
REMARK  5 active torsions:
REMARK  status: ('A' for Active; 'I' for Inactive)
REMARK    1  A    between atoms: O_2  and  C_3 
REMARK    2  A    between atoms: C_4  and  O_5 
REMARK    3  A    between atoms: C_8  and  C_9 
REMARK    4  A    between atoms: C_13  and  C_14 
REMARK       I    between atoms: C_14  and  N_15 
REMARK    5  A    between atoms: N_15  and  N_16 
ROOT
HETATM    1  C   UNL     1       6.024  30.312  57.315  1.00  0.00     0.069 A 
HETATM    2  N   UNL     1       5.374  31.001  56.350  1.00  0.00    -0.248 NA
HETATM    3  C   UNL     1       4.831  30.349  55.311  1.00  0.00     0.068 A 
HETATM    4  C   UNL     1       4.917  28.951  55.141  1.00  0.00     0.009 A 
HETATM    5  C   UNL     1       5.707  28.263  56.098  1.00  0.00     0.048 A 
HETATM    6  C   UNL     1       6.238  28.951  57.196  1.00  0.00     0.050 A 
HETATM    7  C   UNL     1       4.131  31.107  54.384  1.00  0.00     0.032 A 
HETATM    8  C   UNL     1       3.471  30.528  53.300  1.00  0.00     0.002 A 
HETATM    9  C   UNL     1       3.487  29.152  53.149  1.00  0.00     0.001 A 
HETATM   10  C   UNL     1       4.191  28.370  54.064  1.00  0.00     0.015 A 
ENDROOT
BRANCH   5  11
HETATM   11  C   UNL     1       6.039  26.806  56.055  1.00  0.00     0.271 C 
HETATM   12  N   UNL     1       7.308  26.464  55.633  1.00  0.00    -0.252 N 
HETATM   13  H   UNL     1       8.059  27.148  55.684  1.00  0.00     0.191 HD
HETATM   14  O   UNL     1       5.219  25.992  56.473  1.00  0.00    -0.266 OA
BRANCH  12  15
HETATM   15  N   UNL     1       7.715  25.146  55.807  1.00  0.00    -0.167 N 
HETATM   16  C   UNL     1       8.304  24.719  56.966  1.00  0.00     0.345 C 
HETATM   17  O   UNL     1       8.465  25.358  57.993  1.00  0.00    -0.245 OA
HETATM   18  N   UNL     1       8.772  23.437  56.754  1.00  0.00    -0.323 N 
HETATM   19  C   UNL     1       8.390  22.934  55.444  1.00  0.00     0.117 C 
HETATM   20  H   UNL     1       9.185  22.899  57.506  1.00  0.00     0.165 HD
HETATM   21  C   UNL     1       7.175  22.001  55.565  1.00  0.00     0.041 C 
HETATM   22  C   UNL     1       9.548  22.275  54.696  1.00  0.00     0.041 C 
HETATM   23  C   UNL     1       7.956  24.261  54.780  1.00  0.00     0.275 C 
HETATM   24  C   UNL     1       7.557  20.647  56.163  1.00  0.00     0.003 C 
HETATM   25  C   UNL     1       8.695  19.993  55.384  1.00  0.00     0.000 C 
HETATM   26  C   UNL     1       9.911  20.909  55.277  1.00  0.00     0.003 C 
HETATM   27  O   UNL     1       7.853  24.448  53.576  1.00  0.00    -0.268 OA
ENDBRANCH  12  15
ENDBRANCH   5  11
BRANCH   1  28
HETATM   28  C   UNL     1       6.439  31.098  58.496  1.00  0.00    -0.004 A 
HETATM   29  C   UNL     1       5.532  31.965  59.143  1.00  0.00     0.053 A 
HETATM   30  C   UNL     1       5.884  32.680  60.299  1.00  0.00     0.102 A 
HETATM   31  C   UNL     1       7.164  32.498  60.839  1.00  0.00     0.101 A 
HETATM   32  C   UNL     1       8.090  31.678  60.195  1.00  0.00     0.040 A 
HETATM   33  C   UNL     1       7.728  30.979  59.042  1.00  0.00     0.017 A 
BRANCH  30  34
HETATM   34  O   UNL     1       5.053  33.557  60.947  1.00  0.00    -0.353 OA
HETATM   35  C   UNL     1       4.008  33.009  61.738  1.00  0.00     0.210 C 
ENDBRANCH  30  34
BRANCH  31  36
HETATM   36  O   UNL     1       7.631  33.123  61.969  1.00  0.00    -0.353 OA
HETATM   37  C   UNL     1       7.977  32.209  63.009  1.00  0.00     0.210 C 
ENDBRANCH  31  36
ENDBRANCH   1  28
TORSDOF 5
ENDMDL
MODEL 8
REMARK VINA RESULT:      -9.6      3.740      7.024
REMARK  5 active torsions:
REMARK  status: ('A' for Active; 'I' for Inactive)
REMARK    1  A    between atoms: O_2  and  C_3 
REMARK    2  A    between atoms: C_4  and  O_5 
REMARK    3  A    between atoms: C_8  and  C_9 
REMARK    4  A    between atoms: C_13  and  C_14 
REMARK       I    between atoms: C_14  and  N_15 
REMARK    5  A    between atoms: N_15  and  N_16 
ROOT
HETATM    1  C   UNL     1       5.465  32.758  58.728  1.00  0.00     0.069 A 
HETATM    2  N   UNL     1       6.060  32.929  59.930  1.00  0.00    -0.248 NA
HETATM    3  C   UNL     1       7.079  32.135  60.291  1.00  0.00     0.068 A 
HETATM    4  C   UNL     1       7.569  31.084  59.486  1.00  0.00     0.009 A 
HETATM    5  C   UNL     1       6.853  30.845  58.285  1.00  0.00     0.048 A 
HETATM    6  C   UNL     1       5.813  31.703  57.905  1.00  0.00     0.050 A 
HETATM    7  C   UNL     1       7.683  32.396  61.513  1.00  0.00     0.032 A 
HETATM    8  C   UNL     1       8.791  31.676  61.961  1.00  0.00     0.002 A 
HETATM    9  C   UNL     1       9.329  30.685  61.159  1.00  0.00     0.001 A 
HETATM   10  C   UNL     1       8.734  30.399  59.930  1.00  0.00     0.015 A 
ENDROOT
BRANCH   5  11
HETATM   11  C   UNL     1       7.110  29.719  57.337  1.00  0.00     0.271 C 
HETATM   12  N   UNL     1       6.319  28.595  57.467  1.00  0.00    -0.252 N 
HETATM   13  H   UNL     1       5.415  28.663  57.930  1.00  0.00     0.191 HD
HETATM   14  O   UNL     1       7.936  29.868  56.441  1.00  0.00    -0.266 OA
BRANCH  12  15
HETATM   15  N   UNL     1       6.380  27.639  56.459  1.00  0.00    -0.167 N 
HETATM   16  C   UNL     1       5.289  27.328  55.693  1.00  0.00     0.345 C 
HETATM   17  O   UNL     1       4.195  27.869  55.708  1.00  0.00    -0.245 OA
HETATM   18  N   UNL     1       5.609  26.218  54.936  1.00  0.00    -0.323 N 
HETATM   19  C   UNL     1       7.000  25.831  55.109  1.00  0.00     0.117 C 
HETATM   20  H   UNL     1       4.966  25.855  54.242  1.00  0.00     0.165 HD
HETATM   21  C   UNL     1       7.845  26.337  53.930  1.00  0.00     0.041 C 
HETATM   22  C   UNL     1       7.177  24.331  55.340  1.00  0.00     0.041 C 
HETATM   23  C   UNL     1       7.336  26.653  56.374  1.00  0.00     0.275 C 
HETATM   24  C   UNL     1       7.596  25.520  52.662  1.00  0.00     0.003 C 
HETATM   25  C   UNL     1       7.807  24.029  52.907  1.00  0.00     0.000 C 
HETATM   26  C   UNL     1       6.956  23.517  54.065  1.00  0.00     0.003 C 
HETATM   27  O   UNL     1       8.279  26.442  57.124  1.00  0.00    -0.268 OA
ENDBRANCH  12  15
ENDBRANCH   5  11
BRANCH   1  28
HETATM   28  C   UNL     1       4.470  33.784  58.354  1.00  0.00    -0.004 A 
HETATM   29  C   UNL     1       3.278  33.941  59.095  1.00  0.00     0.053 A 
HETATM   30  C   UNL     1       2.343  34.943  58.795  1.00  0.00     0.102 A 
HETATM   31  C   UNL     1       2.621  35.832  57.747  1.00  0.00     0.101 A 
HETATM   32  C   UNL     1       3.773  35.674  56.977  1.00  0.00     0.040 A 
HETATM   33  C   UNL     1       4.690  34.667  57.282  1.00  0.00     0.017 A 
BRANCH  30  34
HETATM   34  O   UNL     1       1.158  35.118  59.461  1.00  0.00    -0.353 OA
HETATM   35  C   UNL     1       1.096  34.688  60.814  1.00  0.00     0.210 C 
ENDBRANCH  30  34
BRANCH  31  36
HETATM   36  O   UNL     1       1.802  36.864  57.359  1.00  0.00    -0.353 OA
HETATM   37  C   UNL     1       2.113  37.364  56.060  1.00  0.00     0.210 C 
ENDBRANCH  31  36
ENDBRANCH   1  28
TORSDOF 5
ENDMDL
MODEL 9
REMARK VINA RESULT:      -9.4      2.797      8.443
REMARK  5 active torsions:
REMARK  status: ('A' for Active; 'I' for Inactive)
REMARK    1  A    between atoms: O_2  and  C_3 
REMARK    2  A    between atoms: C_4  and  O_5 
REMARK    3  A    between atoms: C_8  and  C_9 
REMARK    4  A    between atoms: C_13  and  C_14 
REMARK       I    between atoms: C_14  and  N_15 
REMARK    5  A    between atoms: N_15  and  N_16 
ROOT
HETATM    1  C   UNL     1       6.272  25.608  53.296  1.00  0.00     0.069 A 
HETATM    2  N   UNL     1       5.822  25.511  52.025  1.00  0.00    -0.248 NA
HETATM    3  C   UNL     1       5.176  26.544  51.463  1.00  0.00     0.068 A 
HETATM    4  C   UNL     1       4.905  27.752  52.140  1.00  0.00     0.009 A 
HETATM    5  C   UNL     1       5.276  27.786  53.508  1.00  0.00     0.048 A 
HETATM    6  C   UNL     1       5.981  26.715  54.072  1.00  0.00     0.050 A 
HETATM    7  C   UNL     1       4.788  26.401  50.138  1.00  0.00     0.032 A 
HETATM    8  C   UNL     1       4.167  27.433  49.433  1.00  0.00     0.002 A 
HETATM    9  C   UNL     1       3.950  28.649  50.057  1.00  0.00     0.001 A 
HETATM   10  C   UNL     1       4.324  28.813  51.391  1.00  0.00     0.015 A 
ENDROOT
BRANCH   5  11
HETATM   11  C   UNL     1       4.984  28.906  54.453  1.00  0.00     0.271 C 
HETATM   12  N   UNL     1       5.036  28.619  55.802  1.00  0.00    -0.252 N 
HETATM   13  H   UNL     1       5.566  27.815  56.128  1.00  0.00     0.191 HD
HETATM   14  O   UNL     1       4.801  30.036  54.005  1.00  0.00    -0.266 OA
BRANCH  12  15
HETATM   15  N   UNL     1       5.000  29.686  56.694  1.00  0.00    -0.167 N 
HETATM   16  C   UNL     1       6.042  29.958  57.537  1.00  0.00     0.345 C 
HETATM   17  O   UNL     1       7.131  29.406  57.570  1.00  0.00    -0.245 OA
HETATM   18  N   UNL     1       5.626  30.932  58.423  1.00  0.00    -0.323 N 
HETATM   19  C   UNL     1       4.293  31.418  58.102  1.00  0.00     0.117 C 
HETATM   20  H   UNL     1       6.265  31.335  59.097  1.00  0.00     0.165 HD
HETATM   21  C   UNL     1       4.381  32.756  57.352  1.00  0.00     0.041 C 
HETATM   22  C   UNL     1       3.378  31.501  59.322  1.00  0.00     0.041 C 
HETATM   23  C   UNL     1       3.848  30.307  57.123  1.00  0.00     0.275 C 
HETATM   24  C   UNL     1       4.762  33.905  58.286  1.00  0.00     0.003 C 
HETATM   25  C   UNL     1       3.818  33.989  59.482  1.00  0.00     0.000 C 
HETATM   26  C   UNL     1       3.742  32.668  60.241  1.00  0.00     0.003 C 
HETATM   27  O   UNL     1       2.691  30.063  56.811  1.00  0.00    -0.268 OA
ENDBRANCH  12  15
ENDBRANCH   5  11
BRANCH   1  28
HETATM   28  C   UNL     1       7.113  24.488  53.766  1.00  0.00    -0.004 A 
HETATM   29  C   UNL     1       7.511  24.398  55.118  1.00  0.00     0.053 A 
HETATM   30  C   UNL     1       8.263  23.316  55.602  1.00  0.00     0.102 A 
HETATM   31  C   UNL     1       8.598  22.281  54.718  1.00  0.00     0.101 A 
HETATM   32  C   UNL     1       8.250  22.366  53.370  1.00  0.00     0.040 A 
HETATM   33  C   UNL     1       7.509  23.452  52.902  1.00  0.00     0.017 A 
BRANCH  30  34
HETATM   34  O   UNL     1       8.701  23.197  56.895  1.00  0.00    -0.353 OA
HETATM   35  C   UNL     1       8.932  24.394  57.623  1.00  0.00     0.210 C 
ENDBRANCH  30  34
BRANCH  31  36
HETATM   36  O   UNL     1       9.315  21.161  55.061  1.00  0.00    -0.353 OA
HETATM   37  C   UNL     1       8.794  19.966  54.483  1.00  0.00     0.210 C 
ENDBRANCH  31  36
ENDBRANCH   1  28
TORSDOF 5
ENDMDL
MODEL 10
REMARK VINA RESULT:      -9.4      3.548      6.246
REMARK  5 active torsions:
REMARK  status: ('A' for Active; 'I' for Inactive)
REMARK    1  A    between atoms: O_2  and  C_3 
REMARK    2  A    between atoms: C_4  and  O_5 
REMARK    3  A    between atoms: C_8  and  C_9 
REMARK    4  A    between atoms: C_13  and  C_14 
REMARK       I    between atoms: C_14  and  N_15 
REMARK    5  A    between atoms: N_15  and  N_16 
ROOT
HETATM    1  C   UNL     1       6.671  26.035  54.761  1.00  0.00     0.069 A 
HETATM    2  N   UNL     1       6.385  26.791  55.845  1.00  0.00    -0.248 NA
HETATM    3  C   UNL     1       5.638  27.897  55.711  1.00  0.00     0.068 A 
HETATM    4  C   UNL     1       5.138  28.352  54.471  1.00  0.00     0.009 A 
HETATM    5  C   UNL     1       5.553  27.613  53.334  1.00  0.00     0.048 A 
HETATM    6  C   UNL     1       6.303  26.441  53.492  1.00  0.00     0.050 A 
HETATM    7  C   UNL     1       5.333  28.599  56.868  1.00  0.00     0.032 A 
HETATM    8  C   UNL     1       4.512  29.727  56.856  1.00  0.00     0.002 A 
HETATM    9  C   UNL     1       3.957  30.153  55.661  1.00  0.00     0.001 A 
HETATM   10  C   UNL     1       4.256  29.468  54.483  1.00  0.00     0.015 A 
ENDROOT
BRANCH   5  11
HETATM   11  C   UNL     1       5.251  27.973  51.915  1.00  0.00     0.271 C 
HETATM   12  N   UNL     1       4.152  27.372  51.336  1.00  0.00    -0.252 N 
HETATM   13  H   UNL     1       3.414  26.992  51.924  1.00  0.00     0.191 HD
HETATM   14  O   UNL     1       5.923  28.838  51.360  1.00  0.00    -0.266 OA
BRANCH  12  15
HETATM   15  N   UNL     1       3.717  27.861  50.109  1.00  0.00    -0.167 N 
HETATM   16  C   UNL     1       4.212  27.385  48.925  1.00  0.00     0.345 C 
HETATM   17  O   UNL     1       4.986  26.455  48.768  1.00  0.00    -0.245 OA
HETATM   18  N   UNL     1       3.743  28.201  47.914  1.00  0.00    -0.323 N 
HETATM   19  C   UNL     1       2.809  29.197  48.414  1.00  0.00     0.117 C 
HETATM   20  H   UNL     1       3.932  27.990  46.941  1.00  0.00     0.165 HD
HETATM   21  C   UNL     1       1.363  28.758  48.135  1.00  0.00     0.041 C 
HETATM   22  C   UNL     1       3.095  30.601  47.886  1.00  0.00     0.041 C 
HETATM   23  C   UNL     1       3.100  29.079  49.927  1.00  0.00     0.275 C 
HETATM   24  C   UNL     1       1.000  28.910  46.658  1.00  0.00     0.003 C 
HETATM   25  C   UNL     1       1.265  30.327  46.159  1.00  0.00     0.000 C 
HETATM   26  C   UNL     1       2.705  30.760  46.417  1.00  0.00     0.003 C 
HETATM   27  O   UNL     1       2.817  29.920  50.769  1.00  0.00    -0.268 OA
ENDBRANCH  12  15
ENDBRANCH   5  11
BRANCH   1  28
HETATM   28  C   UNL     1       7.354  24.753  55.036  1.00  0.00    -0.004 A 
HETATM   29  C   UNL     1       7.759  23.908  53.981  1.00  0.00     0.053 A 
HETATM   30  C   UNL     1       8.458  22.713  54.212  1.00  0.00     0.102 A 
HETATM   31  C   UNL     1       8.789  22.371  55.531  1.00  0.00     0.101 A 
HETATM   32  C   UNL     1       8.366  23.170  56.592  1.00  0.00     0.040 A 
HETATM   33  C   UNL     1       7.665  24.352  56.347  1.00  0.00     0.017 A 
BRANCH  30  34
HETATM   34  O   UNL     1       8.846  21.842  53.227  1.00  0.00    -0.353 OA
HETATM   35  C   UNL     1       7.986  20.749  52.941  1.00  0.00     0.210 C 
ENDBRANCH  30  34
BRANCH  31  36
HETATM   36  O   UNL     1       9.481  21.242  55.895  1.00  0.00    -0.353 OA
HETATM   37  C   UNL     1       8.692  20.323  56.649  1.00  0.00     0.210 C 
ENDBRANCH  31  36
ENDBRANCH   1  28
TORSDOF 5
ENDMDL
