MODEL 1
REMARK VINA RESULT:      -7.1      0.000      0.000
REMARK  9 active torsions:
REMARK  status: ('A' for Active; 'I' for Inactive)
REMARK    1  A    between atoms: C_2  and  O_3 
REMARK    2  A    between atoms: O_3  and  C_4 
REMARK    3  A    between atoms: C_4  and  C_5 
REMARK    4  A    between atoms: C_11  and  O_12 
REMARK    5  A    between atoms: C_13  and  C_14 
REMARK    6  A    between atoms: C_14  and  N_15 
REMARK    7  A    between atoms: N_19  and  C_20 
REMARK    8  A    between atoms: C_26  and  C_27 
REMARK    9  A    between atoms: C_27  and  N_28 
ROOT
HETATM    1  C   UNL     1       5.187  29.115  51.224  1.00  0.00     0.077 A 
HETATM    2  C   UNL     1       4.504  28.272  50.255  1.00  0.00     0.020 A 
HETATM    3  C   UNL     1       4.811  26.950  50.608  1.00  0.00     0.053 A 
HETATM    4  C   UNL     1       4.381  25.848  49.843  1.00  0.00     0.053 A 
HETATM    5  C   UNL     1       3.625  26.081  48.704  1.00  0.00     0.047 A 
HETATM    6 BR   UNL     1       3.077  24.599  47.659  1.00  0.00    -0.048 Br
HETATM    7  C   UNL     1       3.288  27.379  48.336  1.00  0.00     0.092 A 
HETATM    8  C   UNL     1       3.666  28.511  49.103  1.00  0.00     0.016 A 
HETATM    9  N   UNL     1       5.644  26.970  51.722  1.00  0.00    -0.312 N 
HETATM   10  C   UNL     1       5.831  28.278  52.146  1.00  0.00     0.060 A 
ENDROOT
BRANCH  10  11
HETATM   11  C   UNL     1       6.621  28.618  53.380  1.00  0.00     0.293 C 
BRANCH  11  12
HETATM   12  N   UNL     1       5.802  29.263  54.466  1.00  0.00    -0.066 N 
HETATM   13  H   UNL     1       5.621  30.234  54.178  1.00  0.00     0.280 HD
HETATM   14  C   UNL     1       6.440  29.304  55.839  1.00  0.00     0.235 C 
HETATM   15  C   UNL     1       5.590  28.384  56.687  1.00  0.00     0.029 C 
HETATM   16  C   UNL     1       4.200  28.599  56.128  1.00  0.00     0.029 C 
HETATM   17  C   UNL     1       4.434  28.610  54.630  1.00  0.00     0.235 C 
ENDBRANCH  11  12
ENDBRANCH  10  11
BRANCH   1  18
HETATM   18  C   UNL     1       5.235  30.583  51.231  1.00  0.00     0.296 C 
HETATM   19  O   UNL     1       4.545  31.260  51.978  1.00  0.00    -0.259 OA
BRANCH  18  20
HETATM   20  O   UNL     1       6.153  31.088  50.361  1.00  0.00    -0.318 OA
BRANCH  20  21
HETATM   21  C   UNL     1       5.970  32.465  49.980  1.00  0.00     0.174 C 
HETATM   22  C   UNL     1       5.902  32.582  48.470  1.00  0.00     0.034 C 
ENDBRANCH  20  21
ENDBRANCH  18  20
ENDBRANCH   1  18
BRANCH   9  23
HETATM   23  C   UNL     1       6.202  25.815  52.331  1.00  0.00     0.040 A 
HETATM   24  C   UNL     1       5.578  25.251  53.450  1.00  0.00     0.030 A 
HETATM   25  C   UNL     1       6.124  24.111  54.040  1.00  0.00     0.002 A 
HETATM   26  C   UNL     1       7.285  23.543  53.518  1.00  0.00     0.000 A 
HETATM   27  C   UNL     1       7.912  24.116  52.411  1.00  0.00     0.002 A 
HETATM   28  C   UNL     1       7.378  25.258  51.815  1.00  0.00     0.030 A 
ENDBRANCH   9  23
BRANCH   8  29
HETATM   29  C   UNL     1       3.278  29.909  48.635  1.00  0.00     0.276 C 
BRANCH  29  30
HETATM   30  N   UNL     1       2.439  30.749  49.572  1.00  0.00    -0.075 N 
HETATM   31  H   UNL     1       3.041  30.881  50.405  1.00  0.00     0.279 HD
HETATM   32  C   UNL     1       2.137  32.115  49.043  1.00  0.00     0.269 C 
HETATM   33  C   UNL     1       1.208  30.033  50.033  1.00  0.00     0.269 C 
ENDBRANCH  29  30
ENDBRANCH   8  29
BRANCH   7  34
HETATM   34  O   UNL     1       2.570  27.585  47.176  1.00  0.00    -0.359 OA
HETATM   35  H   UNL     1       3.093  27.189  46.442  1.00  0.00     0.218 HD
ENDBRANCH   7  34
TORSDOF 9
ENDMDL
MODEL 2
REMARK VINA RESULT:      -7.0      2.765      5.173
REMARK  9 active torsions:
REMARK  status: ('A' for Active; 'I' for Inactive)
REMARK    1  A    between atoms: C_2  and  O_3 
REMARK    2  A    between atoms: O_3  and  C_4 
REMARK    3  A    between atoms: C_4  and  C_5 
REMARK    4  A    between atoms: C_11  and  O_12 
REMARK    5  A    between atoms: C_13  and  C_14 
REMARK    6  A    between atoms: C_14  and  N_15 
REMARK    7  A    between atoms: N_19  and  C_20 
REMARK    8  A    between atoms: C_26  and  C_27 
REMARK    9  A    between atoms: C_27  and  N_28 
ROOT
HETATM    1  C   UNL     1       5.442  27.309  52.248  1.00  0.00     0.077 A 
HETATM    2  C   UNL     1       4.754  28.548  52.576  1.00  0.00     0.020 A 
HETATM    3  C   UNL     1       5.329  29.004  53.772  1.00  0.00     0.053 A 
HETATM    4  C   UNL     1       4.860  30.151  54.442  1.00  0.00     0.053 A 
HETATM    5  C   UNL     1       3.797  30.854  53.896  1.00  0.00     0.047 A 
HETATM    6 BR   UNL     1       3.148  32.378  54.817  1.00  0.00    -0.048 Br
HETATM    7  C   UNL     1       3.215  30.439  52.703  1.00  0.00     0.092 A 
HETATM    8  C   UNL     1       3.686  29.314  51.977  1.00  0.00     0.016 A 
HETATM    9  N   UNL     1       6.307  28.098  54.168  1.00  0.00    -0.312 N 
HETATM   10  C   UNL     1       6.431  27.094  53.218  1.00  0.00     0.060 A 
ENDROOT
BRANCH  10  11
HETATM   11  C   UNL     1       7.466  26.009  53.325  1.00  0.00     0.293 C 
BRANCH  11  12
HETATM   12  N   UNL     1       6.885  24.629  53.475  1.00  0.00    -0.066 N 
HETATM   13  H   UNL     1       5.943  24.645  53.061  1.00  0.00     0.280 HD
HETATM   14  C   UNL     1       6.751  24.118  54.894  1.00  0.00     0.235 C 
HETATM   15  C   UNL     1       7.734  22.971  54.986  1.00  0.00     0.029 C 
HETATM   16  C   UNL     1       7.673  22.363  53.602  1.00  0.00     0.029 C 
HETATM   17  C   UNL     1       7.669  23.578  52.696  1.00  0.00     0.235 C 
ENDBRANCH  11  12
ENDBRANCH  10  11
BRANCH   1  18
HETATM   18  C   UNL     1       5.145  26.412  51.123  1.00  0.00     0.296 C 
HETATM   19  O   UNL     1       4.728  25.275  51.282  1.00  0.00    -0.259 OA
BRANCH  18  20
HETATM   20  O   UNL     1       5.338  27.000  49.910  1.00  0.00    -0.318 OA
BRANCH  20  21
HETATM   21  C   UNL     1       4.558  26.471  48.821  1.00  0.00     0.174 C 
HETATM   22  C   UNL     1       4.993  27.104  47.514  1.00  0.00     0.034 C 
ENDBRANCH  20  21
ENDBRANCH  18  20
ENDBRANCH   1  18
BRANCH   9  23
HETATM   23  C   UNL     1       7.066  28.204  55.363  1.00  0.00     0.040 A 
HETATM   24  C   UNL     1       8.264  28.928  55.362  1.00  0.00     0.030 A 
HETATM   25  C   UNL     1       9.002  29.039  56.540  1.00  0.00     0.002 A 
HETATM   26  C   UNL     1       8.549  28.427  57.707  1.00  0.00     0.000 A 
HETATM   27  C   UNL     1       7.361  27.694  57.702  1.00  0.00     0.002 A 
HETATM   28  C   UNL     1       6.616  27.574  56.529  1.00  0.00     0.030 A 
ENDBRANCH   9  23
BRANCH   8  29
HETATM   29  C   UNL     1       2.994  28.902  50.684  1.00  0.00     0.276 C 
BRANCH  29  30
HETATM   30  N   UNL     1       2.981  29.905  49.551  1.00  0.00    -0.075 N 
HETATM   31  H   UNL     1       2.479  30.723  49.940  1.00  0.00     0.279 HD
HETATM   32  C   UNL     1       4.343  30.384  49.160  1.00  0.00     0.269 C 
HETATM   33  C   UNL     1       2.188  29.426  48.374  1.00  0.00     0.269 C 
ENDBRANCH  29  30
ENDBRANCH   8  29
BRANCH   7  34
HETATM   34  O   UNL     1       2.132  31.133  52.203  1.00  0.00    -0.359 OA
HETATM   35  H   UNL     1       2.114  30.973  51.232  1.00  0.00     0.218 HD
ENDBRANCH   7  34
TORSDOF 9
ENDMDL
MODEL 3
REMARK VINA RESULT:      -6.9      3.207      7.632
REMARK  9 active torsions:
REMARK  status: ('A' for Active; 'I' for Inactive)
REMARK    1  A    between atoms: C_2  and  O_3 
REMARK    2  A    between atoms: O_3  and  C_4 
REMARK    3  A    between atoms: C_4  and  C_5 
REMARK    4  A    between atoms: C_11  and  O_12 
REMARK    5  A    between atoms: C_13  and  C_14 
REMARK    6  A    between atoms: C_14  and  N_15 
REMARK    7  A    between atoms: N_19  and  C_20 
REMARK    8  A    between atoms: C_26  and  C_27 
REMARK    9  A    between atoms: C_27  and  N_28 
ROOT
HETATM    1  C   UNL     1       5.052  27.268  52.877  1.00  0.00     0.077 A 
HETATM    2  C   UNL     1       4.781  28.053  54.071  1.00  0.00     0.020 A 
HETATM    3  C   UNL     1       4.397  29.325  53.618  1.00  0.00     0.053 A 
HETATM    4  C   UNL     1       4.127  30.388  54.502  1.00  0.00     0.053 A 
HETATM    5  C   UNL     1       4.241  30.166  55.866  1.00  0.00     0.047 A 
HETATM    6 BR   UNL     1       3.908  31.607  57.051  1.00  0.00    -0.048 Br
HETATM    7  C   UNL     1       4.602  28.912  56.349  1.00  0.00     0.092 A 
HETATM    8  C   UNL     1       4.840  27.807  55.493  1.00  0.00     0.016 A 
HETATM    9  N   UNL     1       4.439  29.331  52.228  1.00  0.00    -0.312 N 
HETATM   10  C   UNL     1       4.775  28.069  51.761  1.00  0.00     0.060 A 
ENDROOT
BRANCH  10  11
HETATM   11  C   UNL     1       4.821  27.740  50.294  1.00  0.00     0.293 C 
BRANCH  11  12
HETATM   12  N   UNL     1       3.601  27.013  49.797  1.00  0.00    -0.066 N 
HETATM   13  H   UNL     1       3.064  26.713  50.622  1.00  0.00     0.280 HD
HETATM   14  C   UNL     1       3.862  25.784  48.950  1.00  0.00     0.235 C 
HETATM   15  C   UNL     1       3.366  26.154  47.569  1.00  0.00     0.029 C 
HETATM   16  C   UNL     1       2.172  27.036  47.866  1.00  0.00     0.029 C 
HETATM   17  C   UNL     1       2.671  27.916  48.994  1.00  0.00     0.235 C 
ENDBRANCH  11  12
ENDBRANCH  10  11
BRANCH   1  18
HETATM   18  C   UNL     1       5.560  25.891  52.830  1.00  0.00     0.296 C 
HETATM   19  O   UNL     1       4.833  24.927  52.642  1.00  0.00    -0.259 OA
BRANCH  18  20
HETATM   20  O   UNL     1       6.913  25.819  52.969  1.00  0.00    -0.318 OA
BRANCH  20  21
HETATM   21  C   UNL     1       7.594  24.928  52.065  1.00  0.00     0.174 C 
HETATM   22  C   UNL     1       7.996  23.659  52.790  1.00  0.00     0.034 C 
ENDBRANCH  20  21
ENDBRANCH  18  20
ENDBRANCH   1  18
BRANCH   9  23
HETATM   23  C   UNL     1       4.164  30.466  51.420  1.00  0.00     0.040 A 
HETATM   24  C   UNL     1       2.837  30.825  51.158  1.00  0.00     0.030 A 
HETATM   25  C   UNL     1       2.570  31.946  50.372  1.00  0.00     0.002 A 
HETATM   26  C   UNL     1       3.621  32.698  49.850  1.00  0.00     0.000 A 
HETATM   27  C   UNL     1       4.943  32.330  50.102  1.00  0.00     0.002 A 
HETATM   28  C   UNL     1       5.222  31.209  50.884  1.00  0.00     0.030 A 
ENDBRANCH   9  23
BRANCH   8  29
HETATM   29  C   UNL     1       5.249  26.463  56.086  1.00  0.00     0.276 C 
BRANCH  29  30
HETATM   30  N   UNL     1       6.707  26.073  55.984  1.00  0.00    -0.075 N 
HETATM   31  H   UNL     1       6.939  26.208  54.984  1.00  0.00     0.279 HD
HETATM   32  C   UNL     1       7.622  26.966  56.760  1.00  0.00     0.269 C 
HETATM   33  C   UNL     1       6.933  24.624  56.291  1.00  0.00     0.269 C 
ENDBRANCH  29  30
ENDBRANCH   8  29
BRANCH   7  34
HETATM   34  O   UNL     1       4.747  28.731  57.709  1.00  0.00    -0.359 OA
HETATM   35  H   UNL     1       5.107  29.572  58.072  1.00  0.00     0.218 HD
ENDBRANCH   7  34
TORSDOF 9
ENDMDL
MODEL 4
REMARK VINA RESULT:      -6.8      9.326     13.601
REMARK  9 active torsions:
REMARK  status: ('A' for Active; 'I' for Inactive)
REMARK    1  A    between atoms: C_2  and  O_3 
REMARK    2  A    between atoms: O_3  and  C_4 
REMARK    3  A    between atoms: C_4  and  C_5 
REMARK    4  A    between atoms: C_11  and  O_12 
REMARK    5  A    between atoms: C_13  and  C_14 
REMARK    6  A    between atoms: C_14  and  N_15 
REMARK    7  A    between atoms: N_19  and  C_20 
REMARK    8  A    between atoms: C_26  and  C_27 
REMARK    9  A    between atoms: C_27  and  N_28 
ROOT
HETATM    1  C   UNL     1       4.666  33.651  61.967  1.00  0.00     0.077 A 
HETATM    2  C   UNL     1       4.897  35.054  62.271  1.00  0.00     0.020 A 
HETATM    3  C   UNL     1       4.341  35.777  61.204  1.00  0.00     0.053 A 
HETATM    4  C   UNL     1       4.442  37.179  61.113  1.00  0.00     0.053 A 
HETATM    5  C   UNL     1       5.110  37.867  62.115  1.00  0.00     0.047 A 
HETATM    6 BR   UNL     1       5.271  39.749  61.972  1.00  0.00    -0.048 Br
HETATM    7  C   UNL     1       5.657  37.182  63.195  1.00  0.00     0.092 A 
HETATM    8  C   UNL     1       5.540  35.776  63.344  1.00  0.00     0.016 A 
HETATM    9  N   UNL     1       3.807  34.876  60.288  1.00  0.00    -0.312 N 
HETATM   10  C   UNL     1       3.941  33.582  60.769  1.00  0.00     0.060 A 
ENDROOT
BRANCH  10  11
HETATM   11  C   UNL     1       3.386  32.391  60.037  1.00  0.00     0.293 C 
BRANCH  11  12
HETATM   12  N   UNL     1       4.431  31.568  59.334  1.00  0.00    -0.066 N 
HETATM   13  H   UNL     1       4.835  30.925  60.029  1.00  0.00     0.280 HD
HETATM   14  C   UNL     1       5.574  32.343  58.711  1.00  0.00     0.235 C 
HETATM   15  C   UNL     1       5.401  32.153  57.220  1.00  0.00     0.029 C 
HETATM   16  C   UNL     1       4.863  30.743  57.120  1.00  0.00     0.029 C 
HETATM   17  C   UNL     1       3.841  30.688  58.238  1.00  0.00     0.235 C 
ENDBRANCH  11  12
ENDBRANCH  10  11
BRANCH   1  18
HETATM   18  C   UNL     1       5.131  32.497  62.746  1.00  0.00     0.296 C 
HETATM   19  O   UNL     1       4.658  32.203  63.834  1.00  0.00    -0.259 OA
BRANCH  18  20
HETATM   20  O   UNL     1       6.096  31.778  62.107  1.00  0.00    -0.318 OA
BRANCH  20  21
HETATM   21  C   UNL     1       7.364  32.440  61.934  1.00  0.00     0.174 C 
HETATM   22  C   UNL     1       8.167  32.369  63.218  1.00  0.00     0.034 C 
ENDBRANCH  20  21
ENDBRANCH  18  20
ENDBRANCH   1  18
BRANCH   9  23
HETATM   23  C   UNL     1       3.207  35.243  59.055  1.00  0.00     0.040 A 
HETATM   24  C   UNL     1       4.010  35.465  57.931  1.00  0.00     0.030 A 
HETATM   25  C   UNL     1       3.416  35.815  56.719  1.00  0.00     0.002 A 
HETATM   26  C   UNL     1       2.031  35.946  56.632  1.00  0.00     0.000 A 
HETATM   27  C   UNL     1       1.234  35.736  57.758  1.00  0.00     0.002 A 
HETATM   28  C   UNL     1       1.817  35.389  58.977  1.00  0.00     0.030 A 
ENDBRANCH   9  23
BRANCH   8  29
HETATM   29  C   UNL     1       6.177  35.085  64.543  1.00  0.00     0.276 C 
BRANCH  29  30
HETATM   30  N   UNL     1       5.512  35.272  65.889  1.00  0.00    -0.075 N 
HETATM   31  H   UNL     1       5.831  36.205  66.204  1.00  0.00     0.279 HD
HETATM   32  C   UNL     1       4.019  35.333  65.816  1.00  0.00     0.269 C 
HETATM   33  C   UNL     1       5.991  34.281  66.905  1.00  0.00     0.269 C 
ENDBRANCH  29  30
ENDBRANCH   8  29
BRANCH   7  34
HETATM   34  O   UNL     1       6.352  37.887  64.157  1.00  0.00    -0.359 OA
HETATM   35  H   UNL     1       7.065  38.379  63.690  1.00  0.00     0.218 HD
ENDBRANCH   7  34
TORSDOF 9
ENDMDL
MODEL 5
REMARK VINA RESULT:      -6.7      3.829      7.897
REMARK  9 active torsions:
REMARK  status: ('A' for Active; 'I' for Inactive)
REMARK    1  A    between atoms: C_2  and  O_3 
REMARK    2  A    between atoms: O_3  and  C_4 
REMARK    3  A    between atoms: C_4  and  C_5 
REMARK    4  A    between atoms: C_11  and  O_12 
REMARK    5  A    between atoms: C_13  and  C_14 
REMARK    6  A    between atoms: C_14  and  N_15 
REMARK    7  A    between atoms: N_19  and  C_20 
REMARK    8  A    between atoms: C_26  and  C_27 
REMARK    9  A    between atoms: C_27  and  N_28 
ROOT
HETATM    1  C   UNL     1       5.068  27.713  53.969  1.00  0.00     0.077 A 
HETATM    2  C   UNL     1       5.786  28.176  55.146  1.00  0.00     0.020 A 
HETATM    3  C   UNL     1       5.300  29.465  55.413  1.00  0.00     0.053 A 
HETATM    4  C   UNL     1       5.823  30.266  56.447  1.00  0.00     0.053 A 
HETATM    5  C   UNL     1       6.849  29.759  57.230  1.00  0.00     0.047 A 
HETATM    6 BR   UNL     1       7.571  30.852  58.599  1.00  0.00    -0.048 Br
HETATM    7  C   UNL     1       7.342  28.478  57.003  1.00  0.00     0.092 A 
HETATM    8  C   UNL     1       6.814  27.626  56.000  1.00  0.00     0.016 A 
HETATM    9  N   UNL     1       4.347  29.787  54.453  1.00  0.00    -0.312 N 
HETATM   10  C   UNL     1       4.149  28.707  53.605  1.00  0.00     0.060 A 
ENDROOT
BRANCH  10  11
HETATM   11  C   UNL     1       3.117  28.721  52.511  1.00  0.00     0.293 C 
BRANCH  11  12
HETATM   12  N   UNL     1       3.695  28.575  51.130  1.00  0.00    -0.066 N 
HETATM   13  H   UNL     1       4.020  27.603  51.034  1.00  0.00     0.280 HD
HETATM   14  C   UNL     1       4.863  29.481  50.802  1.00  0.00     0.235 C 
HETATM   15  C   UNL     1       4.335  30.422  49.740  1.00  0.00     0.029 C 
HETATM   16  C   UNL     1       3.387  29.543  48.953  1.00  0.00     0.029 C 
HETATM   17  C   UNL     1       2.652  28.779  50.036  1.00  0.00     0.235 C 
ENDBRANCH  11  12
ENDBRANCH  10  11
BRANCH   1  18
HETATM   18  C   UNL     1       5.279  26.447  53.254  1.00  0.00     0.296 C 
HETATM   19  O   UNL     1       4.726  25.408  53.580  1.00  0.00    -0.259 OA
BRANCH  18  20
HETATM   20  O   UNL     1       6.107  26.576  52.180  1.00  0.00    -0.318 OA
BRANCH  20  21
HETATM   21  C   UNL     1       6.676  25.354  51.672  1.00  0.00     0.174 C 
HETATM   22  C   UNL     1       8.012  25.088  52.337  1.00  0.00     0.034 C 
ENDBRANCH  20  21
ENDBRANCH  18  20
ENDBRANCH   1  18
BRANCH   9  23
HETATM   23  C   UNL     1       3.674  31.035  54.373  1.00  0.00     0.040 A 
HETATM   24  C   UNL     1       2.623  31.314  55.254  1.00  0.00     0.030 A 
HETATM   25  C   UNL     1       1.971  32.545  55.179  1.00  0.00     0.002 A 
HETATM   26  C   UNL     1       2.365  33.486  54.230  1.00  0.00     0.000 A 
HETATM   27  C   UNL     1       3.405  33.200  53.345  1.00  0.00     0.002 A 
HETATM   28  C   UNL     1       4.062  31.971  53.408  1.00  0.00     0.030 A 
ENDBRANCH   9  23
BRANCH   8  29
HETATM   29  C   UNL     1       7.411  26.239  55.791  1.00  0.00     0.276 C 
BRANCH  29  30
HETATM   30  N   UNL     1       6.493  25.051  55.981  1.00  0.00    -0.075 N 
HETATM   31  H   UNL     1       5.897  25.052  55.134  1.00  0.00     0.279 HD
HETATM   32  C   UNL     1       7.209  23.738  56.000  1.00  0.00     0.269 C 
HETATM   33  C   UNL     1       5.580  25.218  57.156  1.00  0.00     0.269 C 
ENDBRANCH  29  30
ENDBRANCH   8  29
BRANCH   7  34
HETATM   34  O   UNL     1       8.392  28.015  57.770  1.00  0.00    -0.359 OA
HETATM   35  H   UNL     1       8.124  28.118  58.711  1.00  0.00     0.218 HD
ENDBRANCH   7  34
TORSDOF 9
ENDMDL
MODEL 6
REMARK VINA RESULT:      -6.7      3.628      7.191
REMARK  9 active torsions:
REMARK  status: ('A' for Active; 'I' for Inactive)
REMARK    1  A    between atoms: C_2  and  O_3 
REMARK    2  A    between atoms: O_3  and  C_4 
REMARK    3  A    between atoms: C_4  and  C_5 
REMARK    4  A    between atoms: C_11  and  O_12 
REMARK    5  A    between atoms: C_13  and  C_14 
REMARK    6  A    between atoms: C_14  and  N_15 
REMARK    7  A    between atoms: N_19  and  C_20 
REMARK    8  A    between atoms: C_26  and  C_27 
REMARK    9  A    between atoms: C_27  and  N_28 
ROOT
HETATM    1  C   UNL     1       5.039  28.326  55.078  1.00  0.00     0.077 A 
HETATM    2  C   UNL     1       4.730  29.747  55.062  1.00  0.00     0.020 A 
HETATM    3  C   UNL     1       4.396  30.055  53.734  1.00  0.00     0.053 A 
HETATM    4  C   UNL     1       4.109  31.369  53.316  1.00  0.00     0.053 A 
HETATM    5  C   UNL     1       4.155  32.392  54.252  1.00  0.00     0.047 A 
HETATM    6 BR   UNL     1       3.800  34.163  53.679  1.00  0.00    -0.048 Br
HETATM    7  C   UNL     1       4.467  32.119  55.579  1.00  0.00     0.092 A 
HETATM    8  C   UNL     1       4.720  30.803  56.047  1.00  0.00     0.016 A 
HETATM    9  N   UNL     1       4.501  28.897  52.971  1.00  0.00    -0.312 N 
HETATM   10  C   UNL     1       4.830  27.824  53.786  1.00  0.00     0.060 A 
ENDROOT
BRANCH  10  11
HETATM   11  C   UNL     1       4.936  26.418  53.262  1.00  0.00     0.293 C 
BRANCH  11  12
HETATM   12  N   UNL     1       6.203  25.714  53.666  1.00  0.00    -0.066 N 
HETATM   13  H   UNL     1       6.316  25.843  54.681  1.00  0.00     0.280 HD
HETATM   14  C   UNL     1       7.472  26.200  52.999  1.00  0.00     0.235 C 
HETATM   15  C   UNL     1       7.916  25.046  52.127  1.00  0.00     0.029 C 
HETATM   16  C   UNL     1       7.511  23.835  52.939  1.00  0.00     0.029 C 
HETATM   17  C   UNL     1       6.130  24.208  53.439  1.00  0.00     0.235 C 
ENDBRANCH  11  12
ENDBRANCH  10  11
BRANCH   1  18
HETATM   18  C   UNL     1       5.518  27.546  56.226  1.00  0.00     0.296 C 
HETATM   19  O   UNL     1       4.763  27.071  57.061  1.00  0.00    -0.259 OA
BRANCH  18  20
HETATM   20  O   UNL     1       6.870  27.376  56.225  1.00  0.00    -0.318 OA
BRANCH  20  21
HETATM   21  C   UNL     1       7.408  26.591  57.306  1.00  0.00     0.174 C 
HETATM   22  C   UNL     1       8.084  25.348  56.760  1.00  0.00     0.034 C 
ENDBRANCH  20  21
ENDBRANCH  18  20
ENDBRANCH   1  18
BRANCH   9  23
HETATM   23  C   UNL     1       4.287  28.835  51.568  1.00  0.00     0.040 A 
HETATM   24  C   UNL     1       2.982  28.760  51.068  1.00  0.00     0.030 A 
HETATM   25  C   UNL     1       2.776  28.709  49.689  1.00  0.00     0.002 A 
HETATM   26  C   UNL     1       3.865  28.730  48.820  1.00  0.00     0.000 A 
HETATM   27  C   UNL     1       5.165  28.791  49.322  1.00  0.00     0.002 A 
HETATM   28  C   UNL     1       5.384  28.839  50.699  1.00  0.00     0.030 A 
ENDBRANCH   9  23
BRANCH   8  29
HETATM   29  C   UNL     1       5.072  30.574  57.512  1.00  0.00     0.276 C 
BRANCH  29  30
HETATM   30  N   UNL     1       6.341  31.214  58.031  1.00  0.00    -0.075 N 
HETATM   31  H   UNL     1       6.605  31.892  57.294  1.00  0.00     0.279 HD
HETATM   32  C   UNL     1       6.145  32.001  59.287  1.00  0.00     0.269 C 
HETATM   33  C   UNL     1       7.469  30.234  58.144  1.00  0.00     0.269 C 
ENDBRANCH  29  30
ENDBRANCH   8  29
BRANCH   7  34
HETATM   34  O   UNL     1       4.546  33.161  56.481  1.00  0.00    -0.359 OA
HETATM   35  H   UNL     1       5.501  33.285  56.688  1.00  0.00     0.218 HD
ENDBRANCH   7  34
TORSDOF 9
ENDMDL
MODEL 7
REMARK VINA RESULT:      -6.5      1.700      3.054
REMARK  9 active torsions:
REMARK  status: ('A' for Active; 'I' for Inactive)
REMARK    1  A    between atoms: C_2  and  O_3 
REMARK    2  A    between atoms: O_3  and  C_4 
REMARK    3  A    between atoms: C_4  and  C_5 
REMARK    4  A    between atoms: C_11  and  O_12 
REMARK    5  A    between atoms: C_13  and  C_14 
REMARK    6  A    between atoms: C_14  and  N_15 
REMARK    7  A    between atoms: N_19  and  C_20 
REMARK    8  A    between atoms: C_26  and  C_27 
REMARK    9  A    between atoms: C_27  and  N_28 
ROOT
HETATM    1  C   UNL     1       4.327  29.364  53.086  1.00  0.00     0.077 A 
HETATM    2  C   UNL     1       3.996  28.908  51.745  1.00  0.00     0.020 A 
HETATM    3  C   UNL     1       4.619  27.659  51.597  1.00  0.00     0.053 A 
HETATM    4  C   UNL     1       4.583  26.940  50.387  1.00  0.00     0.053 A 
HETATM    5  C   UNL     1       3.905  27.484  49.307  1.00  0.00     0.047 A 
HETATM    6 BR   UNL     1       3.886  26.529  47.671  1.00  0.00    -0.048 Br
HETATM    7  C   UNL     1       3.261  28.712  49.425  1.00  0.00     0.092 A 
HETATM    8  C   UNL     1       3.239  29.446  50.639  1.00  0.00     0.016 A 
HETATM    9  N   UNL     1       5.304  27.363  52.771  1.00  0.00    -0.312 N 
HETATM   10  C   UNL     1       5.083  28.362  53.709  1.00  0.00     0.060 A 
ENDROOT
BRANCH  10  11
HETATM   11  C   UNL     1       5.628  28.285  55.109  1.00  0.00     0.293 C 
BRANCH  11  12
HETATM   12  N   UNL     1       6.810  29.185  55.350  1.00  0.00    -0.066 N 
HETATM   13  H   UNL     1       6.756  29.953  54.668  1.00  0.00     0.280 HD
HETATM   14  C   UNL     1       8.172  28.540  55.206  1.00  0.00     0.235 C 
HETATM   15  C   UNL     1       8.751  28.542  56.604  1.00  0.00     0.029 C 
HETATM   16  C   UNL     1       8.216  29.831  57.188  1.00  0.00     0.029 C 
HETATM   17  C   UNL     1       6.772  29.840  56.727  1.00  0.00     0.235 C 
ENDBRANCH  11  12
ENDBRANCH  10  11
BRANCH   1  18
HETATM   18  C   UNL     1       3.969  30.656  53.686  1.00  0.00     0.296 C 
HETATM   19  O   UNL     1       4.557  31.692  53.415  1.00  0.00    -0.259 OA
BRANCH  18  20
HETATM   20  O   UNL     1       2.898  30.575  54.523  1.00  0.00    -0.318 OA
BRANCH  20  21
HETATM   21  C   UNL     1       2.965  31.380  55.715  1.00  0.00     0.174 C 
HETATM   22  C   UNL     1       3.144  30.494  56.932  1.00  0.00     0.034 C 
ENDBRANCH  20  21
ENDBRANCH  18  20
ENDBRANCH   1  18
BRANCH   9  23
HETATM   23  C   UNL     1       6.096  26.202  52.970  1.00  0.00     0.040 A 
HETATM   24  C   UNL     1       7.365  26.120  52.386  1.00  0.00     0.030 A 
HETATM   25  C   UNL     1       8.145  24.982  52.592  1.00  0.00     0.002 A 
HETATM   26  C   UNL     1       7.659  23.935  53.372  1.00  0.00     0.000 A 
HETATM   27  C   UNL     1       6.387  24.014  53.942  1.00  0.00     0.002 A 
HETATM   28  C   UNL     1       5.597  25.145  53.740  1.00  0.00     0.030 A 
ENDBRANCH   9  23
BRANCH   8  29
HETATM   29  C   UNL     1       2.531  30.794  50.697  1.00  0.00     0.276 C 
BRANCH  29  30
HETATM   30  N   UNL     1       3.394  32.036  50.667  1.00  0.00    -0.075 N 
HETATM   31  H   UNL     1       4.033  31.922  51.474  1.00  0.00     0.279 HD
HETATM   32  C   UNL     1       4.256  32.138  49.450  1.00  0.00     0.269 C 
HETATM   33  C   UNL     1       2.605  33.285  50.911  1.00  0.00     0.269 C 
ENDBRANCH  29  30
ENDBRANCH   8  29
BRANCH   7  34
HETATM   34  O   UNL     1       2.629  29.250  48.323  1.00  0.00    -0.359 OA
HETATM   35  H   UNL     1       2.074  28.535  47.936  1.00  0.00     0.218 HD
ENDBRANCH   7  34
TORSDOF 9
ENDMDL
MODEL 8
REMARK VINA RESULT:      -6.5      7.487     11.048
REMARK  9 active torsions:
REMARK  status: ('A' for Active; 'I' for Inactive)
REMARK    1  A    between atoms: C_2  and  O_3 
REMARK    2  A    between atoms: O_3  and  C_4 
REMARK    3  A    between atoms: C_4  and  C_5 
REMARK    4  A    between atoms: C_11  and  O_12 
REMARK    5  A    between atoms: C_13  and  C_14 
REMARK    6  A    between atoms: C_14  and  N_15 
REMARK    7  A    between atoms: N_19  and  C_20 
REMARK    8  A    between atoms: C_26  and  C_27 
REMARK    9  A    between atoms: C_27  and  N_28 
ROOT
HETATM    1  C   UNL     1       4.515  32.808  59.382  1.00  0.00     0.077 A 
HETATM    2  C   UNL     1       4.273  33.388  60.693  1.00  0.00     0.020 A 
HETATM    3  C   UNL     1       5.425  33.125  61.451  1.00  0.00     0.053 A 
HETATM    4  C   UNL     1       5.526  33.476  62.811  1.00  0.00     0.053 A 
HETATM    5  C   UNL     1       4.450  34.106  63.419  1.00  0.00     0.047 A 
HETATM    6 BR   UNL     1       4.578  34.547  65.258  1.00  0.00    -0.048 Br
HETATM    7  C   UNL     1       3.301  34.398  62.693  1.00  0.00     0.092 A 
HETATM    8  C   UNL     1       3.177  34.098  61.311  1.00  0.00     0.016 A 
HETATM    9  N   UNL     1       6.322  32.415  60.661  1.00  0.00    -0.312 N 
HETATM   10  C   UNL     1       5.809  32.269  59.381  1.00  0.00     0.060 A 
ENDROOT
BRANCH  10  11
HETATM   11  C   UNL     1       6.586  31.613  58.273  1.00  0.00     0.293 C 
BRANCH  11  12
HETATM   12  N   UNL     1       6.552  30.109  58.315  1.00  0.00    -0.066 N 
HETATM   13  H   UNL     1       5.972  29.837  59.121  1.00  0.00     0.280 HD
HETATM   14  C   UNL     1       7.892  29.420  58.463  1.00  0.00     0.235 C 
HETATM   15  C   UNL     1       8.102  28.697  57.150  1.00  0.00     0.029 C 
HETATM   16  C   UNL     1       6.699  28.275  56.771  1.00  0.00     0.029 C 
HETATM   17  C   UNL     1       5.875  29.506  57.089  1.00  0.00     0.235 C 
ENDBRANCH  11  12
ENDBRANCH  10  11
BRANCH   1  18
HETATM   18  C   UNL     1       3.571  32.755  58.258  1.00  0.00     0.296 C 
HETATM   19  O   UNL     1       2.998  31.728  57.928  1.00  0.00    -0.259 OA
BRANCH  18  20
HETATM   20  O   UNL     1       3.376  33.969  57.672  1.00  0.00    -0.318 OA
BRANCH  20  21
HETATM   21  C   UNL     1       4.560  34.640  57.200  1.00  0.00     0.174 C 
HETATM   22  C   UNL     1       4.877  34.200  55.785  1.00  0.00     0.034 C 
ENDBRANCH  20  21
ENDBRANCH  18  20
ENDBRANCH   1  18
BRANCH   9  23
HETATM   23  C   UNL     1       7.579  31.929  61.109  1.00  0.00     0.040 A 
HETATM   24  C   UNL     1       8.758  32.453  60.568  1.00  0.00     0.030 A 
HETATM   25  C   UNL     1       9.991  31.980  61.017  1.00  0.00     0.002 A 
HETATM   26  C   UNL     1      10.044  30.990  61.996  1.00  0.00     0.000 A 
HETATM   27  C   UNL     1       8.866  30.460  62.525  1.00  0.00     0.002 A 
HETATM   28  C   UNL     1       7.627  30.923  62.081  1.00  0.00     0.030 A 
ENDBRANCH   9  23
BRANCH   8  29
HETATM   29  C   UNL     1       1.884  34.428  60.576  1.00  0.00     0.276 C 
BRANCH  29  30
HETATM   30  N   UNL     1       1.718  35.840  60.058  1.00  0.00    -0.075 N 
HETATM   31  H   UNL     1       1.147  36.312  60.783  1.00  0.00     0.279 HD
HETATM   32  C   UNL     1       3.003  36.599  59.965  1.00  0.00     0.269 C 
HETATM   33  C   UNL     1       0.933  35.892  58.784  1.00  0.00     0.269 C 
ENDBRANCH  29  30
ENDBRANCH   8  29
BRANCH   7  34
HETATM   34  O   UNL     1       2.230  34.988  63.333  1.00  0.00    -0.359 OA
HETATM   35  H   UNL     1       1.828  34.299  63.909  1.00  0.00     0.218 HD
ENDBRANCH   7  34
TORSDOF 9
ENDMDL
MODEL 9
REMARK VINA RESULT:      -6.4      3.984      7.069
REMARK  9 active torsions:
REMARK  status: ('A' for Active; 'I' for Inactive)
REMARK    1  A    between atoms: C_2  and  O_3 
REMARK    2  A    between atoms: O_3  and  C_4 
REMARK    3  A    between atoms: C_4  and  C_5 
REMARK    4  A    between atoms: C_11  and  O_12 
REMARK    5  A    between atoms: C_13  and  C_14 
REMARK    6  A    between atoms: C_14  and  N_15 
REMARK    7  A    between atoms: N_19  and  C_20 
REMARK    8  A    between atoms: C_26  and  C_27 
REMARK    9  A    between atoms: C_27  and  N_28 
ROOT
HETATM    1  C   UNL     1       4.065  30.530  55.194  1.00  0.00     0.077 A 
HETATM    2  C   UNL     1       5.133  30.739  56.159  1.00  0.00     0.020 A 
HETATM    3  C   UNL     1       5.992  29.637  56.030  1.00  0.00     0.053 A 
HETATM    4  C   UNL     1       7.111  29.454  56.866  1.00  0.00     0.053 A 
HETATM    5  C   UNL     1       7.372  30.399  57.847  1.00  0.00     0.047 A 
HETATM    6 BR   UNL     1       8.860  30.133  58.990  1.00  0.00    -0.048 Br
HETATM    7  C   UNL     1       6.551  31.513  57.990  1.00  0.00     0.092 A 
HETATM    8  C   UNL     1       5.440  31.754  57.141  1.00  0.00     0.016 A 
HETATM    9  N   UNL     1       5.482  28.790  55.052  1.00  0.00    -0.312 N 
HETATM   10  C   UNL     1       4.345  29.351  54.490  1.00  0.00     0.060 A 
ENDROOT
BRANCH  10  11
HETATM   11  C   UNL     1       3.612  28.707  53.345  1.00  0.00     0.293 C 
BRANCH  11  12
HETATM   12  N   UNL     1       3.619  29.525  52.082  1.00  0.00    -0.066 N 
HETATM   13  H   UNL     1       3.265  30.461  52.321  1.00  0.00     0.280 HD
HETATM   14  C   UNL     1       2.774  28.993  50.944  1.00  0.00     0.235 C 
HETATM   15  C   UNL     1       3.770  28.591  49.879  1.00  0.00     0.029 C 
HETATM   16  C   UNL     1       4.861  29.628  50.028  1.00  0.00     0.029 C 
HETATM   17  C   UNL     1       5.025  29.735  51.531  1.00  0.00     0.235 C 
ENDBRANCH  11  12
ENDBRANCH  10  11
BRANCH   1  18
HETATM   18  C   UNL     1       2.880  31.375  55.000  1.00  0.00     0.296 C 
HETATM   19  O   UNL     1       2.042  31.542  55.873  1.00  0.00    -0.259 OA
BRANCH  18  20
HETATM   20  O   UNL     1       2.851  31.978  53.779  1.00  0.00    -0.318 OA
BRANCH  20  21
HETATM   21  C   UNL     1       3.887  32.946  53.528  1.00  0.00     0.174 C 
HETATM   22  C   UNL     1       3.472  34.301  54.068  1.00  0.00     0.034 C 
ENDBRANCH  20  21
ENDBRANCH  18  20
ENDBRANCH   1  18
BRANCH   9  23
HETATM   23  C   UNL     1       6.059  27.546  54.685  1.00  0.00     0.040 A 
HETATM   24  C   UNL     1       7.058  27.506  53.705  1.00  0.00     0.030 A 
HETATM   25  C   UNL     1       7.629  26.283  53.354  1.00  0.00     0.002 A 
HETATM   26  C   UNL     1       7.203  25.110  53.974  1.00  0.00     0.000 A 
HETATM   27  C   UNL     1       6.197  25.151  54.942  1.00  0.00     0.002 A 
HETATM   28  C   UNL     1       5.616  26.368  55.298  1.00  0.00     0.030 A 
ENDBRANCH   9  23
BRANCH   8  29
HETATM   29  C   UNL     1       4.570  32.985  57.362  1.00  0.00     0.276 C 
BRANCH  29  30
HETATM   30  N   UNL     1       3.528  32.913  58.457  1.00  0.00    -0.075 N 
HETATM   31  H   UNL     1       2.628  33.041  57.961  1.00  0.00     0.279 HD
HETATM   32  C   UNL     1       3.460  31.581  59.132  1.00  0.00     0.269 C 
HETATM   33  C   UNL     1       3.651  34.041  59.435  1.00  0.00     0.269 C 
ENDBRANCH  29  30
ENDBRANCH   8  29
BRANCH   7  34
HETATM   34  O   UNL     1       6.811  32.416  59.000  1.00  0.00    -0.359 OA
HETATM   35  H   UNL     1       6.155  32.242  59.713  1.00  0.00     0.218 HD
ENDBRANCH   7  34
TORSDOF 9
ENDMDL
MODEL 10
REMARK VINA RESULT:      -6.4      2.724      6.280
REMARK  9 active torsions:
REMARK  status: ('A' for Active; 'I' for Inactive)
REMARK    1  A    between atoms: C_2  and  O_3 
REMARK    2  A    between atoms: O_3  and  C_4 
REMARK    3  A    between atoms: C_4  and  C_5 
REMARK    4  A    between atoms: C_11  and  O_12 
REMARK    5  A    between atoms: C_13  and  C_14 
REMARK    6  A    between atoms: C_14  and  N_15 
REMARK    7  A    between atoms: N_19  and  C_20 
REMARK    8  A    between atoms: C_26  and  C_27 
REMARK    9  A    between atoms: C_27  and  N_28 
ROOT
HETATM    1  C   UNL     1       5.124  29.054  53.491  1.00  0.00     0.077 A 
HETATM    2  C   UNL     1       5.878  27.822  53.658  1.00  0.00     0.020 A 
HETATM    3  C   UNL     1       5.965  27.245  52.382  1.00  0.00     0.053 A 
HETATM    4  C   UNL     1       6.566  25.991  52.163  1.00  0.00     0.053 A 
HETATM    5  C   UNL     1       7.093  25.305  53.247  1.00  0.00     0.047 A 
HETATM    6 BR   UNL     1       7.873  23.603  52.953  1.00  0.00    -0.048 Br
HETATM    7  C   UNL     1       7.040  25.856  54.523  1.00  0.00     0.092 A 
HETATM    8  C   UNL     1       6.480  27.135  54.777  1.00  0.00     0.016 A 
HETATM    9  N   UNL     1       5.296  28.065  51.479  1.00  0.00    -0.312 N 
HETATM   10  C   UNL     1       4.833  29.201  52.127  1.00  0.00     0.060 A 
ENDROOT
BRANCH  10  11
HETATM   11  C   UNL     1       4.138  30.317  51.397  1.00  0.00     0.293 C 
BRANCH  11  12
HETATM   12  N   UNL     1       2.637  30.260  51.489  1.00  0.00    -0.066 N 
HETATM   13  H   UNL     1       2.394  30.140  52.482  1.00  0.00     0.280 HD
HETATM   14  C   UNL     1       1.969  29.142  50.716  1.00  0.00     0.235 C 
HETATM   15  C   UNL     1       1.194  29.840  49.620  1.00  0.00     0.029 C 
HETATM   16  C   UNL     1       0.741  31.119  50.290  1.00  0.00     0.029 C 
HETATM   17  C   UNL     1       1.976  31.562  51.048  1.00  0.00     0.235 C 
ENDBRANCH  11  12
ENDBRANCH  10  11
BRANCH   1  18
HETATM   18  C   UNL     1       4.703  29.976  54.554  1.00  0.00     0.296 C 
HETATM   19  O   UNL     1       5.501  30.569  55.264  1.00  0.00    -0.259 OA
BRANCH  18  20
HETATM   20  O   UNL     1       3.351  30.128  54.620  1.00  0.00    -0.318 OA
BRANCH  20  21
HETATM   21  C   UNL     1       2.875  31.160  55.505  1.00  0.00     0.174 C 
HETATM   22  C   UNL     1       2.294  32.306  54.702  1.00  0.00     0.034 C 
ENDBRANCH  20  21
ENDBRANCH  18  20
ENDBRANCH   1  18
BRANCH   9  23
HETATM   23  C   UNL     1       5.130  27.775  50.098  1.00  0.00     0.040 A 
HETATM   24  C   UNL     1       5.667  28.641  49.139  1.00  0.00     0.030 A 
HETATM   25  C   UNL     1       5.511  28.349  47.784  1.00  0.00     0.002 A 
HETATM   26  C   UNL     1       4.821  27.202  47.393  1.00  0.00     0.000 A 
HETATM   27  C   UNL     1       4.275  26.348  48.352  1.00  0.00     0.002 A 
HETATM   28  C   UNL     1       4.422  26.633  49.710  1.00  0.00     0.030 A 
ENDBRANCH   9  23
BRANCH   8  29
HETATM   29  C   UNL     1       6.437  27.674  56.202  1.00  0.00     0.276 C 
BRANCH  29  30
HETATM   30  N   UNL     1       7.734  28.181  56.794  1.00  0.00    -0.075 N 
HETATM   31  H   UNL     1       8.270  27.320  57.006  1.00  0.00     0.279 HD
HETATM   32  C   UNL     1       8.561  28.975  55.835  1.00  0.00     0.269 C 
HETATM   33  C   UNL     1       7.527  28.896  58.094  1.00  0.00     0.269 C 
ENDBRANCH  29  30
ENDBRANCH   8  29
BRANCH   7  34
HETATM   34  O   UNL     1       7.535  25.135  55.590  1.00  0.00    -0.359 OA
HETATM   35  H   UNL     1       8.337  24.665  55.268  1.00  0.00     0.218 HD
ENDBRANCH   7  34
TORSDOF 9
ENDMDL
