MODEL 1
REMARK VINA RESULT:      -8.4      0.000      0.000
REMARK  3 active torsions:
REMARK  status: ('A' for Active; 'I' for Inactive)
REMARK    1  A    between atoms: C_9  and  C_10 
REMARK    2  A    between atoms: C_16  and  C_17 
REMARK       I    between atoms: C_17  and  N_18 
REMARK    3  A    between atoms: N_18  and  C_19 
ROOT
HETATM    1  C   UNL     1       8.757  27.122  57.074  1.00  0.00     0.070 C 
HETATM    2  C   UNL     1       7.499  27.469  56.318  1.00  0.00     0.037 C 
HETATM    3  N   UNL     1       7.170  28.821  56.286  1.00  0.00    -0.191 N 
HETATM    4  C   UNL     1       5.971  29.271  55.861  1.00  0.00     0.735 A 
HETATM    5  N   UNL     1       5.084  28.392  55.304  1.00  0.00    -0.092 N 
HETATM    6  N   UNL     1       3.930  29.015  55.021  1.00  0.00     0.012 NA
HETATM    7  N   UNL     1       4.143  30.283  55.363  1.00  0.00     0.033 NA
HETATM    8  N   UNL     1       5.410  30.456  55.889  1.00  0.00     0.030 NA
HETATM    9  C   UNL     1       5.343  26.969  55.103  1.00  0.00     0.198 C 
HETATM   10  C   UNL     1       6.665  26.562  55.749  1.00  0.00     0.062 C 
HETATM   11  H   UNL     1       7.772  29.464  56.797  1.00  0.00     0.184 HD
ENDROOT
BRANCH  10  12
HETATM   12  C   UNL     1       6.885  25.094  55.798  1.00  0.00     0.256 C 
HETATM   13  N   UNL     1       7.662  24.619  54.766  1.00  0.00    -0.322 N 
HETATM   14  H   UNL     1       7.973  25.285  54.070  1.00  0.00     0.169 HD
HETATM   15  O   UNL     1       6.346  24.443  56.683  1.00  0.00    -0.267 OA
BRANCH  13  16
HETATM   16  C   UNL     1       8.078  23.283  54.578  1.00  0.00     0.052 A 
HETATM   17  C   UNL     1       8.894  22.565  55.447  1.00  0.00     0.145 A 
HETATM   18  N   UNL     1       9.296  21.285  55.233  1.00  0.00    -0.271 NA
HETATM   19  C   UNL     1       8.869  20.692  54.101  1.00  0.00     0.116 A 
HETATM   20  C   UNL     1       8.056  21.316  53.172  1.00  0.00     0.021 A 
HETATM   21  C   UNL     1       7.654  22.628  53.418  1.00  0.00     0.032 A 
ENDBRANCH  13  16
ENDBRANCH  10  12
BRANCH   9  22
HETATM   22  C   UNL     1       5.307  26.614  53.617  1.00  0.00    -0.029 A 
HETATM   23  C   UNL     1       5.822  27.470  52.629  1.00  0.00     0.009 A 
HETATM   24  C   UNL     1       5.785  27.106  51.282  1.00  0.00     0.001 A 
HETATM   25  C   UNL     1       5.249  25.877  50.904  1.00  0.00     0.000 A 
HETATM   26  C   UNL     1       4.752  25.009  51.873  1.00  0.00     0.001 A 
HETATM   27  C   UNL     1       4.782  25.371  53.220  1.00  0.00     0.009 A 
ENDBRANCH   9  22
TORSDOF 3
ENDMDL
MODEL 2
REMARK VINA RESULT:      -8.3      2.902      5.658
REMARK  3 active torsions:
REMARK  status: ('A' for Active; 'I' for Inactive)
REMARK    1  A    between atoms: C_9  and  C_10 
REMARK    2  A    between atoms: C_16  and  C_17 
REMARK       I    between atoms: C_17  and  N_18 
REMARK    3  A    between atoms: N_18  and  C_19 
ROOT
HETATM    1  C   UNL     1       3.407  29.808  53.967  1.00  0.00     0.070 C 
HETATM    2  C   UNL     1       4.667  29.081  54.368  1.00  0.00     0.037 C 
HETATM    3  N   UNL     1       4.930  29.043  55.734  1.00  0.00    -0.191 N 
HETATM    4  C   UNL     1       6.117  28.645  56.239  1.00  0.00     0.735 A 
HETATM    5  N   UNL     1       7.060  28.121  55.400  1.00  0.00    -0.092 N 
HETATM    6  N   UNL     1       8.189  27.862  56.077  1.00  0.00     0.012 NA
HETATM    7  N   UNL     1       7.905  28.184  57.335  1.00  0.00     0.033 NA
HETATM    8  N   UNL     1       6.618  28.675  57.450  1.00  0.00     0.030 NA
HETATM    9  C   UNL     1       6.877  27.928  53.964  1.00  0.00     0.198 C 
HETATM   10  C   UNL     1       5.560  28.543  53.498  1.00  0.00     0.062 C 
HETATM   11  H   UNL     1       4.284  29.531  56.351  1.00  0.00     0.184 HD
ENDROOT
BRANCH  10  12
HETATM   12  C   UNL     1       5.411  28.603  52.021  1.00  0.00     0.256 C 
HETATM   13  N   UNL     1       4.516  27.684  51.521  1.00  0.00    -0.322 N 
HETATM   14  H   UNL     1       4.082  27.048  52.179  1.00  0.00     0.169 HD
HETATM   15  O   UNL     1       6.096  29.393  51.388  1.00  0.00    -0.267 OA
BRANCH  13  16
HETATM   16  C   UNL     1       4.134  27.538  50.170  1.00  0.00     0.052 A 
HETATM   17  C   UNL     1       3.294  28.402  49.474  1.00  0.00     0.145 A 
HETATM   18  N   UNL     1       2.927  28.228  48.178  1.00  0.00    -0.271 NA
HETATM   19  C   UNL     1       3.415  27.143  47.544  1.00  0.00     0.116 A 
HETATM   20  C   UNL     1       4.257  26.223  48.144  1.00  0.00     0.021 A 
HETATM   21  C   UNL     1       4.622  26.428  49.474  1.00  0.00     0.032 A 
ENDBRANCH  13  16
ENDBRANCH  10  12
BRANCH   9  22
HETATM   22  C   UNL     1       6.970  26.448  53.597  1.00  0.00    -0.029 A 
HETATM   23  C   UNL     1       7.870  25.972  52.627  1.00  0.00     0.009 A 
HETATM   24  C   UNL     1       7.938  24.611  52.328  1.00  0.00     0.001 A 
HETATM   25  C   UNL     1       7.124  23.704  53.003  1.00  0.00     0.000 A 
HETATM   26  C   UNL     1       6.241  24.157  53.981  1.00  0.00     0.001 A 
HETATM   27  C   UNL     1       6.165  25.518  54.279  1.00  0.00     0.009 A 
ENDBRANCH   9  22
TORSDOF 3
ENDMDL
MODEL 3
REMARK VINA RESULT:      -8.2      5.868      9.054
REMARK  3 active torsions:
REMARK  status: ('A' for Active; 'I' for Inactive)
REMARK    1  A    between atoms: C_9  and  C_10 
REMARK    2  A    between atoms: C_16  and  C_17 
REMARK       I    between atoms: C_17  and  N_18 
REMARK    3  A    between atoms: N_18  and  C_19 
ROOT
HETATM    1  C   UNL     1       2.956  31.169  59.516  1.00  0.00     0.070 C 
HETATM    2  C   UNL     1       3.942  31.904  60.390  1.00  0.00     0.037 C 
HETATM    3  N   UNL     1       3.453  32.325  61.623  1.00  0.00    -0.191 N 
HETATM    4  C   UNL     1       4.120  33.190  62.417  1.00  0.00     0.735 A 
HETATM    5  N   UNL     1       5.390  33.566  62.079  1.00  0.00    -0.092 N 
HETATM    6  N   UNL     1       5.848  34.483  62.945  1.00  0.00     0.012 NA
HETATM    7  N   UNL     1       4.869  34.619  63.835  1.00  0.00     0.033 NA
HETATM    8  N   UNL     1       3.786  33.820  63.517  1.00  0.00     0.030 NA
HETATM    9  C   UNL     1       6.116  33.078  60.909  1.00  0.00     0.198 C 
HETATM   10  C   UNL     1       5.208  32.226  60.026  1.00  0.00     0.062 C 
HETATM   11  H   UNL     1       2.473  32.142  61.829  1.00  0.00     0.184 HD
ENDROOT
BRANCH  10  12
HETATM   12  C   UNL     1       5.796  31.893  58.702  1.00  0.00     0.256 C 
HETATM   13  N   UNL     1       6.335  30.627  58.642  1.00  0.00    -0.322 N 
HETATM   14  H   UNL     1       6.316  30.071  59.487  1.00  0.00     0.169 HD
HETATM   15  O   UNL     1       5.797  32.744  57.824  1.00  0.00    -0.267 OA
BRANCH  13  16
HETATM   16  C   UNL     1       6.916  30.019  57.509  1.00  0.00     0.052 A 
HETATM   17  C   UNL     1       6.214  29.525  56.413  1.00  0.00     0.145 A 
HETATM   18  N   UNL     1       6.797  28.926  55.342  1.00  0.00    -0.271 NA
HETATM   19  C   UNL     1       8.140  28.810  55.362  1.00  0.00     0.116 A 
HETATM   20  C   UNL     1       8.930  29.266  56.402  1.00  0.00     0.021 A 
HETATM   21  C   UNL     1       8.306  29.882  57.487  1.00  0.00     0.032 A 
ENDBRANCH  13  16
ENDBRANCH  10  12
BRANCH   9  22
HETATM   22  C   UNL     1       7.374  32.319  61.326  1.00  0.00    -0.029 A 
HETATM   23  C   UNL     1       7.351  31.308  62.302  1.00  0.00     0.009 A 
HETATM   24  C   UNL     1       8.518  30.626  62.647  1.00  0.00     0.001 A 
HETATM   25  C   UNL     1       9.721  30.930  62.012  1.00  0.00     0.000 A 
HETATM   26  C   UNL     1       9.757  31.915  61.029  1.00  0.00     0.001 A 
HETATM   27  C   UNL     1       8.593  32.604  60.685  1.00  0.00     0.009 A 
ENDBRANCH   9  22
TORSDOF 3
ENDMDL
MODEL 4
REMARK VINA RESULT:      -8.0      3.532      8.211
REMARK  3 active torsions:
REMARK  status: ('A' for Active; 'I' for Inactive)
REMARK    1  A    between atoms: C_9  and  C_10 
REMARK    2  A    between atoms: C_16  and  C_17 
REMARK       I    between atoms: C_17  and  N_18 
REMARK    3  A    between atoms: N_18  and  C_19 
ROOT
HETATM    1  C   UNL     1       4.416  28.484  54.547  1.00  0.00     0.070 C 
HETATM    2  C   UNL     1       5.516  28.059  55.488  1.00  0.00     0.037 C 
HETATM    3  N   UNL     1       5.978  26.757  55.324  1.00  0.00    -0.191 N 
HETATM    4  C   UNL     1       6.781  26.148  56.222  1.00  0.00     0.735 A 
HETATM    5  N   UNL     1       7.285  26.870  57.268  1.00  0.00    -0.092 N 
HETATM    6  N   UNL     1       7.990  26.072  58.085  1.00  0.00     0.012 NA
HETATM    7  N   UNL     1       7.950  24.878  57.500  1.00  0.00     0.033 NA
HETATM    8  N   UNL     1       7.200  24.911  56.340  1.00  0.00     0.030 NA
HETATM    9  C   UNL     1       7.040  28.293  57.488  1.00  0.00     0.198 C 
HETATM   10  C   UNL     1       6.012  28.825  56.493  1.00  0.00     0.062 C 
HETATM   11  H   UNL     1       5.525  26.182  54.617  1.00  0.00     0.184 HD
ENDROOT
BRANCH  10  12
HETATM   12  C   UNL     1       5.529  30.196  56.801  1.00  0.00     0.256 C 
HETATM   13  N   UNL     1       5.121  30.356  58.106  1.00  0.00    -0.322 N 
HETATM   14  H   UNL     1       5.153  29.543  58.708  1.00  0.00     0.169 HD
HETATM   15  O   UNL     1       5.488  31.025  55.902  1.00  0.00    -0.267 OA
BRANCH  13  16
HETATM   16  C   UNL     1       4.663  31.552  58.698  1.00  0.00     0.052 A 
HETATM   17  C   UNL     1       3.407  32.119  58.498  1.00  0.00     0.145 A 
HETATM   18  N   UNL     1       2.996  33.282  59.067  1.00  0.00    -0.271 NA
HETATM   19  C   UNL     1       3.876  33.914  59.869  1.00  0.00     0.116 A 
HETATM   20  C   UNL     1       5.147  33.437  60.134  1.00  0.00     0.021 A 
HETATM   21  C   UNL     1       5.541  32.238  59.542  1.00  0.00     0.032 A 
ENDBRANCH  13  16
ENDBRANCH  10  12
BRANCH   9  22
HETATM   22  C   UNL     1       8.344  29.086  57.433  1.00  0.00    -0.029 A 
HETATM   23  C   UNL     1       9.191  29.059  56.311  1.00  0.00     0.009 A 
HETATM   24  C   UNL     1      10.368  29.808  56.290  1.00  0.00     0.001 A 
HETATM   25  C   UNL     1      10.709  30.607  57.379  1.00  0.00     0.000 A 
HETATM   26  C   UNL     1       9.871  30.660  58.490  1.00  0.00     0.001 A 
HETATM   27  C   UNL     1       8.696  29.908  58.518  1.00  0.00     0.009 A 
ENDBRANCH   9  22
TORSDOF 3
ENDMDL
MODEL 5
REMARK VINA RESULT:      -8.0      3.544      5.216
REMARK  3 active torsions:
REMARK  status: ('A' for Active; 'I' for Inactive)
REMARK    1  A    between atoms: C_9  and  C_10 
REMARK    2  A    between atoms: C_16  and  C_17 
REMARK       I    between atoms: C_17  and  N_18 
REMARK    3  A    between atoms: N_18  and  C_19 
ROOT
HETATM    1  C   UNL     1      10.989  29.708  56.642  1.00  0.00     0.070 C 
HETATM    2  C   UNL     1       9.805  30.136  57.473  1.00  0.00     0.037 C 
HETATM    3  N   UNL     1      10.023  31.223  58.314  1.00  0.00    -0.191 N 
HETATM    4  C   UNL     1       9.155  31.581  59.284  1.00  0.00     0.735 A 
HETATM    5  N   UNL     1       7.944  30.951  59.367  1.00  0.00    -0.092 N 
HETATM    6  N   UNL     1       7.264  31.392  60.436  1.00  0.00     0.012 NA
HETATM    7  N   UNL     1       8.049  32.325  60.969  1.00  0.00     0.033 NA
HETATM    8  N   UNL     1       9.230  32.452  60.262  1.00  0.00     0.030 NA
HETATM    9  C   UNL     1       7.488  29.909  58.451  1.00  0.00     0.198 C 
HETATM   10  C   UNL     1       8.606  29.499  57.496  1.00  0.00     0.062 C 
HETATM   11  H   UNL     1      10.958  31.622  58.335  1.00  0.00     0.184 HD
ENDROOT
BRANCH  10  12
HETATM   12  C   UNL     1       8.302  28.284  56.697  1.00  0.00     0.256 C 
HETATM   13  N   UNL     1       8.292  27.125  57.441  1.00  0.00    -0.322 N 
HETATM   14  H   UNL     1       8.521  27.199  58.424  1.00  0.00     0.169 HD
HETATM   15  O   UNL     1       8.138  28.394  55.491  1.00  0.00    -0.267 OA
BRANCH  13  16
HETATM   16  C   UNL     1       7.989  25.831  56.968  1.00  0.00     0.052 A 
HETATM   17  C   UNL     1       6.894  25.501  56.173  1.00  0.00     0.145 A 
HETATM   18  N   UNL     1       6.615  24.242  55.746  1.00  0.00    -0.271 NA
HETATM   19  C   UNL     1       7.460  23.264  56.129  1.00  0.00     0.116 A 
HETATM   20  C   UNL     1       8.575  23.485  56.917  1.00  0.00     0.021 A 
HETATM   21  C   UNL     1       8.842  24.788  57.338  1.00  0.00     0.032 A 
ENDBRANCH  13  16
ENDBRANCH  10  12
BRANCH   9  22
HETATM   22  C   UNL     1       6.236  30.356  57.697  1.00  0.00    -0.029 A 
HETATM   23  C   UNL     1       6.049  31.684  57.276  1.00  0.00     0.009 A 
HETATM   24  C   UNL     1       4.899  32.053  56.577  1.00  0.00     0.001 A 
HETATM   25  C   UNL     1       3.929  31.100  56.273  1.00  0.00     0.000 A 
HETATM   26  C   UNL     1       4.109  29.776  56.666  1.00  0.00     0.001 A 
HETATM   27  C   UNL     1       5.254  29.404  57.370  1.00  0.00     0.009 A 
ENDBRANCH   9  22
TORSDOF 3
ENDMDL
MODEL 6
REMARK VINA RESULT:      -7.9      2.758      5.744
REMARK  3 active torsions:
REMARK  status: ('A' for Active; 'I' for Inactive)
REMARK    1  A    between atoms: C_9  and  C_10 
REMARK    2  A    between atoms: C_16  and  C_17 
REMARK       I    between atoms: C_17  and  N_18 
REMARK    3  A    between atoms: N_18  and  C_19 
ROOT
HETATM    1  C   UNL     1       3.607  29.574  55.992  1.00  0.00     0.070 C 
HETATM    2  C   UNL     1       4.999  28.991  55.997  1.00  0.00     0.037 C 
HETATM    3  N   UNL     1       5.679  29.070  57.209  1.00  0.00    -0.191 N 
HETATM    4  C   UNL     1       6.999  28.814  57.323  1.00  0.00     0.735 A 
HETATM    5  N   UNL     1       7.682  28.320  56.247  1.00  0.00    -0.092 N 
HETATM    6  N   UNL     1       8.987  28.208  56.537  1.00  0.00     0.012 NA
HETATM    7  N   UNL     1       9.080  28.590  57.808  1.00  0.00     0.033 NA
HETATM    8  N   UNL     1       7.849  28.971  58.310  1.00  0.00     0.030 NA
HETATM    9  C   UNL     1       7.079  28.013  54.952  1.00  0.00     0.198 C 
HETATM   10  C   UNL     1       5.625  28.477  54.909  1.00  0.00     0.062 C 
HETATM   11  H   UNL     1       5.211  29.540  57.981  1.00  0.00     0.184 HD
ENDROOT
BRANCH  10  12
HETATM   12  C   UNL     1       5.015  28.421  53.555  1.00  0.00     0.256 C 
HETATM   13  N   UNL     1       5.731  29.109  52.600  1.00  0.00    -0.322 N 
HETATM   14  H   UNL     1       6.561  29.602  52.905  1.00  0.00     0.169 HD
HETATM   15  O   UNL     1       3.951  27.838  53.408  1.00  0.00    -0.267 OA
BRANCH  13  16
HETATM   16  C   UNL     1       5.425  29.193  51.225  1.00  0.00     0.052 A 
HETATM   17  C   UNL     1       5.114  30.365  50.541  1.00  0.00     0.145 A 
HETATM   18  N   UNL     1       4.805  30.416  49.219  1.00  0.00    -0.271 NA
HETATM   19  C   UNL     1       4.801  29.248  48.547  1.00  0.00     0.116 A 
HETATM   20  C   UNL     1       5.095  28.029  49.132  1.00  0.00     0.021 A 
HETATM   21  C   UNL     1       5.415  28.005  50.489  1.00  0.00     0.032 A 
ENDBRANCH  13  16
ENDBRANCH  10  12
BRANCH   9  22
HETATM   22  C   UNL     1       7.209  26.526  54.629  1.00  0.00    -0.029 A 
HETATM   23  C   UNL     1       6.814  25.525  55.535  1.00  0.00     0.009 A 
HETATM   24  C   UNL     1       6.934  24.176  55.199  1.00  0.00     0.001 A 
HETATM   25  C   UNL     1       7.432  23.806  53.952  1.00  0.00     0.000 A 
HETATM   26  C   UNL     1       7.808  24.786  53.036  1.00  0.00     0.001 A 
HETATM   27  C   UNL     1       7.696  26.136  53.369  1.00  0.00     0.009 A 
ENDBRANCH   9  22
TORSDOF 3
ENDMDL
MODEL 7
REMARK VINA RESULT:      -7.8      3.770      6.442
REMARK  3 active torsions:
REMARK  status: ('A' for Active; 'I' for Inactive)
REMARK    1  A    between atoms: C_9  and  C_10 
REMARK    2  A    between atoms: C_16  and  C_17 
REMARK       I    between atoms: C_17  and  N_18 
REMARK    3  A    between atoms: N_18  and  C_19 
ROOT
HETATM    1  C   UNL     1       5.580  30.782  50.731  1.00  0.00     0.070 C 
HETATM    2  C   UNL     1       5.311  29.329  50.428  1.00  0.00     0.037 C 
HETATM    3  N   UNL     1       5.449  28.959  49.093  1.00  0.00    -0.191 N 
HETATM    4  C   UNL     1       5.023  27.769  48.617  1.00  0.00     0.735 A 
HETATM    5  N   UNL     1       4.565  26.823  49.491  1.00  0.00    -0.092 N 
HETATM    6  N   UNL     1       4.118  25.750  48.821  1.00  0.00     0.012 NA
HETATM    7  N   UNL     1       4.355  26.033  47.543  1.00  0.00     0.033 NA
HETATM    8  N   UNL     1       4.917  27.289  47.402  1.00  0.00     0.030 NA
HETATM    9  C   UNL     1       4.520  26.987  50.942  1.00  0.00     0.198 C 
HETATM   10  C   UNL     1       4.892  28.414  51.338  1.00  0.00     0.062 C 
HETATM   11  H   UNL     1       5.681  29.689  48.423  1.00  0.00     0.184 HD
ENDROOT
BRANCH  10  12
HETATM   12  C   UNL     1       4.638  28.728  52.767  1.00  0.00     0.256 C 
HETATM   13  N   UNL     1       5.769  28.675  53.552  1.00  0.00    -0.322 N 
HETATM   14  H   UNL     1       6.634  28.401  53.105  1.00  0.00     0.169 HD
HETATM   15  O   UNL     1       3.492  28.954  53.130  1.00  0.00    -0.267 OA
BRANCH  13  16
HETATM   16  C   UNL     1       5.845  28.971  54.929  1.00  0.00     0.052 A 
HETATM   17  C   UNL     1       5.505  30.190  55.510  1.00  0.00     0.145 A 
HETATM   18  N   UNL     1       5.606  30.455  56.839  1.00  0.00    -0.271 NA
HETATM   19  C   UNL     1       6.070  29.465  57.626  1.00  0.00     0.116 A 
HETATM   20  C   UNL     1       6.435  28.218  57.150  1.00  0.00     0.021 A 
HETATM   21  C   UNL     1       6.317  27.971  55.783  1.00  0.00     0.032 A 
ENDBRANCH  13  16
ENDBRANCH  10  12
BRANCH   9  22
HETATM   22  C   UNL     1       5.411  25.958  51.635  1.00  0.00    -0.029 A 
HETATM   23  C   UNL     1       6.786  25.852  51.362  1.00  0.00     0.009 A 
HETATM   24  C   UNL     1       7.573  24.909  52.025  1.00  0.00     0.001 A 
HETATM   25  C   UNL     1       7.003  24.071  52.981  1.00  0.00     0.000 A 
HETATM   26  C   UNL     1       5.646  24.176  53.277  1.00  0.00     0.001 A 
HETATM   27  C   UNL     1       4.855  25.113  52.612  1.00  0.00     0.009 A 
ENDBRANCH   9  22
TORSDOF 3
ENDMDL
MODEL 8
REMARK VINA RESULT:      -7.6      2.738      7.718
REMARK  3 active torsions:
REMARK  status: ('A' for Active; 'I' for Inactive)
REMARK    1  A    between atoms: C_9  and  C_10 
REMARK    2  A    between atoms: C_16  and  C_17 
REMARK       I    between atoms: C_17  and  N_18 
REMARK    3  A    between atoms: N_18  and  C_19 
ROOT
HETATM    1  C   UNL     1       5.287  27.113  53.619  1.00  0.00     0.070 C 
HETATM    2  C   UNL     1       6.192  26.936  54.814  1.00  0.00     0.037 C 
HETATM    3  N   UNL     1       7.034  25.829  54.770  1.00  0.00    -0.191 N 
HETATM    4  C   UNL     1       7.728  25.397  55.845  1.00  0.00     0.735 A 
HETATM    5  N   UNL     1       7.727  26.145  56.989  1.00  0.00    -0.092 N 
HETATM    6  N   UNL     1       8.404  25.511  57.958  1.00  0.00     0.012 NA
HETATM    7  N   UNL     1       8.856  24.402  57.378  1.00  0.00     0.033 NA
HETATM    8  N   UNL     1       8.441  24.318  56.062  1.00  0.00     0.030 NA
HETATM    9  C   UNL     1       7.037  27.423  57.143  1.00  0.00     0.198 C 
HETATM   10  C   UNL     1       6.181  27.728  55.916  1.00  0.00     0.062 C 
HETATM   11  H   UNL     1       6.955  25.208  53.967  1.00  0.00     0.184 HD
ENDROOT
BRANCH  10  12
HETATM   12  C   UNL     1       5.264  28.884  56.092  1.00  0.00     0.256 C 
HETATM   13  N   UNL     1       5.821  30.089  55.725  1.00  0.00    -0.322 N 
HETATM   14  H   UNL     1       6.784  30.082  55.413  1.00  0.00     0.169 HD
HETATM   15  O   UNL     1       4.155  28.693  56.571  1.00  0.00    -0.267 OA
BRANCH  13  16
HETATM   16  C   UNL     1       5.179  31.345  55.736  1.00  0.00     0.052 A 
HETATM   17  C   UNL     1       4.394  31.856  54.706  1.00  0.00     0.145 A 
HETATM   18  N   UNL     1       3.802  33.078  54.734  1.00  0.00    -0.271 NA
HETATM   19  C   UNL     1       4.000  33.828  55.836  1.00  0.00     0.116 A 
HETATM   20  C   UNL     1       4.760  33.414  56.915  1.00  0.00     0.021 A 
HETATM   21  C   UNL     1       5.354  32.154  56.862  1.00  0.00     0.032 A 
ENDBRANCH  13  16
ENDBRANCH  10  12
BRANCH   9  22
HETATM   22  C   UNL     1       8.030  28.547  57.433  1.00  0.00    -0.029 A 
HETATM   23  C   UNL     1       7.926  29.364  58.572  1.00  0.00     0.009 A 
HETATM   24  C   UNL     1       8.860  30.372  58.812  1.00  0.00     0.001 A 
HETATM   25  C   UNL     1       9.920  30.569  57.930  1.00  0.00     0.000 A 
HETATM   26  C   UNL     1      10.048  29.755  56.806  1.00  0.00     0.001 A 
HETATM   27  C   UNL     1       9.113  28.750  56.559  1.00  0.00     0.009 A 
ENDBRANCH   9  22
TORSDOF 3
ENDMDL
MODEL 9
REMARK VINA RESULT:      -7.3      2.554      6.303
REMARK  3 active torsions:
REMARK  status: ('A' for Active; 'I' for Inactive)
REMARK    1  A    between atoms: C_9  and  C_10 
REMARK    2  A    between atoms: C_16  and  C_17 
REMARK       I    between atoms: C_17  and  N_18 
REMARK    3  A    between atoms: N_18  and  C_19 
ROOT
HETATM    1  C   UNL     1       7.807  25.813  57.801  1.00  0.00     0.070 C 
HETATM    2  C   UNL     1       7.573  25.825  56.310  1.00  0.00     0.037 C 
HETATM    3  N   UNL     1       7.424  24.576  55.716  1.00  0.00    -0.191 N 
HETATM    4  C   UNL     1       7.443  24.397  54.378  1.00  0.00     0.735 A 
HETATM    5  N   UNL     1       7.466  25.489  53.556  1.00  0.00    -0.092 N 
HETATM    6  N   UNL     1       7.562  25.103  52.274  1.00  0.00     0.012 NA
HETATM    7  N   UNL     1       7.545  23.774  52.325  1.00  0.00     0.033 NA
HETATM    8  N   UNL     1       7.473  23.321  53.629  1.00  0.00     0.030 NA
HETATM    9  C   UNL     1       7.447  26.875  54.017  1.00  0.00     0.198 C 
HETATM   10  C   UNL     1       7.569  26.941  55.537  1.00  0.00     0.062 C 
HETATM   11  H   UNL     1       7.518  23.756  56.312  1.00  0.00     0.184 HD
ENDROOT
BRANCH  10  12
HETATM   12  C   UNL     1       7.799  28.311  56.065  1.00  0.00     0.256 C 
HETATM   13  N   UNL     1       6.973  28.642  57.116  1.00  0.00    -0.322 N 
HETATM   14  H   UNL     1       6.283  27.958  57.401  1.00  0.00     0.169 HD
HETATM   15  O   UNL     1       8.631  29.023  55.521  1.00  0.00    -0.267 OA
BRANCH  13  16
HETATM   16  C   UNL     1       6.993  29.848  57.847  1.00  0.00     0.052 A 
HETATM   17  C   UNL     1       6.190  30.957  57.592  1.00  0.00     0.145 A 
HETATM   18  N   UNL     1       6.242  32.114  58.301  1.00  0.00    -0.271 NA
HETATM   19  C   UNL     1       7.137  32.176  59.307  1.00  0.00     0.116 A 
HETATM   20  C   UNL     1       7.981  31.132  59.642  1.00  0.00     0.021 A 
HETATM   21  C   UNL     1       7.903  29.953  58.902  1.00  0.00     0.032 A 
ENDBRANCH  13  16
ENDBRANCH  10  12
BRANCH   9  22
HETATM   22  C   UNL     1       6.198  27.598  53.517  1.00  0.00    -0.029 A 
HETATM   23  C   UNL     1       6.238  28.511  52.449  1.00  0.00     0.009 A 
HETATM   24  C   UNL     1       5.074  29.142  52.009  1.00  0.00     0.001 A 
HETATM   25  C   UNL     1       3.852  28.860  52.618  1.00  0.00     0.000 A 
HETATM   26  C   UNL     1       3.793  27.944  53.665  1.00  0.00     0.001 A 
HETATM   27  C   UNL     1       4.955  27.314  54.111  1.00  0.00     0.009 A 
ENDBRANCH   9  22
TORSDOF 3
ENDMDL
MODEL 10
REMARK VINA RESULT:      -7.3      3.798      7.542
REMARK  3 active torsions:
REMARK  status: ('A' for Active; 'I' for Inactive)
REMARK    1  A    between atoms: C_9  and  C_10 
REMARK    2  A    between atoms: C_16  and  C_17 
REMARK       I    between atoms: C_17  and  N_18 
REMARK    3  A    between atoms: N_18  and  C_19 
ROOT
HETATM    1  C   UNL     1       6.844  31.879  59.804  1.00  0.00     0.070 C 
HETATM    2  C   UNL     1       7.600  31.049  58.796  1.00  0.00     0.037 C 
HETATM    3  N   UNL     1       8.966  30.918  59.029  1.00  0.00    -0.191 N 
HETATM    4  C   UNL     1       9.818  30.413  58.112  1.00  0.00     0.735 A 
HETATM    5  N   UNL     1       9.319  29.874  56.959  1.00  0.00    -0.092 N 
HETATM    6  N   UNL     1      10.322  29.502  56.149  1.00  0.00     0.012 NA
HETATM    7  N   UNL     1      11.425  29.773  56.840  1.00  0.00     0.033 NA
HETATM    8  N   UNL     1      11.126  30.342  58.064  1.00  0.00     0.030 NA
HETATM    9  C   UNL     1       7.897  29.773  56.638  1.00  0.00     0.198 C 
HETATM   10  C   UNL     1       7.054  30.501  57.681  1.00  0.00     0.062 C 
HETATM   11  H   UNL     1       9.357  31.412  59.828  1.00  0.00     0.184 HD
ENDROOT
BRANCH  10  12
HETATM   12  C   UNL     1       5.625  30.652  57.303  1.00  0.00     0.256 C 
HETATM   13  N   UNL     1       5.381  31.743  56.497  1.00  0.00    -0.322 N 
HETATM   14  H   UNL     1       6.165  32.342  56.274  1.00  0.00     0.169 HD
HETATM   15  O   UNL     1       4.806  29.862  57.752  1.00  0.00    -0.267 OA
BRANCH  13  16
HETATM   16  C   UNL     1       4.137  32.111  55.943  1.00  0.00     0.052 A 
HETATM   17  C   UNL     1       3.200  32.941  56.552  1.00  0.00     0.145 A 
HETATM   18  N   UNL     1       2.000  33.266  56.004  1.00  0.00    -0.271 NA
HETATM   19  C   UNL     1       1.717  32.739  54.796  1.00  0.00     0.116 A 
HETATM   20  C   UNL     1       2.578  31.904  54.106  1.00  0.00     0.021 A 
HETATM   21  C   UNL     1       3.805  31.591  54.689  1.00  0.00     0.032 A 
ENDBRANCH  13  16
ENDBRANCH  10  12
BRANCH   9  22
HETATM   22  C   UNL     1       7.475  28.313  56.487  1.00  0.00    -0.029 A 
HETATM   23  C   UNL     1       7.013  27.789  55.267  1.00  0.00     0.009 A 
HETATM   24  C   UNL     1       6.649  26.446  55.162  1.00  0.00     0.001 A 
HETATM   25  C   UNL     1       6.757  25.603  56.267  1.00  0.00     0.000 A 
HETATM   26  C   UNL     1       7.231  26.103  57.477  1.00  0.00     0.001 A 
HETATM   27  C   UNL     1       7.590  27.447  57.588  1.00  0.00     0.009 A 
ENDBRANCH   9  22
TORSDOF 3
ENDMDL
