MODEL 1
REMARK VINA RESULT:      -9.0      0.000      0.000
REMARK  6 active torsions:
REMARK  status: ('A' for Active; 'I' for Inactive)
REMARK    1  A    between atoms: C_2  and  O_3 
REMARK    2  A    between atoms: O_3  and  C_4 
REMARK    3  A    between atoms: C_9  and  S_10 
REMARK    4  A    between atoms: S_10  and  C_11 
REMARK    5  A    between atoms: C_11  and  C_12 
REMARK       I    between atoms: C_12  and  N_13 
REMARK    6  A    between atoms: N_13  and  C_14 
ROOT
HETATM    1  C   UNL     1       7.398  32.616  60.678  1.00  0.00     0.069 A 
HETATM    2  C   UNL     1       8.569  32.090  60.134  1.00  0.00     0.050 A 
HETATM    3  C   UNL     1       8.515  31.239  59.011  1.00  0.00    -0.004 A 
HETATM    4  C   UNL     1       7.280  30.900  58.429  1.00  0.00     0.068 A 
HETATM    5  N   UNL     1       7.188  30.095  57.359  1.00  0.00    -0.241 NA
HETATM    6  C   UNL     1       8.324  29.591  56.817  1.00  0.00     0.100 A 
HETATM    7  C   UNL     1       9.597  29.880  57.305  1.00  0.00    -0.026 A 
HETATM    8  C   UNL     1      10.863  29.322  56.725  1.00  0.00     0.051 C 
HETATM    9  C   UNL     1       9.674  30.706  58.433  1.00  0.00     0.023 A 
HETATM   10  C   UNL     1       6.128  31.427  58.991  1.00  0.00     0.035 A 
HETATM   11  C   UNL     1       6.178  32.277  60.101  1.00  0.00     0.039 A 
ENDROOT
BRANCH   6  12
HETATM   12  S   UNL     1       8.003  28.527  55.427  1.00  0.00    -0.096 SA
BRANCH  12  13
HETATM   13  C   UNL     1       7.205  27.108  56.266  1.00  0.00     0.142 C 
HETATM   14  C   UNL     1       8.074  26.690  57.446  1.00  0.00     0.031 C 
BRANCH  13  15
HETATM   15  C   UNL     1       6.960  25.903  55.354  1.00  0.00     0.236 C 
HETATM   16  N   UNL     1       7.902  24.897  55.463  1.00  0.00    -0.326 N 
HETATM   17  H   UNL     1       8.778  25.171  55.901  1.00  0.00     0.169 HD
HETATM   18  O   UNL     1       5.942  25.867  54.664  1.00  0.00    -0.272 OA
BRANCH  16  19
HETATM   19  C   UNL     1       7.898  23.638  54.833  1.00  0.00     0.034 A 
HETATM   20  C   UNL     1       8.013  23.455  53.455  1.00  0.00     0.029 A 
HETATM   21  C   UNL     1       7.996  22.168  52.908  1.00  0.00     0.002 A 
HETATM   22  C   UNL     1       7.857  21.055  53.734  1.00  0.00     0.000 A 
HETATM   23  C   UNL     1       7.736  21.227  55.109  1.00  0.00     0.002 A 
HETATM   24  C   UNL     1       7.755  22.513  55.656  1.00  0.00     0.029 A 
ENDBRANCH  16  19
ENDBRANCH  13  15
ENDBRANCH  12  13
ENDBRANCH   6  12
BRANCH   1  25
HETATM   25  O   UNL     1       7.313  33.459  61.750  1.00  0.00    -0.351 OA
BRANCH  25  26
HETATM   26  C   UNL     1       6.642  32.973  62.911  1.00  0.00     0.171 C 
HETATM   27  C   UNL     1       7.617  33.027  64.074  1.00  0.00     0.034 C 
ENDBRANCH  25  26
ENDBRANCH   1  25
TORSDOF 6
ENDMDL
MODEL 2
REMARK VINA RESULT:      -9.0      4.577      7.792
REMARK  6 active torsions:
REMARK  status: ('A' for Active; 'I' for Inactive)
REMARK    1  A    between atoms: C_2  and  O_3 
REMARK    2  A    between atoms: O_3  and  C_4 
REMARK    3  A    between atoms: C_9  and  S_10 
REMARK    4  A    between atoms: S_10  and  C_11 
REMARK    5  A    between atoms: C_11  and  C_12 
REMARK       I    between atoms: C_12  and  N_13 
REMARK    6  A    between atoms: N_13  and  C_14 
ROOT
HETATM    1  C   UNL     1       4.980  27.005  50.684  1.00  0.00     0.069 A 
HETATM    2  C   UNL     1       4.766  27.871  51.756  1.00  0.00     0.050 A 
HETATM    3  C   UNL     1       4.920  27.417  53.082  1.00  0.00    -0.004 A 
HETATM    4  C   UNL     1       5.280  26.084  53.344  1.00  0.00     0.068 A 
HETATM    5  N   UNL     1       5.438  25.614  54.592  1.00  0.00    -0.241 NA
HETATM    6  C   UNL     1       5.244  26.455  55.638  1.00  0.00     0.100 A 
HETATM    7  C   UNL     1       4.906  27.799  55.487  1.00  0.00    -0.026 A 
HETATM    8  C   UNL     1       4.677  28.739  56.632  1.00  0.00     0.051 C 
HETATM    9  C   UNL     1       4.727  28.267  54.179  1.00  0.00     0.023 A 
HETATM   10  C   UNL     1       5.479  25.237  52.265  1.00  0.00     0.035 A 
HETATM   11  C   UNL     1       5.334  25.685  50.947  1.00  0.00     0.039 A 
ENDROOT
BRANCH   6  12
HETATM   12  S   UNL     1       5.471  25.652  57.210  1.00  0.00    -0.096 SA
BRANCH  12  13
HETATM   13  C   UNL     1       7.297  25.690  57.347  1.00  0.00     0.142 C 
HETATM   14  C   UNL     1       7.809  26.957  56.671  1.00  0.00     0.031 C 
BRANCH  13  15
HETATM   15  C   UNL     1       7.993  24.467  56.743  1.00  0.00     0.236 C 
HETATM   16  N   UNL     1       7.186  23.682  55.942  1.00  0.00    -0.326 N 
HETATM   17  H   UNL     1       6.186  23.825  56.064  1.00  0.00     0.169 HD
HETATM   18  O   UNL     1       9.197  24.305  56.935  1.00  0.00    -0.272 OA
BRANCH  16  19
HETATM   19  C   UNL     1       7.557  22.558  55.181  1.00  0.00     0.034 A 
HETATM   20  C   UNL     1       7.894  21.320  55.729  1.00  0.00     0.029 A 
HETATM   21  C   UNL     1       8.257  20.253  54.901  1.00  0.00     0.002 A 
HETATM   22  C   UNL     1       8.291  20.418  53.518  1.00  0.00     0.000 A 
HETATM   23  C   UNL     1       7.962  21.650  52.961  1.00  0.00     0.002 A 
HETATM   24  C   UNL     1       7.599  22.715  53.789  1.00  0.00     0.029 A 
ENDBRANCH  16  19
ENDBRANCH  13  15
ENDBRANCH  12  13
ENDBRANCH   6  12
BRANCH   1  25
HETATM   25  O   UNL     1       4.879  27.320  49.359  1.00  0.00    -0.351 OA
BRANCH  25  26
HETATM   26  C   UNL     1       3.576  27.295  48.778  1.00  0.00     0.171 C 
HETATM   27  C   UNL     1       3.520  26.135  47.800  1.00  0.00     0.034 C 
ENDBRANCH  25  26
ENDBRANCH   1  25
TORSDOF 6
ENDMDL
MODEL 3
REMARK VINA RESULT:      -8.8      1.147      1.900
REMARK  6 active torsions:
REMARK  status: ('A' for Active; 'I' for Inactive)
REMARK    1  A    between atoms: C_2  and  O_3 
REMARK    2  A    between atoms: O_3  and  C_4 
REMARK    3  A    between atoms: C_9  and  S_10 
REMARK    4  A    between atoms: S_10  and  C_11 
REMARK    5  A    between atoms: C_11  and  C_12 
REMARK       I    between atoms: C_12  and  N_13 
REMARK    6  A    between atoms: N_13  and  C_14 
ROOT
HETATM    1  C   UNL     1       7.754  32.221  61.049  1.00  0.00     0.069 A 
HETATM    2  C   UNL     1       6.813  32.101  60.028  1.00  0.00     0.050 A 
HETATM    3  C   UNL     1       6.989  31.149  59.003  1.00  0.00    -0.004 A 
HETATM    4  C   UNL     1       8.119  30.313  58.990  1.00  0.00     0.068 A 
HETATM    5  N   UNL     1       8.321  29.393  58.033  1.00  0.00    -0.241 NA
HETATM    6  C   UNL     1       7.401  29.263  57.044  1.00  0.00     0.100 A 
HETATM    7  C   UNL     1       6.238  30.026  56.977  1.00  0.00    -0.026 A 
HETATM    8  C   UNL     1       5.217  29.903  55.885  1.00  0.00     0.051 C 
HETATM    9  C   UNL     1       6.053  30.994  57.972  1.00  0.00     0.023 A 
HETATM   10  C   UNL     1       9.048  30.454  60.009  1.00  0.00     0.035 A 
HETATM   11  C   UNL     1       8.874  31.394  61.031  1.00  0.00     0.039 A 
ENDROOT
BRANCH   6  12
HETATM   12  S   UNL     1       7.850  28.016  55.856  1.00  0.00    -0.096 SA
BRANCH  12  13
HETATM   13  C   UNL     1       6.913  26.581  56.504  1.00  0.00     0.142 C 
HETATM   14  C   UNL     1       7.607  26.077  57.764  1.00  0.00     0.031 C 
BRANCH  13  15
HETATM   15  C   UNL     1       6.763  25.432  55.503  1.00  0.00     0.236 C 
HETATM   16  N   UNL     1       7.734  24.454  55.600  1.00  0.00    -0.326 N 
HETATM   17  H   UNL     1       8.575  24.727  56.103  1.00  0.00     0.169 HD
HETATM   18  O   UNL     1       5.785  25.409  54.757  1.00  0.00    -0.272 OA
BRANCH  16  19
HETATM   19  C   UNL     1       7.811  23.241  54.890  1.00  0.00     0.034 A 
HETATM   20  C   UNL     1       7.969  23.154  53.507  1.00  0.00     0.029 A 
HETATM   21  C   UNL     1       8.032  21.907  52.877  1.00  0.00     0.002 A 
HETATM   22  C   UNL     1       7.931  20.737  53.626  1.00  0.00     0.000 A 
HETATM   23  C   UNL     1       7.768  20.812  55.006  1.00  0.00     0.002 A 
HETATM   24  C   UNL     1       7.707  22.058  55.634  1.00  0.00     0.029 A 
ENDBRANCH  16  19
ENDBRANCH  13  15
ENDBRANCH  12  13
ENDBRANCH   6  12
BRANCH   1  25
HETATM   25  O   UNL     1       7.697  33.088  62.104  1.00  0.00    -0.351 OA
BRANCH  25  26
HETATM   26  C   UNL     1       7.998  32.565  63.396  1.00  0.00     0.171 C 
HETATM   27  C   UNL     1       7.277  33.416  64.426  1.00  0.00     0.034 C 
ENDBRANCH  25  26
ENDBRANCH   1  25
TORSDOF 6
ENDMDL
MODEL 4
REMARK VINA RESULT:      -8.7      2.960      8.779
REMARK  6 active torsions:
REMARK  status: ('A' for Active; 'I' for Inactive)
REMARK    1  A    between atoms: C_2  and  O_3 
REMARK    2  A    between atoms: O_3  and  C_4 
REMARK    3  A    between atoms: C_9  and  S_10 
REMARK    4  A    between atoms: S_10  and  C_11 
REMARK    5  A    between atoms: C_11  and  C_12 
REMARK       I    between atoms: C_12  and  N_13 
REMARK    6  A    between atoms: N_13  and  C_14 
ROOT
HETATM    1  C   UNL     1       8.760  22.662  54.877  1.00  0.00     0.069 A 
HETATM    2  C   UNL     1       8.152  23.027  53.677  1.00  0.00     0.050 A 
HETATM    3  C   UNL     1       7.428  24.234  53.582  1.00  0.00    -0.004 A 
HETATM    4  C   UNL     1       7.300  25.080  54.697  1.00  0.00     0.068 A 
HETATM    5  N   UNL     1       6.621  26.237  54.646  1.00  0.00    -0.241 NA
HETATM    6  C   UNL     1       6.038  26.605  53.477  1.00  0.00     0.100 A 
HETATM    7  C   UNL     1       6.123  25.849  52.310  1.00  0.00    -0.026 A 
HETATM    8  C   UNL     1       5.476  26.235  51.014  1.00  0.00     0.051 C 
HETATM    9  C   UNL     1       6.819  24.636  52.386  1.00  0.00     0.023 A 
HETATM   10  C   UNL     1       7.904  24.694  55.883  1.00  0.00     0.035 A 
HETATM   11  C   UNL     1       8.629  23.501  55.980  1.00  0.00     0.039 A 
ENDROOT
BRANCH   6  12
HETATM   12  S   UNL     1       5.164  28.149  53.608  1.00  0.00    -0.096 SA
BRANCH  12  13
HETATM   13  C   UNL     1       5.077  28.334  55.428  1.00  0.00     0.142 C 
HETATM   14  C   UNL     1       3.670  28.786  55.804  1.00  0.00     0.031 C 
BRANCH  13  15
HETATM   15  C   UNL     1       6.103  29.313  56.005  1.00  0.00     0.236 C 
HETATM   16  N   UNL     1       7.242  28.719  56.515  1.00  0.00    -0.326 N 
HETATM   17  H   UNL     1       7.160  27.725  56.713  1.00  0.00     0.169 HD
HETATM   18  O   UNL     1       5.897  30.522  55.914  1.00  0.00    -0.272 OA
BRANCH  16  19
HETATM   19  C   UNL     1       8.393  29.352  57.021  1.00  0.00     0.034 A 
HETATM   20  C   UNL     1       8.455  29.983  58.263  1.00  0.00     0.029 A 
HETATM   21  C   UNL     1       9.639  30.594  58.690  1.00  0.00     0.002 A 
HETATM   22  C   UNL     1      10.768  30.584  57.875  1.00  0.00     0.000 A 
HETATM   23  C   UNL     1      10.715  29.962  56.630  1.00  0.00     0.002 A 
HETATM   24  C   UNL     1       9.533  29.351  56.205  1.00  0.00     0.029 A 
ENDBRANCH  16  19
ENDBRANCH  13  15
ENDBRANCH  12  13
ENDBRANCH   6  12
BRANCH   1  25
HETATM   25  O   UNL     1       9.498  21.533  55.098  1.00  0.00    -0.351 OA
BRANCH  25  26
HETATM   26  C   UNL     1       8.810  20.284  55.053  1.00  0.00     0.171 C 
HETATM   27  C   UNL     1       7.664  20.343  56.047  1.00  0.00     0.034 C 
ENDBRANCH  25  26
ENDBRANCH   1  25
TORSDOF 6
ENDMDL
MODEL 5
REMARK VINA RESULT:      -8.6      1.954      9.667
REMARK  6 active torsions:
REMARK  status: ('A' for Active; 'I' for Inactive)
REMARK    1  A    between atoms: C_2  and  O_3 
REMARK    2  A    between atoms: O_3  and  C_4 
REMARK    3  A    between atoms: C_9  and  S_10 
REMARK    4  A    between atoms: S_10  and  C_11 
REMARK    5  A    between atoms: C_11  and  C_12 
REMARK       I    between atoms: C_12  and  N_13 
REMARK    6  A    between atoms: N_13  and  C_14 
ROOT
HETATM    1  C   UNL     1       8.443  22.793  55.395  1.00  0.00     0.069 A 
HETATM    2  C   UNL     1       7.882  23.827  54.648  1.00  0.00     0.050 A 
HETATM    3  C   UNL     1       7.534  25.047  55.265  1.00  0.00    -0.004 A 
HETATM    4  C   UNL     1       7.738  25.234  56.643  1.00  0.00     0.068 A 
HETATM    5  N   UNL     1       7.422  26.381  57.267  1.00  0.00    -0.241 NA
HETATM    6  C   UNL     1       6.888  27.395  56.542  1.00  0.00     0.100 A 
HETATM    7  C   UNL     1       6.665  27.319  55.169  1.00  0.00    -0.026 A 
HETATM    8  C   UNL     1       6.066  28.427  54.355  1.00  0.00     0.051 C 
HETATM    9  C   UNL     1       6.983  26.110  54.538  1.00  0.00     0.023 A 
HETATM   10  C   UNL     1       8.288  24.190  57.370  1.00  0.00     0.035 A 
HETATM   11  C   UNL     1       8.641  22.981  56.761  1.00  0.00     0.039 A 
ENDROOT
BRANCH   6  12
HETATM   12  S   UNL     1       6.510  28.820  57.540  1.00  0.00    -0.096 SA
BRANCH  12  13
HETATM   13  C   UNL     1       8.034  29.809  57.306  1.00  0.00     0.142 C 
HETATM   14  C   UNL     1       9.216  28.855  57.168  1.00  0.00     0.031 C 
BRANCH  13  15
HETATM   15  C   UNL     1       8.308  30.808  58.433  1.00  0.00     0.236 C 
HETATM   16  N   UNL     1       7.391  30.776  59.466  1.00  0.00    -0.326 N 
HETATM   17  H   UNL     1       6.509  30.320  59.247  1.00  0.00     0.169 HD
HETATM   18  O   UNL     1       9.327  31.496  58.392  1.00  0.00    -0.272 OA
BRANCH  16  19
HETATM   19  C   UNL     1       7.426  31.498  60.674  1.00  0.00     0.034 A 
HETATM   20  C   UNL     1       8.254  31.180  61.751  1.00  0.00     0.029 A 
HETATM   21  C   UNL     1       8.223  31.949  62.920  1.00  0.00     0.002 A 
HETATM   22  C   UNL     1       7.360  33.037  63.022  1.00  0.00     0.000 A 
HETATM   23  C   UNL     1       6.526  33.359  61.956  1.00  0.00     0.002 A 
HETATM   24  C   UNL     1       6.558  32.592  60.788  1.00  0.00     0.029 A 
ENDBRANCH  16  19
ENDBRANCH  13  15
ENDBRANCH  12  13
ENDBRANCH   6  12
BRANCH   1  25
HETATM   25  O   UNL     1       8.836  21.574  54.920  1.00  0.00    -0.351 OA
BRANCH  25  26
HETATM   26  C   UNL     1       7.832  20.746  54.337  1.00  0.00     0.171 C 
HETATM   27  C   UNL     1       8.285  20.375  52.936  1.00  0.00     0.034 C 
ENDBRANCH  25  26
ENDBRANCH   1  25
TORSDOF 6
ENDMDL
MODEL 6
REMARK VINA RESULT:      -8.1      5.425      9.186
REMARK  6 active torsions:
REMARK  status: ('A' for Active; 'I' for Inactive)
REMARK    1  A    between atoms: C_2  and  O_3 
REMARK    2  A    between atoms: O_3  and  C_4 
REMARK    3  A    between atoms: C_9  and  S_10 
REMARK    4  A    between atoms: S_10  and  C_11 
REMARK    5  A    between atoms: C_11  and  C_12 
REMARK       I    between atoms: C_12  and  N_13 
REMARK    6  A    between atoms: N_13  and  C_14 
ROOT
HETATM    1  C   UNL     1       8.559  22.658  54.665  1.00  0.00     0.069 A 
HETATM    2  C   UNL     1       8.056  23.605  55.556  1.00  0.00     0.050 A 
HETATM    3  C   UNL     1       7.178  24.613  55.106  1.00  0.00    -0.004 A 
HETATM    4  C   UNL     1       6.803  24.683  53.753  1.00  0.00     0.068 A 
HETATM    5  N   UNL     1       5.967  25.625  53.287  1.00  0.00    -0.241 NA
HETATM    6  C   UNL     1       5.465  26.541  54.151  1.00  0.00     0.100 A 
HETATM    7  C   UNL     1       5.756  26.547  55.514  1.00  0.00    -0.026 A 
HETATM    8  C   UNL     1       5.219  27.559  56.481  1.00  0.00     0.051 C 
HETATM    9  C   UNL     1       6.644  25.570  55.979  1.00  0.00     0.023 A 
HETATM   10  C   UNL     1       7.321  23.737  52.882  1.00  0.00     0.035 A 
HETATM   11  C   UNL     1       8.188  22.732  53.325  1.00  0.00     0.039 A 
ENDROOT
BRANCH   6  12
HETATM   12  S   UNL     1       4.401  27.722  53.351  1.00  0.00    -0.096 SA
BRANCH  12  13
HETATM   13  C   UNL     1       5.269  27.926  51.750  1.00  0.00     0.142 C 
HETATM   14  C   UNL     1       5.320  29.412  51.411  1.00  0.00     0.031 C 
BRANCH  13  15
HETATM   15  C   UNL     1       4.629  27.156  50.592  1.00  0.00     0.236 C 
HETATM   16  N   UNL     1       3.556  27.793  49.999  1.00  0.00    -0.326 N 
HETATM   17  H   UNL     1       3.136  28.536  50.552  1.00  0.00     0.169 HD
HETATM   18  O   UNL     1       5.134  26.096  50.223  1.00  0.00    -0.272 OA
BRANCH  16  19
HETATM   19  C   UNL     1       2.829  27.386  48.865  1.00  0.00     0.034 A 
HETATM   20  C   UNL     1       3.313  26.497  47.905  1.00  0.00     0.029 A 
HETATM   21  C   UNL     1       2.527  26.147  46.802  1.00  0.00     0.002 A 
HETATM   22  C   UNL     1       1.254  26.688  46.648  1.00  0.00     0.000 A 
HETATM   23  C   UNL     1       0.763  27.581  47.596  1.00  0.00     0.002 A 
HETATM   24  C   UNL     1       1.548  27.929  48.699  1.00  0.00     0.029 A 
ENDBRANCH  16  19
ENDBRANCH  13  15
ENDBRANCH  12  13
ENDBRANCH   6  12
BRANCH   1  25
HETATM   25  O   UNL     1       9.402  21.628  54.971  1.00  0.00    -0.351 OA
BRANCH  25  26
HETATM   26  C   UNL     1       9.131  20.895  56.164  1.00  0.00     0.171 C 
HETATM   27  C   UNL     1       7.973  19.954  55.884  1.00  0.00     0.034 C 
ENDBRANCH  25  26
ENDBRANCH   1  25
TORSDOF 6
ENDMDL
MODEL 7
REMARK VINA RESULT:      -8.0      2.544      9.212
REMARK  6 active torsions:
REMARK  status: ('A' for Active; 'I' for Inactive)
REMARK    1  A    between atoms: C_2  and  O_3 
REMARK    2  A    between atoms: O_3  and  C_4 
REMARK    3  A    between atoms: C_9  and  S_10 
REMARK    4  A    between atoms: S_10  and  C_11 
REMARK    5  A    between atoms: C_11  and  C_12 
REMARK       I    between atoms: C_12  and  N_13 
REMARK    6  A    between atoms: N_13  and  C_14 
ROOT
HETATM    1  C   UNL     1       6.920  24.050  54.702  1.00  0.00     0.069 A 
HETATM    2  C   UNL     1       5.966  24.659  53.889  1.00  0.00     0.050 A 
HETATM    3  C   UNL     1       5.611  26.009  54.092  1.00  0.00    -0.004 A 
HETATM    4  C   UNL     1       6.207  26.757  55.122  1.00  0.00     0.068 A 
HETATM    5  N   UNL     1       5.898  28.045  55.345  1.00  0.00    -0.241 NA
HETATM    6  C   UNL     1       4.979  28.646  54.549  1.00  0.00     0.100 A 
HETATM    7  C   UNL     1       4.346  28.000  53.489  1.00  0.00    -0.026 A 
HETATM    8  C   UNL     1       3.320  28.646  52.607  1.00  0.00     0.051 C 
HETATM    9  C   UNL     1       4.666  26.653  53.282  1.00  0.00     0.023 A 
HETATM   10  C   UNL     1       7.148  26.131  55.924  1.00  0.00     0.035 A 
HETATM   11  C   UNL     1       7.507  24.794  55.723  1.00  0.00     0.039 A 
ENDROOT
BRANCH   6  12
HETATM   12  S   UNL     1       4.680  30.339  55.011  1.00  0.00    -0.096 SA
BRANCH  12  13
HETATM   13  C   UNL     1       4.640  30.187  56.837  1.00  0.00     0.142 C 
HETATM   14  C   UNL     1       3.217  30.458  57.315  1.00  0.00     0.031 C 
BRANCH  13  15
HETATM   15  C   UNL     1       5.613  31.120  57.561  1.00  0.00     0.236 C 
HETATM   16  N   UNL     1       6.432  30.495  58.482  1.00  0.00    -0.326 N 
HETATM   17  H   UNL     1       6.121  29.575  58.784  1.00  0.00     0.169 HD
HETATM   18  O   UNL     1       5.662  32.306  57.239  1.00  0.00    -0.272 OA
BRANCH  16  19
HETATM   19  C   UNL     1       7.482  31.063  59.229  1.00  0.00     0.034 A 
HETATM   20  C   UNL     1       7.320  31.647  60.486  1.00  0.00     0.029 A 
HETATM   21  C   UNL     1       8.417  32.193  61.160  1.00  0.00     0.002 A 
HETATM   22  C   UNL     1       9.683  32.165  60.580  1.00  0.00     0.000 A 
HETATM   23  C   UNL     1       9.855  31.590  59.324  1.00  0.00     0.002 A 
HETATM   24  C   UNL     1       8.759  31.043  58.652  1.00  0.00     0.029 A 
ENDBRANCH  16  19
ENDBRANCH  13  15
ENDBRANCH  12  13
ENDBRANCH   6  12
BRANCH   1  25
HETATM   25  O   UNL     1       7.362  22.761  54.604  1.00  0.00    -0.351 OA
BRANCH  25  26
HETATM   26  C   UNL     1       7.968  22.370  53.373  1.00  0.00     0.171 C 
HETATM   27  C   UNL     1       7.776  20.873  53.209  1.00  0.00     0.034 C 
ENDBRANCH  25  26
ENDBRANCH   1  25
TORSDOF 6
ENDMDL
MODEL 8
REMARK VINA RESULT:      -7.9      2.172      2.862
REMARK  6 active torsions:
REMARK  status: ('A' for Active; 'I' for Inactive)
REMARK    1  A    between atoms: C_2  and  O_3 
REMARK    2  A    between atoms: O_3  and  C_4 
REMARK    3  A    between atoms: C_9  and  S_10 
REMARK    4  A    between atoms: S_10  and  C_11 
REMARK    5  A    between atoms: C_11  and  C_12 
REMARK       I    between atoms: C_12  and  N_13 
REMARK    6  A    between atoms: N_13  and  C_14 
ROOT
HETATM    1  C   UNL     1       5.714  31.870  58.481  1.00  0.00     0.069 A 
HETATM    2  C   UNL     1       6.713  30.899  58.481  1.00  0.00     0.050 A 
HETATM    3  C   UNL     1       6.503  29.659  57.844  1.00  0.00    -0.004 A 
HETATM    4  C   UNL     1       5.282  29.380  57.207  1.00  0.00     0.068 A 
HETATM    5  N   UNL     1       5.045  28.213  56.587  1.00  0.00    -0.241 NA
HETATM    6  C   UNL     1       6.018  27.268  56.573  1.00  0.00     0.100 A 
HETATM    7  C   UNL     1       7.270  27.453  57.155  1.00  0.00    -0.026 A 
HETATM    8  C   UNL     1       8.353  26.415  57.158  1.00  0.00     0.051 C 
HETATM    9  C   UNL     1       7.494  28.668  57.814  1.00  0.00     0.023 A 
HETATM   10  C   UNL     1       4.298  30.356  57.226  1.00  0.00     0.035 A 
HETATM   11  C   UNL     1       4.504  31.590  57.852  1.00  0.00     0.039 A 
ENDROOT
BRANCH   6  12
HETATM   12  S   UNL     1       5.515  25.783  55.731  1.00  0.00    -0.096 SA
BRANCH  12  13
HETATM   13  C   UNL     1       6.405  25.979  54.142  1.00  0.00     0.142 C 
HETATM   14  C   UNL     1       5.380  26.203  53.036  1.00  0.00     0.031 C 
BRANCH  13  15
HETATM   15  C   UNL     1       7.301  24.792  53.780  1.00  0.00     0.236 C 
HETATM   16  N   UNL     1       7.048  23.639  54.498  1.00  0.00    -0.326 N 
HETATM   17  H   UNL     1       6.518  23.771  55.355  1.00  0.00     0.169 HD
HETATM   18  O   UNL     1       8.107  24.907  52.857  1.00  0.00    -0.272 OA
BRANCH  16  19
HETATM   19  C   UNL     1       7.635  22.370  54.329  1.00  0.00     0.034 A 
HETATM   20  C   UNL     1       7.919  21.800  53.088  1.00  0.00     0.029 A 
HETATM   21  C   UNL     1       8.499  20.530  53.007  1.00  0.00     0.002 A 
HETATM   22  C   UNL     1       8.795  19.818  54.167  1.00  0.00     0.000 A 
HETATM   23  C   UNL     1       8.511  20.376  55.410  1.00  0.00     0.002 A 
HETATM   24  C   UNL     1       7.932  21.645  55.490  1.00  0.00     0.029 A 
ENDBRANCH  16  19
ENDBRANCH  13  15
ENDBRANCH  12  13
ENDBRANCH   6  12
BRANCH   1  25
HETATM   25  O   UNL     1       5.793  33.112  59.047  1.00  0.00    -0.351 OA
BRANCH  25  26
HETATM   26  C   UNL     1       5.879  33.176  60.470  1.00  0.00     0.171 C 
HETATM   27  C   UNL     1       4.625  32.545  61.046  1.00  0.00     0.034 C 
ENDBRANCH  25  26
ENDBRANCH   1  25
TORSDOF 6
ENDMDL
MODEL 9
REMARK VINA RESULT:      -7.7      4.743      6.579
REMARK  6 active torsions:
REMARK  status: ('A' for Active; 'I' for Inactive)
REMARK    1  A    between atoms: C_2  and  O_3 
REMARK    2  A    between atoms: O_3  and  C_4 
REMARK    3  A    between atoms: C_9  and  S_10 
REMARK    4  A    between atoms: S_10  and  C_11 
REMARK    5  A    between atoms: C_11  and  C_12 
REMARK       I    between atoms: C_12  and  N_13 
REMARK    6  A    between atoms: N_13  and  C_14 
ROOT
HETATM    1  C   UNL     1       7.739  28.738  57.931  1.00  0.00     0.069 A 
HETATM    2  C   UNL     1       7.978  27.387  57.688  1.00  0.00     0.050 A 
HETATM    3  C   UNL     1       7.324  26.726  56.628  1.00  0.00    -0.004 A 
HETATM    4  C   UNL     1       6.415  27.416  55.806  1.00  0.00     0.068 A 
HETATM    5  N   UNL     1       5.775  26.822  54.787  1.00  0.00    -0.241 NA
HETATM    6  C   UNL     1       6.013  25.511  54.537  1.00  0.00     0.100 A 
HETATM    7  C   UNL     1       6.909  24.742  55.277  1.00  0.00    -0.026 A 
HETATM    8  C   UNL     1       7.175  23.289  55.022  1.00  0.00     0.051 C 
HETATM    9  C   UNL     1       7.554  25.372  56.349  1.00  0.00     0.023 A 
HETATM   10  C   UNL     1       6.186  28.757  56.070  1.00  0.00     0.035 A 
HETATM   11  C   UNL     1       6.837  29.418  57.117  1.00  0.00     0.039 A 
ENDROOT
BRANCH   6  12
HETATM   12  S   UNL     1       5.057  24.893  53.169  1.00  0.00    -0.096 SA
BRANCH  12  13
HETATM   13  C   UNL     1       6.102  25.426  51.761  1.00  0.00     0.142 C 
HETATM   14  C   UNL     1       7.532  25.604  52.258  1.00  0.00     0.031 C 
BRANCH  13  15
HETATM   15  C   UNL     1       5.627  26.715  51.086  1.00  0.00     0.236 C 
HETATM   16  N   UNL     1       5.094  26.541  49.823  1.00  0.00    -0.326 N 
HETATM   17  H   UNL     1       5.328  25.660  49.373  1.00  0.00     0.169 HD
HETATM   18  O   UNL     1       5.674  27.773  51.711  1.00  0.00    -0.272 OA
BRANCH  16  19
HETATM   19  C   UNL     1       4.493  27.511  48.998  1.00  0.00     0.034 A 
HETATM   20  C   UNL     1       3.142  27.854  49.053  1.00  0.00     0.029 A 
HETATM   21  C   UNL     1       2.622  28.827  48.193  1.00  0.00     0.002 A 
HETATM   22  C   UNL     1       3.449  29.460  47.268  1.00  0.00     0.000 A 
HETATM   23  C   UNL     1       4.797  29.122  47.202  1.00  0.00     0.002 A 
HETATM   24  C   UNL     1       5.316  28.151  48.062  1.00  0.00     0.029 A 
ENDBRANCH  16  19
ENDBRANCH  13  15
ENDBRANCH  12  13
ENDBRANCH   6  12
BRANCH   1  25
HETATM   25  O   UNL     1       8.314  29.497  58.911  1.00  0.00    -0.351 OA
BRANCH  25  26
HETATM   26  C   UNL     1       9.339  30.407  58.515  1.00  0.00     0.171 C 
HETATM   27  C   UNL     1       9.141  31.701  59.283  1.00  0.00     0.034 C 
ENDBRANCH  25  26
ENDBRANCH   1  25
TORSDOF 6
ENDMDL
MODEL 10
REMARK VINA RESULT:      -7.5      2.749      3.731
REMARK  6 active torsions:
REMARK  status: ('A' for Active; 'I' for Inactive)
REMARK    1  A    between atoms: C_2  and  O_3 
REMARK    2  A    between atoms: O_3  and  C_4 
REMARK    3  A    between atoms: C_9  and  S_10 
REMARK    4  A    between atoms: S_10  and  C_11 
REMARK    5  A    between atoms: C_11  and  C_12 
REMARK       I    between atoms: C_12  and  N_13 
REMARK    6  A    between atoms: N_13  and  C_14 
ROOT
HETATM    1  C   UNL     1       5.652  32.244  57.898  1.00  0.00     0.069 A 
HETATM    2  C   UNL     1       4.940  32.346  56.703  1.00  0.00     0.050 A 
HETATM    3  C   UNL     1       4.889  31.258  55.807  1.00  0.00    -0.004 A 
HETATM    4  C   UNL     1       5.562  30.059  56.100  1.00  0.00     0.068 A 
HETATM    5  N   UNL     1       5.535  29.001  55.273  1.00  0.00    -0.241 NA
HETATM    6  C   UNL     1       4.834  29.090  54.116  1.00  0.00     0.100 A 
HETATM    7  C   UNL     1       4.116  30.225  53.742  1.00  0.00    -0.026 A 
HETATM    8  C   UNL     1       3.345  30.344  52.462  1.00  0.00     0.051 C 
HETATM    9  C   UNL     1       4.170  31.326  54.607  1.00  0.00     0.023 A 
HETATM   10  C   UNL     1       6.271  29.981  57.288  1.00  0.00     0.035 A 
HETATM   11  C   UNL     1       6.319  31.055  58.183  1.00  0.00     0.039 A 
ENDROOT
BRANCH   6  12
HETATM   12  S   UNL     1       4.935  27.605  53.141  1.00  0.00    -0.096 SA
BRANCH  12  13
HETATM   13  C   UNL     1       6.257  26.706  54.035  1.00  0.00     0.142 C 
HETATM   14  C   UNL     1       7.608  27.216  53.546  1.00  0.00     0.031 C 
BRANCH  13  15
HETATM   15  C   UNL     1       6.194  25.184  53.875  1.00  0.00     0.236 C 
HETATM   16  N   UNL     1       7.387  24.530  54.111  1.00  0.00    -0.326 N 
HETATM   17  H   UNL     1       8.216  25.118  54.082  1.00  0.00     0.169 HD
HETATM   18  O   UNL     1       5.112  24.650  53.633  1.00  0.00    -0.272 OA
BRANCH  16  19
HETATM   19  C   UNL     1       7.621  23.142  54.136  1.00  0.00     0.034 A 
HETATM   20  C   UNL     1       7.877  22.373  53.000  1.00  0.00     0.029 A 
HETATM   21  C   UNL     1       8.094  20.995  53.111  1.00  0.00     0.002 A 
HETATM   22  C   UNL     1       8.051  20.376  54.357  1.00  0.00     0.000 A 
HETATM   23  C   UNL     1       7.790  21.133  55.496  1.00  0.00     0.002 A 
HETATM   24  C   UNL     1       7.575  22.509  55.385  1.00  0.00     0.029 A 
ENDBRANCH  16  19
ENDBRANCH  13  15
ENDBRANCH  12  13
ENDBRANCH   6  12
BRANCH   1  25
HETATM   25  O   UNL     1       5.770  33.212  58.854  1.00  0.00    -0.351 OA
BRANCH  25  26
HETATM   26  C   UNL     1       5.566  32.819  60.210  1.00  0.00     0.171 C 
HETATM   27  C   UNL     1       4.435  33.658  60.777  1.00  0.00     0.034 C 
ENDBRANCH  25  26
ENDBRANCH   1  25
TORSDOF 6
ENDMDL
