MODEL 1
REMARK VINA RESULT:      -8.9      0.000      0.000
REMARK  6 active torsions:
REMARK  status: ('A' for Active; 'I' for Inactive)
REMARK    1  A    between atoms: O_2  and  C_3 
REMARK    2  A    between atoms: C_4  and  N_5 
REMARK       I    between atoms: N_5  and  C_6 
REMARK       I    between atoms: C_6  and  N_7 
REMARK    3  A    between atoms: N_7  and  C_8 
REMARK    4  A    between atoms: C_8  and  C_9 
REMARK    5  A    between atoms: C_9  and  C_10 
REMARK    6  A    between atoms: C_10  and  N_11 
ROOT
HETATM    1  N   UNL     1       7.488  29.002  56.944  1.00  0.00    -0.306 N 
HETATM    2  C   UNL     1       7.055  27.779  57.401  1.00  0.00     0.320 C 
HETATM    3  N   UNL     1       5.774  27.506  56.963  1.00  0.00    -0.343 N 
HETATM    4  O   UNL     1       7.694  27.004  58.097  1.00  0.00    -0.247 OA
HETATM    5  H   UNL     1       6.988  29.420  56.173  1.00  0.00     0.171 HD
HETATM    6  H   UNL     1       5.388  28.137  56.278  1.00  0.00     0.164 HD
ENDROOT
BRANCH   3   7
HETATM    7  C   UNL     1       5.210  26.170  57.010  1.00  0.00     0.126 C 
BRANCH   7   8
HETATM    8  C   UNL     1       5.527  25.264  55.824  1.00  0.00     0.040 C 
BRANCH   8   9
HETATM    9  C   UNL     1       6.678  24.303  56.099  1.00  0.00     0.130 C 
BRANCH   9  10
HETATM   10  N   UNL     1       7.140  23.663  54.875  1.00  0.00    -0.356 N 
HETATM   11  C   UNL     1       7.644  22.381  54.780  1.00  0.00     0.044 A 
HETATM   12  C   UNL     1       7.992  22.181  53.441  1.00  0.00    -0.008 A 
HETATM   13  C   UNL     1       7.837  21.387  55.754  1.00  0.00     0.030 A 
HETATM   14  C   UNL     1       8.546  20.944  53.057  1.00  0.00     0.014 A 
HETATM   15  C   UNL     1       7.679  23.377  52.740  1.00  0.00     0.031 A 
HETATM   16  C   UNL     1       8.736  19.946  54.019  1.00  0.00     0.001 A 
HETATM   17  C   UNL     1       8.386  20.167  55.347  1.00  0.00     0.002 A 
HETATM   18  C   UNL     1       7.156  24.270  53.646  1.00  0.00     0.092 A 
ENDBRANCH   9  10
ENDBRANCH   8   9
ENDBRANCH   7   8
ENDBRANCH   3   7
BRANCH   1  19
HETATM   19  C   UNL     1       8.705  29.642  57.257  1.00  0.00     0.069 A 
HETATM   20  C   UNL     1       8.664  30.727  58.148  1.00  0.00     0.095 A 
HETATM   21  C   UNL     1       9.833  31.364  58.569  1.00  0.00     0.039 A 
HETATM   22  C   UNL     1      11.061  30.942  58.067  1.00  0.00     0.003 A 
HETATM   23  C   UNL     1      11.115  29.884  57.160  1.00  0.00     0.002 A 
HETATM   24  C   UNL     1       9.943  29.234  56.758  1.00  0.00     0.032 A 
BRANCH  20  25
HETATM   25  O   UNL     1       7.460  31.177  58.636  1.00  0.00    -0.354 OA
HETATM   26  C   UNL     1       7.542  31.341  60.055  1.00  0.00     0.210 C 
ENDBRANCH  20  25
ENDBRANCH   1  19
TORSDOF 6
ENDMDL
MODEL 2
REMARK VINA RESULT:      -8.6      1.025      2.002
REMARK  6 active torsions:
REMARK  status: ('A' for Active; 'I' for Inactive)
REMARK    1  A    between atoms: O_2  and  C_3 
REMARK    2  A    between atoms: C_4  and  N_5 
REMARK       I    between atoms: N_5  and  C_6 
REMARK       I    between atoms: C_6  and  N_7 
REMARK    3  A    between atoms: N_7  and  C_8 
REMARK    4  A    between atoms: C_8  and  C_9 
REMARK    5  A    between atoms: C_9  and  C_10 
REMARK    6  A    between atoms: C_10  and  N_11 
ROOT
HETATM    1  N   UNL     1       7.016  29.807  57.780  1.00  0.00    -0.306 N 
HETATM    2  C   UNL     1       6.960  28.434  57.708  1.00  0.00     0.320 C 
HETATM    3  N   UNL     1       5.943  28.017  56.871  1.00  0.00    -0.343 N 
HETATM    4  O   UNL     1       7.701  27.653  58.286  1.00  0.00    -0.247 OA
HETATM    5  H   UNL     1       6.539  30.335  57.064  1.00  0.00     0.171 HD
HETATM    6  H   UNL     1       5.484  28.732  56.329  1.00  0.00     0.164 HD
ENDROOT
BRANCH   3   7
HETATM    7  C   UNL     1       5.875  26.663  56.355  1.00  0.00     0.126 C 
BRANCH   7   8
HETATM    8  C   UNL     1       7.009  26.238  55.427  1.00  0.00     0.040 C 
BRANCH   8   9
HETATM    9  C   UNL     1       7.672  24.935  55.855  1.00  0.00     0.130 C 
BRANCH   9  10
HETATM   10  N   UNL     1       7.803  24.012  54.735  1.00  0.00    -0.356 N 
HETATM   11  C   UNL     1       8.084  22.663  54.834  1.00  0.00     0.044 A 
HETATM   12  C   UNL     1       8.147  22.167  53.529  1.00  0.00    -0.008 A 
HETATM   13  C   UNL     1       8.301  21.843  55.953  1.00  0.00     0.030 A 
HETATM   14  C   UNL     1       8.431  20.801  53.332  1.00  0.00     0.014 A 
HETATM   15  C   UNL     1       7.893  23.254  52.650  1.00  0.00     0.031 A 
HETATM   16  C   UNL     1       8.643  19.974  54.440  1.00  0.00     0.001 A 
HETATM   17  C   UNL     1       8.579  20.490  55.731  1.00  0.00     0.002 A 
HETATM   18  C   UNL     1       7.683  24.375  53.418  1.00  0.00     0.092 A 
ENDBRANCH   9  10
ENDBRANCH   8   9
ENDBRANCH   7   8
ENDBRANCH   3   7
BRANCH   1  19
HETATM   19  C   UNL     1       7.868  30.580  58.596  1.00  0.00     0.069 A 
HETATM   20  C   UNL     1       9.195  30.755  58.174  1.00  0.00     0.095 A 
HETATM   21  C   UNL     1      10.080  31.568  58.885  1.00  0.00     0.039 A 
HETATM   22  C   UNL     1       9.651  32.188  60.055  1.00  0.00     0.003 A 
HETATM   23  C   UNL     1       8.343  32.001  60.502  1.00  0.00     0.002 A 
HETATM   24  C   UNL     1       7.453  31.201  59.774  1.00  0.00     0.032 A 
BRANCH  20  25
HETATM   25  O   UNL     1       9.648  30.132  57.036  1.00  0.00    -0.354 OA
HETATM   26  C   UNL     1      11.033  29.800  57.182  1.00  0.00     0.210 C 
ENDBRANCH  20  25
ENDBRANCH   1  19
TORSDOF 6
ENDMDL
MODEL 3
REMARK VINA RESULT:      -8.5      3.064      5.356
REMARK  6 active torsions:
REMARK  status: ('A' for Active; 'I' for Inactive)
REMARK    1  A    between atoms: O_2  and  C_3 
REMARK    2  A    between atoms: C_4  and  N_5 
REMARK       I    between atoms: N_5  and  C_6 
REMARK       I    between atoms: C_6  and  N_7 
REMARK    3  A    between atoms: N_7  and  C_8 
REMARK    4  A    between atoms: C_8  and  C_9 
REMARK    5  A    between atoms: C_9  and  C_10 
REMARK    6  A    between atoms: C_10  and  N_11 
ROOT
HETATM    1  N   UNL     1       7.300  31.040  61.718  1.00  0.00    -0.306 N 
HETATM    2  C   UNL     1       7.634  31.331  60.416  1.00  0.00     0.320 C 
HETATM    3  N   UNL     1       7.936  30.185  59.708  1.00  0.00    -0.343 N 
HETATM    4  O   UNL     1       7.662  32.445  59.912  1.00  0.00    -0.247 OA
HETATM    5  H   UNL     1       7.055  30.086  61.939  1.00  0.00     0.171 HD
HETATM    6  H   UNL     1       7.743  29.308  60.166  1.00  0.00     0.164 HD
ENDROOT
BRANCH   3   7
HETATM    7  C   UNL     1       7.988  30.164  58.258  1.00  0.00     0.126 C 
BRANCH   7   8
HETATM    8  C   UNL     1       8.520  28.884  57.621  1.00  0.00     0.040 C 
BRANCH   8   9
HETATM    9  C   UNL     1       7.437  27.839  57.387  1.00  0.00     0.130 C 
BRANCH   9  10
HETATM   10  N   UNL     1       7.443  27.366  56.009  1.00  0.00    -0.356 N 
HETATM   11  C   UNL     1       7.359  26.046  55.613  1.00  0.00     0.044 A 
HETATM   12  C   UNL     1       7.429  26.038  54.217  1.00  0.00    -0.008 A 
HETATM   13  C   UNL     1       7.242  24.861  56.357  1.00  0.00     0.030 A 
HETATM   14  C   UNL     1       7.373  24.805  53.537  1.00  0.00     0.014 A 
HETATM   15  C   UNL     1       7.553  27.389  53.791  1.00  0.00     0.031 A 
HETATM   16  C   UNL     1       7.251  23.620  54.270  1.00  0.00     0.001 A 
HETATM   17  C   UNL     1       7.187  23.650  55.660  1.00  0.00     0.002 A 
HETATM   18  C   UNL     1       7.557  28.183  54.914  1.00  0.00     0.092 A 
ENDBRANCH   9  10
ENDBRANCH   8   9
ENDBRANCH   7   8
ENDBRANCH   3   7
BRANCH   1  19
HETATM   19  C   UNL     1       7.017  31.961  62.748  1.00  0.00     0.069 A 
HETATM   20  C   UNL     1       5.669  32.198  63.060  1.00  0.00     0.095 A 
HETATM   21  C   UNL     1       5.306  33.036  64.117  1.00  0.00     0.039 A 
HETATM   22  C   UNL     1       6.298  33.681  64.851  1.00  0.00     0.003 A 
HETATM   23  C   UNL     1       7.641  33.477  64.533  1.00  0.00     0.002 A 
HETATM   24  C   UNL     1       8.000  32.619  63.488  1.00  0.00     0.032 A 
BRANCH  20  25
HETATM   25  O   UNL     1       4.672  31.592  62.333  1.00  0.00    -0.354 OA
HETATM   26  C   UNL     1       3.804  32.586  61.778  1.00  0.00     0.210 C 
ENDBRANCH  20  25
ENDBRANCH   1  19
TORSDOF 6
ENDMDL
MODEL 4
REMARK VINA RESULT:      -8.5      1.827      3.032
REMARK  6 active torsions:
REMARK  status: ('A' for Active; 'I' for Inactive)
REMARK    1  A    between atoms: O_2  and  C_3 
REMARK    2  A    between atoms: C_4  and  N_5 
REMARK       I    between atoms: N_5  and  C_6 
REMARK       I    between atoms: C_6  and  N_7 
REMARK    3  A    between atoms: N_7  and  C_8 
REMARK    4  A    between atoms: C_8  and  C_9 
REMARK    5  A    between atoms: C_9  and  C_10 
REMARK    6  A    between atoms: C_10  and  N_11 
ROOT
HETATM    1  N   UNL     1       8.587  30.891  58.465  1.00  0.00    -0.306 N 
HETATM    2  C   UNL     1       8.337  29.668  57.887  1.00  0.00     0.320 C 
HETATM    3  N   UNL     1       8.507  29.716  56.518  1.00  0.00    -0.343 N 
HETATM    4  O   UNL     1       8.014  28.646  58.476  1.00  0.00    -0.247 OA
HETATM    5  H   UNL     1       9.097  31.572  57.922  1.00  0.00     0.171 HD
HETATM    6  H   UNL     1       8.914  30.559  56.144  1.00  0.00     0.164 HD
ENDROOT
BRANCH   3   7
HETATM    7  C   UNL     1       8.640  28.517  55.713  1.00  0.00     0.126 C 
BRANCH   7   8
HETATM    8  C   UNL     1       7.363  28.003  55.054  1.00  0.00     0.040 C 
BRANCH   8   9
HETATM    9  C   UNL     1       7.045  26.558  55.419  1.00  0.00     0.130 C 
BRANCH   9  10
HETATM   10  N   UNL     1       7.340  25.654  54.316  1.00  0.00    -0.356 N 
HETATM   11  C   UNL     1       7.488  24.284  54.417  1.00  0.00     0.044 A 
HETATM   12  C   UNL     1       7.790  23.815  53.136  1.00  0.00    -0.008 A 
HETATM   13  C   UNL     1       7.398  23.423  55.522  1.00  0.00     0.030 A 
HETATM   14  C   UNL     1       8.004  22.434  52.947  1.00  0.00     0.014 A 
HETATM   15  C   UNL     1       7.814  24.939  52.267  1.00  0.00     0.031 A 
HETATM   16  C   UNL     1       7.910  21.568  54.041  1.00  0.00     0.001 A 
HETATM   17  C   UNL     1       7.612  22.057  55.309  1.00  0.00     0.002 A 
HETATM   18  C   UNL     1       7.532  26.056  53.019  1.00  0.00     0.092 A 
ENDBRANCH   9  10
ENDBRANCH   8   9
ENDBRANCH   7   8
ENDBRANCH   3   7
BRANCH   1  19
HETATM   19  C   UNL     1       8.434  31.234  59.824  1.00  0.00     0.069 A 
HETATM   20  C   UNL     1       7.392  32.111  60.164  1.00  0.00     0.095 A 
HETATM   21  C   UNL     1       7.125  32.440  61.495  1.00  0.00     0.039 A 
HETATM   22  C   UNL     1       7.931  31.917  62.503  1.00  0.00     0.003 A 
HETATM   23  C   UNL     1       8.987  31.066  62.179  1.00  0.00     0.002 A 
HETATM   24  C   UNL     1       9.237  30.723  60.845  1.00  0.00     0.032 A 
BRANCH  20  25
HETATM   25  O   UNL     1       6.600  32.660  59.183  1.00  0.00    -0.354 OA
HETATM   26  C   UNL     1       5.232  32.308  59.411  1.00  0.00     0.210 C 
ENDBRANCH  20  25
ENDBRANCH   1  19
TORSDOF 6
ENDMDL
MODEL 5
REMARK VINA RESULT:      -8.5      2.606      4.945
REMARK  6 active torsions:
REMARK  status: ('A' for Active; 'I' for Inactive)
REMARK    1  A    between atoms: O_2  and  C_3 
REMARK    2  A    between atoms: C_4  and  N_5 
REMARK       I    between atoms: N_5  and  C_6 
REMARK       I    between atoms: C_6  and  N_7 
REMARK    3  A    between atoms: N_7  and  C_8 
REMARK    4  A    between atoms: C_8  and  C_9 
REMARK    5  A    between atoms: C_9  and  C_10 
REMARK    6  A    between atoms: C_10  and  N_11 
ROOT
HETATM    1  N   UNL     1       7.248  30.902  60.967  1.00  0.00    -0.306 N 
HETATM    2  C   UNL     1       7.869  31.028  59.746  1.00  0.00     0.320 C 
HETATM    3  N   UNL     1       7.871  29.830  59.060  1.00  0.00    -0.343 N 
HETATM    4  O   UNL     1       8.359  32.051  59.290  1.00  0.00    -0.247 OA
HETATM    5  H   UNL     1       6.658  30.097  61.114  1.00  0.00     0.171 HD
HETATM    6  H   UNL     1       7.317  29.085  59.452  1.00  0.00     0.164 HD
ENDROOT
BRANCH   3   7
HETATM    7  C   UNL     1       8.148  29.755  57.637  1.00  0.00     0.126 C 
BRANCH   7   8
HETATM    8  C   UNL     1       8.393  28.360  57.071  1.00  0.00     0.040 C 
BRANCH   8   9
HETATM    9  C   UNL     1       7.239  27.853  56.216  1.00  0.00     0.130 C 
BRANCH   9  10
HETATM   10  N   UNL     1       7.299  26.408  56.043  1.00  0.00    -0.356 N 
HETATM   11  C   UNL     1       7.460  25.749  54.840  1.00  0.00     0.044 A 
HETATM   12  C   UNL     1       7.435  24.380  55.123  1.00  0.00    -0.008 A 
HETATM   13  C   UNL     1       7.612  26.234  53.531  1.00  0.00     0.030 A 
HETATM   14  C   UNL     1       7.572  23.462  54.063  1.00  0.00     0.014 A 
HETATM   15  C   UNL     1       7.258  24.241  56.527  1.00  0.00     0.031 A 
HETATM   16  C   UNL     1       7.730  23.936  52.757  1.00  0.00     0.001 A 
HETATM   17  C   UNL     1       7.748  25.303  52.497  1.00  0.00     0.002 A 
HETATM   18  C   UNL     1       7.179  25.503  57.066  1.00  0.00     0.092 A 
ENDBRANCH   9  10
ENDBRANCH   8   9
ENDBRANCH   7   8
ENDBRANCH   3   7
BRANCH   1  19
HETATM   19  C   UNL     1       7.133  31.891  61.966  1.00  0.00     0.069 A 
HETATM   20  C   UNL     1       5.983  32.695  61.962  1.00  0.00     0.095 A 
HETATM   21  C   UNL     1       5.757  33.644  62.961  1.00  0.00     0.039 A 
HETATM   22  C   UNL     1       6.709  33.825  63.961  1.00  0.00     0.003 A 
HETATM   23  C   UNL     1       7.871  33.052  63.962  1.00  0.00     0.002 A 
HETATM   24  C   UNL     1       8.082  32.088  62.971  1.00  0.00     0.032 A 
BRANCH  20  25
HETATM   25  O   UNL     1       5.041  32.553  60.970  1.00  0.00    -0.354 OA
HETATM   26  C   UNL     1       3.784  33.072  61.415  1.00  0.00     0.210 C 
ENDBRANCH  20  25
ENDBRANCH   1  19
TORSDOF 6
ENDMDL
MODEL 6
REMARK VINA RESULT:      -8.4      2.217      9.192
REMARK  6 active torsions:
REMARK  status: ('A' for Active; 'I' for Inactive)
REMARK    1  A    between atoms: O_2  and  C_3 
REMARK    2  A    between atoms: C_4  and  N_5 
REMARK       I    between atoms: N_5  and  C_6 
REMARK       I    between atoms: C_6  and  N_7 
REMARK    3  A    between atoms: N_7  and  C_8 
REMARK    4  A    between atoms: C_8  and  C_9 
REMARK    5  A    between atoms: C_9  and  C_10 
REMARK    6  A    between atoms: C_10  and  N_11 
ROOT
HETATM    1  N   UNL     1       8.633  24.086  56.005  1.00  0.00    -0.306 N 
HETATM    2  C   UNL     1       7.693  24.883  56.616  1.00  0.00     0.320 C 
HETATM    3  N   UNL     1       8.276  25.997  57.187  1.00  0.00    -0.343 N 
HETATM    4  O   UNL     1       6.490  24.671  56.661  1.00  0.00    -0.247 OA
HETATM    5  H   UNL     1       9.535  24.492  55.805  1.00  0.00     0.171 HD
HETATM    6  H   UNL     1       9.247  26.158  56.972  1.00  0.00     0.164 HD
ENDROOT
BRANCH   3   7
HETATM    7  C   UNL     1       7.499  27.154  57.591  1.00  0.00     0.126 C 
BRANCH   7   8
HETATM    8  C   UNL     1       7.920  28.492  56.990  1.00  0.00     0.040 C 
BRANCH   8   9
HETATM    9  C   UNL     1       8.744  29.342  57.948  1.00  0.00     0.130 C 
BRANCH   9  10
HETATM   10  N   UNL     1       7.925  30.355  58.600  1.00  0.00    -0.356 N 
HETATM   11  C   UNL     1       8.172  30.913  59.839  1.00  0.00     0.044 A 
HETATM   12  C   UNL     1       7.133  31.812  60.092  1.00  0.00    -0.008 A 
HETATM   13  C   UNL     1       9.208  30.696  60.762  1.00  0.00     0.030 A 
HETATM   14  C   UNL     1       7.128  32.527  61.307  1.00  0.00     0.014 A 
HETATM   15  C   UNL     1       6.261  31.778  58.969  1.00  0.00     0.031 A 
HETATM   16  C   UNL     1       8.159  32.322  62.230  1.00  0.00     0.001 A 
HETATM   17  C   UNL     1       9.182  31.418  61.960  1.00  0.00     0.002 A 
HETATM   18  C   UNL     1       6.774  30.876  58.068  1.00  0.00     0.092 A 
ENDBRANCH   9  10
ENDBRANCH   8   9
ENDBRANCH   7   8
ENDBRANCH   3   7
BRANCH   1  19
HETATM   19  C   UNL     1       8.416  22.833  55.395  1.00  0.00     0.069 A 
HETATM   20  C   UNL     1       8.195  22.811  54.009  1.00  0.00     0.095 A 
HETATM   21  C   UNL     1       8.048  21.606  53.318  1.00  0.00     0.039 A 
HETATM   22  C   UNL     1       8.083  20.405  54.021  1.00  0.00     0.003 A 
HETATM   23  C   UNL     1       8.274  20.413  55.403  1.00  0.00     0.002 A 
HETATM   24  C   UNL     1       8.442  21.622  56.088  1.00  0.00     0.032 A 
BRANCH  20  25
HETATM   25  O   UNL     1       8.131  23.985  53.298  1.00  0.00    -0.354 OA
HETATM   26  C   UNL     1       6.786  24.221  52.869  1.00  0.00     0.210 C 
ENDBRANCH  20  25
ENDBRANCH   1  19
TORSDOF 6
ENDMDL
MODEL 7
REMARK VINA RESULT:      -8.4      1.669      2.900
REMARK  6 active torsions:
REMARK  status: ('A' for Active; 'I' for Inactive)
REMARK    1  A    between atoms: O_2  and  C_3 
REMARK    2  A    between atoms: C_4  and  N_5 
REMARK       I    between atoms: N_5  and  C_6 
REMARK       I    between atoms: C_6  and  N_7 
REMARK    3  A    between atoms: N_7  and  C_8 
REMARK    4  A    between atoms: C_8  and  C_9 
REMARK    5  A    between atoms: C_9  and  C_10 
REMARK    6  A    between atoms: C_10  and  N_11 
ROOT
HETATM    1  N   UNL     1       7.020  29.312  55.715  1.00  0.00    -0.306 N 
HETATM    2  C   UNL     1       6.100  28.329  55.435  1.00  0.00     0.320 C 
HETATM    3  N   UNL     1       6.089  28.022  54.088  1.00  0.00    -0.343 N 
HETATM    4  O   UNL     1       5.375  27.769  56.245  1.00  0.00    -0.247 OA
HETATM    5  H   UNL     1       7.733  29.499  55.025  1.00  0.00     0.171 HD
HETATM    6  H   UNL     1       6.821  28.429  53.528  1.00  0.00     0.164 HD
ENDROOT
BRANCH   3   7
HETATM    7  C   UNL     1       5.475  26.811  53.577  1.00  0.00     0.126 C 
BRANCH   7   8
HETATM    8  C   UNL     1       6.369  25.905  52.736  1.00  0.00     0.040 C 
BRANCH   8   9
HETATM    9  C   UNL     1       7.758  25.717  53.334  1.00  0.00     0.130 C 
BRANCH   9  10
HETATM   10  N   UNL     1       7.759  24.686  54.362  1.00  0.00    -0.356 N 
HETATM   11  C   UNL     1       7.826  23.325  54.136  1.00  0.00     0.044 A 
HETATM   12  C   UNL     1       7.771  22.704  55.387  1.00  0.00    -0.008 A 
HETATM   13  C   UNL     1       7.916  22.588  52.944  1.00  0.00     0.030 A 
HETATM   14  C   UNL     1       7.814  21.297  55.453  1.00  0.00     0.014 A 
HETATM   15  C   UNL     1       7.674  23.731  56.365  1.00  0.00     0.031 A 
HETATM   16  C   UNL     1       7.909  20.555  54.271  1.00  0.00     0.001 A 
HETATM   17  C   UNL     1       7.958  21.193  53.036  1.00  0.00     0.002 A 
HETATM   18  C   UNL     1       7.670  24.938  55.707  1.00  0.00     0.092 A 
ENDBRANCH   9  10
ENDBRANCH   8   9
ENDBRANCH   7   8
ENDBRANCH   3   7
BRANCH   1  19
HETATM   19  C   UNL     1       7.246  29.931  56.962  1.00  0.00     0.069 A 
HETATM   20  C   UNL     1       8.463  29.670  57.611  1.00  0.00     0.095 A 
HETATM   21  C   UNL     1       8.796  30.303  58.810  1.00  0.00     0.039 A 
HETATM   22  C   UNL     1       7.889  31.183  59.394  1.00  0.00     0.003 A 
HETATM   23  C   UNL     1       6.664  31.431  58.775  1.00  0.00     0.002 A 
HETATM   24  C   UNL     1       6.344  30.810  57.562  1.00  0.00     0.032 A 
BRANCH  20  25
HETATM   25  O   UNL     1       9.363  28.785  57.065  1.00  0.00    -0.354 OA
HETATM   26  C   UNL     1      10.572  29.471  56.724  1.00  0.00     0.210 C 
ENDBRANCH  20  25
ENDBRANCH   1  19
TORSDOF 6
ENDMDL
MODEL 8
REMARK VINA RESULT:      -8.3      5.081      7.199
REMARK  6 active torsions:
REMARK  status: ('A' for Active; 'I' for Inactive)
REMARK    1  A    between atoms: O_2  and  C_3 
REMARK    2  A    between atoms: C_4  and  N_5 
REMARK       I    between atoms: N_5  and  C_6 
REMARK       I    between atoms: C_6  and  N_7 
REMARK    3  A    between atoms: N_7  and  C_8 
REMARK    4  A    between atoms: C_8  and  C_9 
REMARK    5  A    between atoms: C_9  and  C_10 
REMARK    6  A    between atoms: C_10  and  N_11 
ROOT
HETATM    1  N   UNL     1       4.067  27.483  51.105  1.00  0.00    -0.306 N 
HETATM    2  C   UNL     1       4.956  26.663  51.761  1.00  0.00     0.320 C 
HETATM    3  N   UNL     1       4.392  26.123  52.900  1.00  0.00    -0.343 N 
HETATM    4  O   UNL     1       6.100  26.414  51.409  1.00  0.00    -0.247 OA
HETATM    5  H   UNL     1       3.088  27.398  51.339  1.00  0.00     0.171 HD
HETATM    6  H   UNL     1       3.403  26.271  53.027  1.00  0.00     0.164 HD
ENDROOT
BRANCH   3   7
HETATM    7  C   UNL     1       4.973  24.983  53.583  1.00  0.00     0.126 C 
BRANCH   7   8
HETATM    8  C   UNL     1       5.837  25.296  54.801  1.00  0.00     0.040 C 
BRANCH   8   9
HETATM    9  C   UNL     1       7.321  25.049  54.558  1.00  0.00     0.130 C 
BRANCH   9  10
HETATM   10  N   UNL     1       7.778  23.842  55.234  1.00  0.00    -0.356 N 
HETATM   11  C   UNL     1       8.025  22.626  54.627  1.00  0.00     0.044 A 
HETATM   12  C   UNL     1       8.413  21.742  55.638  1.00  0.00    -0.008 A 
HETATM   13  C   UNL     1       7.927  22.224  53.286  1.00  0.00     0.030 A 
HETATM   14  C   UNL     1       8.723  20.410  55.298  1.00  0.00     0.014 A 
HETATM   15  C   UNL     1       8.395  22.464  56.862  1.00  0.00     0.031 A 
HETATM   16  C   UNL     1       8.634  20.001  53.963  1.00  0.00     0.001 A 
HETATM   17  C   UNL     1       8.241  20.897  52.973  1.00  0.00     0.002 A 
HETATM   18  C   UNL     1       8.002  23.752  56.584  1.00  0.00     0.092 A 
ENDBRANCH   9  10
ENDBRANCH   8   9
ENDBRANCH   7   8
ENDBRANCH   3   7
BRANCH   1  19
HETATM   19  C   UNL     1       4.321  28.264  49.958  1.00  0.00     0.069 A 
HETATM   20  C   UNL     1       3.751  27.848  48.744  1.00  0.00     0.095 A 
HETATM   21  C   UNL     1       3.891  28.606  47.580  1.00  0.00     0.039 A 
HETATM   22  C   UNL     1       4.641  29.779  47.613  1.00  0.00     0.003 A 
HETATM   23  C   UNL     1       5.236  30.190  48.806  1.00  0.00     0.002 A 
HETATM   24  C   UNL     1       5.075  29.438  49.975  1.00  0.00     0.032 A 
BRANCH  20  25
HETATM   25  O   UNL     1       3.029  26.680  48.682  1.00  0.00    -0.354 OA
HETATM   26  C   UNL     1       3.674  25.755  47.801  1.00  0.00     0.210 C 
ENDBRANCH  20  25
ENDBRANCH   1  19
TORSDOF 6
ENDMDL
MODEL 9
REMARK VINA RESULT:      -8.3      4.710      6.511
REMARK  6 active torsions:
REMARK  status: ('A' for Active; 'I' for Inactive)
REMARK    1  A    between atoms: O_2  and  C_3 
REMARK    2  A    between atoms: C_4  and  N_5 
REMARK       I    between atoms: N_5  and  C_6 
REMARK       I    between atoms: C_6  and  N_7 
REMARK    3  A    between atoms: N_7  and  C_8 
REMARK    4  A    between atoms: C_8  and  C_9 
REMARK    5  A    between atoms: C_9  and  C_10 
REMARK    6  A    between atoms: C_10  and  N_11 
ROOT
HETATM    1  N   UNL     1       4.011  27.397  51.604  1.00  0.00    -0.306 N 
HETATM    2  C   UNL     1       4.857  27.769  52.623  1.00  0.00     0.320 C 
HETATM    3  N   UNL     1       4.308  27.484  53.858  1.00  0.00    -0.343 N 
HETATM    4  O   UNL     1       5.961  28.278  52.493  1.00  0.00    -0.247 OA
HETATM    5  H   UNL     1       3.264  26.755  51.823  1.00  0.00     0.171 HD
HETATM    6  H   UNL     1       3.463  26.934  53.860  1.00  0.00     0.164 HD
ENDROOT
BRANCH   3   7
HETATM    7  C   UNL     1       5.105  27.456  55.070  1.00  0.00     0.126 C 
BRANCH   7   8
HETATM    8  C   UNL     1       5.615  26.087  55.510  1.00  0.00     0.040 C 
BRANCH   8   9
HETATM    9  C   UNL     1       7.115  25.916  55.304  1.00  0.00     0.130 C 
BRANCH   9  10
HETATM   10  N   UNL     1       7.401  24.954  54.248  1.00  0.00    -0.356 N 
HETATM   11  C   UNL     1       7.556  23.593  54.421  1.00  0.00     0.044 A 
HETATM   12  C   UNL     1       7.845  23.056  53.163  1.00  0.00    -0.008 A 
HETATM   13  C   UNL     1       7.482  22.792  55.572  1.00  0.00     0.030 A 
HETATM   14  C   UNL     1       8.062  21.668  53.047  1.00  0.00     0.014 A 
HETATM   15  C   UNL     1       7.854  24.132  52.235  1.00  0.00     0.031 A 
HETATM   16  C   UNL     1       7.984  20.861  54.187  1.00  0.00     0.001 A 
HETATM   17  C   UNL     1       7.699  21.418  55.430  1.00  0.00     0.002 A 
HETATM   18  C   UNL     1       7.576  25.286  52.929  1.00  0.00     0.092 A 
ENDBRANCH   9  10
ENDBRANCH   8   9
ENDBRANCH   7   8
ENDBRANCH   3   7
BRANCH   1  19
HETATM   19  C   UNL     1       4.203  27.610  50.223  1.00  0.00     0.069 A 
HETATM   20  C   UNL     1       3.923  28.887  49.713  1.00  0.00     0.095 A 
HETATM   21  C   UNL     1       4.160  29.201  48.373  1.00  0.00     0.039 A 
HETATM   22  C   UNL     1       4.648  28.219  47.516  1.00  0.00     0.003 A 
HETATM   23  C   UNL     1       4.905  26.937  48.002  1.00  0.00     0.002 A 
HETATM   24  C   UNL     1       4.686  26.633  49.351  1.00  0.00     0.032 A 
BRANCH  20  25
HETATM   25  O   UNL     1       3.416  29.866  50.535  1.00  0.00    -0.354 OA
HETATM   26  C   UNL     1       4.326  30.969  50.594  1.00  0.00     0.210 C 
ENDBRANCH  20  25
ENDBRANCH   1  19
TORSDOF 6
ENDMDL
MODEL 10
REMARK VINA RESULT:      -8.2      2.122      8.048
REMARK  6 active torsions:
REMARK  status: ('A' for Active; 'I' for Inactive)
REMARK    1  A    between atoms: O_2  and  C_3 
REMARK    2  A    between atoms: C_4  and  N_5 
REMARK       I    between atoms: N_5  and  C_6 
REMARK       I    between atoms: C_6  and  N_7 
REMARK    3  A    between atoms: N_7  and  C_8 
REMARK    4  A    between atoms: C_8  and  C_9 
REMARK    5  A    between atoms: C_9  and  C_10 
REMARK    6  A    between atoms: C_10  and  N_11 
ROOT
HETATM    1  N   UNL     1       7.786  24.875  53.953  1.00  0.00    -0.306 N 
HETATM    2  C   UNL     1       6.755  25.495  54.621  1.00  0.00     0.320 C 
HETATM    3  N   UNL     1       6.818  26.867  54.477  1.00  0.00    -0.343 N 
HETATM    4  O   UNL     1       5.875  24.938  55.260  1.00  0.00    -0.247 OA
HETATM    5  H   UNL     1       8.281  25.409  53.253  1.00  0.00     0.171 HD
HETATM    6  H   UNL     1       7.491  27.220  53.815  1.00  0.00     0.164 HD
ENDROOT
BRANCH   3   7
HETATM    7  C   UNL     1       5.692  27.728  54.783  1.00  0.00     0.126 C 
BRANCH   7   8
HETATM    8  C   UNL     1       6.008  28.998  55.567  1.00  0.00     0.040 C 
BRANCH   8   9
HETATM    9  C   UNL     1       6.212  28.745  57.055  1.00  0.00     0.130 C 
BRANCH   9  10
HETATM   10  N   UNL     1       7.069  29.758  57.655  1.00  0.00    -0.356 N 
HETATM   11  C   UNL     1       8.440  29.840  57.508  1.00  0.00     0.044 A 
HETATM   12  C   UNL     1       8.863  30.935  58.267  1.00  0.00    -0.008 A 
HETATM   13  C   UNL     1       9.343  29.042  56.787  1.00  0.00     0.030 A 
HETATM   14  C   UNL     1      10.236  31.250  58.305  1.00  0.00     0.014 A 
HETATM   15  C   UNL     1       7.708  31.505  58.868  1.00  0.00     0.031 A 
HETATM   16  C   UNL     1      11.143  30.464  57.586  1.00  0.00     0.001 A 
HETATM   17  C   UNL     1      10.700  29.376  56.839  1.00  0.00     0.002 A 
HETATM   18  C   UNL     1       6.620  30.763  58.473  1.00  0.00     0.092 A 
ENDBRANCH   9  10
ENDBRANCH   8   9
ENDBRANCH   7   8
ENDBRANCH   3   7
BRANCH   1  19
HETATM   19  C   UNL     1       8.086  23.497  53.947  1.00  0.00     0.069 A 
HETATM   20  C   UNL     1       8.751  22.968  55.063  1.00  0.00     0.095 A 
HETATM   21  C   UNL     1       9.016  21.600  55.169  1.00  0.00     0.039 A 
HETATM   22  C   UNL     1       8.646  20.749  54.131  1.00  0.00     0.003 A 
HETATM   23  C   UNL     1       8.009  21.266  53.002  1.00  0.00     0.002 A 
HETATM   24  C   UNL     1       7.727  22.634  52.911  1.00  0.00     0.032 A 
BRANCH  20  25
HETATM   25  O   UNL     1       9.149  23.793  56.089  1.00  0.00    -0.354 OA
HETATM   26  C   UNL     1       8.444  23.452  57.287  1.00  0.00     0.210 C 
ENDBRANCH  20  25
ENDBRANCH   1  19
TORSDOF 6
ENDMDL
