MODEL 1
REMARK VINA RESULT:      -9.2      0.000      0.000
REMARK  8 active torsions:
REMARK  status: ('A' for Active; 'I' for Inactive)
REMARK    1  A    between atoms: O_2  and  C_3 
REMARK    2  A    between atoms: C_5  and  N_6 
REMARK       I    between atoms: N_6  and  C_7 
REMARK    3  A    between atoms: C_7  and  C_8 
REMARK       I    between atoms: C_8  and  N_9 
REMARK    4  A    between atoms: N_9  and  C_10 
REMARK    5  A    between atoms: C_10  and  C_11 
REMARK    6  A    between atoms: C_11  and  S_12 
REMARK    7  A    between atoms: S_12  and  C_13 
REMARK    8  A    between atoms: C_26  and  O_27 
ROOT
HETATM    1  C   UNL     1       6.346  28.156  56.315  1.00  0.00     0.309 C 
HETATM    2  N   UNL     1       6.094  26.801  56.290  1.00  0.00    -0.351 N 
HETATM    3  O   UNL     1       5.989  28.973  55.477  1.00  0.00    -0.262 OA
HETATM    4  H   UNL     1       6.575  26.264  57.008  1.00  0.00     0.162 HD
ENDROOT
BRANCH   1   5
HETATM    5  C   UNL     1       7.184  28.609  57.531  1.00  0.00     0.314 C 
HETATM    6  N   UNL     1       7.201  29.977  57.666  1.00  0.00    -0.316 N 
HETATM    7  H   UNL     1       6.644  30.496  56.987  1.00  0.00     0.169 HD
HETATM    8  O   UNL     1       7.722  27.755  58.222  1.00  0.00    -0.262 OA
BRANCH   6   9
HETATM    9  C   UNL     1       7.878  30.765  58.617  1.00  0.00     0.071 A 
HETATM   10  C   UNL     1       7.251  31.328  59.733  1.00  0.00     0.069 A 
HETATM   11  C   UNL     1       7.990  32.083  60.647  1.00  0.00     0.070 A 
HETATM   12  C   UNL     1       9.350  32.297  60.421  1.00  0.00     0.039 A 
HETATM   13  C   UNL     1       9.988  31.739  59.311  1.00  0.00     0.042 A 
HETATM   14  C   UNL     1       9.260  30.965  58.408  1.00  0.00     0.095 A 
BRANCH  11  15
HETATM   15  O   UNL     1       7.501  32.669  61.783  1.00  0.00    -0.356 OA
HETATM   16  C   UNL     1       8.134  32.307  63.006  1.00  0.00     0.210 C 
ENDBRANCH  11  15
BRANCH  14  17
HETATM   17  O   UNL     1       9.782  30.359  57.289  1.00  0.00    -0.354 OA
HETATM   18  C   UNL     1      11.152  29.980  57.336  1.00  0.00     0.210 C 
ENDBRANCH  14  17
ENDBRANCH   6   9
ENDBRANCH   1   5
BRANCH   2  19
HETATM   19  C   UNL     1       5.534  26.150  55.120  1.00  0.00     0.144 C 
BRANCH  19  20
HETATM   20  C   UNL     1       6.558  25.406  54.203  1.00  0.00     0.033 C 
HETATM   21  C   UNL     1       5.809  24.310  53.412  1.00  0.00     0.049 C 
HETATM   22  C   UNL     1       4.898  24.911  52.343  1.00  0.00     0.169 C 
HETATM   23  O   UNL     1       5.629  25.777  51.479  1.00  0.00    -0.391 OA
HETATM   24  C   UNL     1       6.239  26.870  52.163  1.00  0.00     0.169 C 
HETATM   25  C   UNL     1       7.234  26.364  53.203  1.00  0.00     0.049 C 
BRANCH  20  26
HETATM   26  S   UNL     1       7.823  24.662  55.373  1.00  0.00    -0.118 SA
BRANCH  26  27
HETATM   27  C   UNL     1       7.969  22.973  54.827  1.00  0.00     0.001 A 
HETATM   28  C   UNL     1       8.477  22.680  53.559  1.00  0.00     0.018 A 
HETATM   29  C   UNL     1       8.621  21.354  53.145  1.00  0.00     0.001 A 
HETATM   30  C   UNL     1       8.273  20.313  54.004  1.00  0.00     0.000 A 
HETATM   31  C   UNL     1       7.795  20.597  55.281  1.00  0.00     0.001 A 
HETATM   32  C   UNL     1       7.653  21.923  55.696  1.00  0.00     0.018 A 
ENDBRANCH  26  27
ENDBRANCH  20  26
ENDBRANCH  19  20
ENDBRANCH   2  19
TORSDOF 8
ENDMDL
MODEL 2
REMARK VINA RESULT:      -8.7      2.689      4.800
REMARK  8 active torsions:
REMARK  status: ('A' for Active; 'I' for Inactive)
REMARK    1  A    between atoms: O_2  and  C_3 
REMARK    2  A    between atoms: C_5  and  N_6 
REMARK       I    between atoms: N_6  and  C_7 
REMARK    3  A    between atoms: C_7  and  C_8 
REMARK       I    between atoms: C_8  and  N_9 
REMARK    4  A    between atoms: N_9  and  C_10 
REMARK    5  A    between atoms: C_10  and  C_11 
REMARK    6  A    between atoms: C_11  and  S_12 
REMARK    7  A    between atoms: S_12  and  C_13 
REMARK    8  A    between atoms: C_26  and  O_27 
ROOT
HETATM    1  C   UNL     1       5.087  31.557  58.253  1.00  0.00     0.309 C 
HETATM    2  N   UNL     1       6.228  30.838  57.971  1.00  0.00    -0.351 N 
HETATM    3  O   UNL     1       4.059  31.571  57.590  1.00  0.00    -0.262 OA
HETATM    4  H   UNL     1       7.025  31.048  58.568  1.00  0.00     0.162 HD
ENDROOT
BRANCH   1   5
HETATM    5  C   UNL     1       5.199  32.425  59.527  1.00  0.00     0.314 C 
HETATM    6  N   UNL     1       5.871  31.776  60.534  1.00  0.00    -0.316 N 
HETATM    7  H   UNL     1       6.229  30.849  60.303  1.00  0.00     0.169 HD
HETATM    8  O   UNL     1       4.708  33.545  59.517  1.00  0.00    -0.262 OA
BRANCH   6   9
HETATM    9  C   UNL     1       6.141  32.215  61.845  1.00  0.00     0.071 A 
HETATM   10  C   UNL     1       5.141  32.464  62.792  1.00  0.00     0.069 A 
HETATM   11  C   UNL     1       5.483  32.879  64.081  1.00  0.00     0.070 A 
HETATM   12  C   UNL     1       6.826  33.073  64.408  1.00  0.00     0.039 A 
HETATM   13  C   UNL     1       7.833  32.827  63.473  1.00  0.00     0.042 A 
HETATM   14  C   UNL     1       7.499  32.390  62.191  1.00  0.00     0.095 A 
BRANCH  11  15
HETATM   15  O   UNL     1       4.606  33.137  65.099  1.00  0.00    -0.356 OA
HETATM   16  C   UNL     1       5.084  33.962  66.155  1.00  0.00     0.210 C 
ENDBRANCH  11  15
BRANCH  14  17
HETATM   17  O   UNL     1       8.402  32.107  61.194  1.00  0.00    -0.354 OA
HETATM   18  C   UNL     1       9.309  31.035  61.425  1.00  0.00     0.210 C 
ENDBRANCH  14  17
ENDBRANCH   6   9
ENDBRANCH   1   5
BRANCH   2  19
HETATM   19  C   UNL     1       6.407  30.155  56.702  1.00  0.00     0.144 C 
BRANCH  19  20
HETATM   20  C   UNL     1       7.038  28.728  56.784  1.00  0.00     0.033 C 
HETATM   21  C   UNL     1       7.887  28.489  55.516  1.00  0.00     0.049 C 
HETATM   22  C   UNL     1       9.160  29.332  55.523  1.00  0.00     0.169 C 
HETATM   23  O   UNL     1       9.915  29.107  56.711  1.00  0.00    -0.391 OA
HETATM   24  C   UNL     1       9.199  29.430  57.901  1.00  0.00     0.169 C 
HETATM   25  C   UNL     1       7.944  28.572  58.022  1.00  0.00     0.049 C 
BRANCH  20  26
HETATM   26  S   UNL     1       5.584  27.546  56.868  1.00  0.00    -0.118 SA
BRANCH  26  27
HETATM   27  C   UNL     1       6.220  26.035  56.170  1.00  0.00     0.001 A 
HETATM   28  C   UNL     1       7.033  25.191  56.932  1.00  0.00     0.018 A 
HETATM   29  C   UNL     1       7.505  23.992  56.394  1.00  0.00     0.001 A 
HETATM   30  C   UNL     1       7.151  23.621  55.097  1.00  0.00     0.000 A 
HETATM   31  C   UNL     1       6.317  24.443  54.343  1.00  0.00     0.001 A 
HETATM   32  C   UNL     1       5.843  25.642  54.882  1.00  0.00     0.018 A 
ENDBRANCH  26  27
ENDBRANCH  20  26
ENDBRANCH  19  20
ENDBRANCH   2  19
TORSDOF 8
ENDMDL
MODEL 3
REMARK VINA RESULT:      -8.7      2.246      3.528
REMARK  8 active torsions:
REMARK  status: ('A' for Active; 'I' for Inactive)
REMARK    1  A    between atoms: O_2  and  C_3 
REMARK    2  A    between atoms: C_5  and  N_6 
REMARK       I    between atoms: N_6  and  C_7 
REMARK    3  A    between atoms: C_7  and  C_8 
REMARK       I    between atoms: C_8  and  N_9 
REMARK    4  A    between atoms: N_9  and  C_10 
REMARK    5  A    between atoms: C_10  and  C_11 
REMARK    6  A    between atoms: C_11  and  S_12 
REMARK    7  A    between atoms: S_12  and  C_13 
REMARK    8  A    between atoms: C_26  and  O_27 
ROOT
HETATM    1  C   UNL     1       5.473  30.811  57.348  1.00  0.00     0.309 C 
HETATM    2  N   UNL     1       5.678  29.473  57.608  1.00  0.00    -0.351 N 
HETATM    3  O   UNL     1       4.926  31.280  56.361  1.00  0.00    -0.262 OA
HETATM    4  H   UNL     1       6.260  29.279  58.420  1.00  0.00     0.162 HD
ENDROOT
BRANCH   1   5
HETATM    5  C   UNL     1       6.038  31.748  58.439  1.00  0.00     0.314 C 
HETATM    6  N   UNL     1       6.531  31.049  59.515  1.00  0.00    -0.316 N 
HETATM    7  H   UNL     1       6.493  30.032  59.438  1.00  0.00     0.169 HD
HETATM    8  O   UNL     1       5.998  32.957  58.252  1.00  0.00    -0.262 OA
BRANCH   6   9
HETATM    9  C   UNL     1       7.087  31.541  60.712  1.00  0.00     0.071 A 
HETATM   10  C   UNL     1       6.320  32.090  61.745  1.00  0.00     0.069 A 
HETATM   11  C   UNL     1       6.938  32.541  62.914  1.00  0.00     0.070 A 
HETATM   12  C   UNL     1       8.327  32.468  63.030  1.00  0.00     0.039 A 
HETATM   13  C   UNL     1       9.103  31.921  62.006  1.00  0.00     0.042 A 
HETATM   14  C   UNL     1       8.490  31.448  60.847  1.00  0.00     0.095 A 
BRANCH  11  15
HETATM   15  O   UNL     1       6.303  33.078  64.001  1.00  0.00    -0.356 OA
HETATM   16  C   UNL     1       7.137  33.595  65.031  1.00  0.00     0.210 C 
ENDBRANCH  11  15
BRANCH  14  17
HETATM   17  O   UNL     1       9.149  30.882  59.781  1.00  0.00    -0.354 OA
HETATM   18  C   UNL     1       9.869  31.759  58.923  1.00  0.00     0.210 C 
ENDBRANCH  14  17
ENDBRANCH   6   9
ENDBRANCH   1   5
BRANCH   2  19
HETATM   19  C   UNL     1       5.437  28.454  56.603  1.00  0.00     0.144 C 
BRANCH  19  20
HETATM   20  C   UNL     1       6.539  27.353  56.476  1.00  0.00     0.033 C 
HETATM   21  C   UNL     1       7.338  27.600  55.177  1.00  0.00     0.049 C 
HETATM   22  C   UNL     1       8.225  28.839  55.288  1.00  0.00     0.169 C 
HETATM   23  O   UNL     1       9.081  28.752  56.424  1.00  0.00    -0.391 OA
HETATM   24  C   UNL     1       8.372  28.640  57.656  1.00  0.00     0.169 C 
HETATM   25  C   UNL     1       7.515  27.379  57.669  1.00  0.00     0.049 C 
BRANCH  20  26
HETATM   26  S   UNL     1       5.610  25.725  56.408  1.00  0.00    -0.118 SA
BRANCH  26  27
HETATM   27  C   UNL     1       6.590  24.718  55.314  1.00  0.00     0.001 A 
HETATM   28  C   UNL     1       7.706  24.029  55.795  1.00  0.00     0.018 A 
HETATM   29  C   UNL     1       8.454  23.215  54.943  1.00  0.00     0.001 A 
HETATM   30  C   UNL     1       8.080  23.071  53.608  1.00  0.00     0.000 A 
HETATM   31  C   UNL     1       6.951  23.731  53.128  1.00  0.00     0.001 A 
HETATM   32  C   UNL     1       6.201  24.544  53.981  1.00  0.00     0.018 A 
ENDBRANCH  26  27
ENDBRANCH  20  26
ENDBRANCH  19  20
ENDBRANCH   2  19
TORSDOF 8
ENDMDL
MODEL 4
REMARK VINA RESULT:      -8.3      4.286      8.095
REMARK  8 active torsions:
REMARK  status: ('A' for Active; 'I' for Inactive)
REMARK    1  A    between atoms: O_2  and  C_3 
REMARK    2  A    between atoms: C_5  and  N_6 
REMARK       I    between atoms: N_6  and  C_7 
REMARK    3  A    between atoms: C_7  and  C_8 
REMARK       I    between atoms: C_8  and  N_9 
REMARK    4  A    between atoms: N_9  and  C_10 
REMARK    5  A    between atoms: C_10  and  C_11 
REMARK    6  A    between atoms: C_11  and  S_12 
REMARK    7  A    between atoms: S_12  and  C_13 
REMARK    8  A    between atoms: C_26  and  O_27 
ROOT
HETATM    1  C   UNL     1       5.108  28.061  53.727  1.00  0.00     0.309 C 
HETATM    2  N   UNL     1       6.395  27.576  53.632  1.00  0.00    -0.351 N 
HETATM    3  O   UNL     1       4.519  28.350  54.759  1.00  0.00    -0.262 OA
HETATM    4  H   UNL     1       6.671  27.276  52.700  1.00  0.00     0.162 HD
ENDROOT
BRANCH   1   5
HETATM    5  C   UNL     1       4.396  28.202  52.363  1.00  0.00     0.314 C 
HETATM    6  N   UNL     1       5.240  27.935  51.311  1.00  0.00    -0.316 N 
HETATM    7  H   UNL     1       6.187  27.652  51.563  1.00  0.00     0.169 HD
HETATM    8  O   UNL     1       3.215  28.518  52.349  1.00  0.00    -0.262 OA
BRANCH   6   9
HETATM    9  C   UNL     1       4.977  27.994  49.928  1.00  0.00     0.071 A 
HETATM   10  C   UNL     1       4.320  26.977  49.228  1.00  0.00     0.069 A 
HETATM   11  C   UNL     1       4.076  27.112  47.860  1.00  0.00     0.070 A 
HETATM   12  C   UNL     1       4.519  28.253  47.191  1.00  0.00     0.039 A 
HETATM   13  C   UNL     1       5.174  29.277  47.879  1.00  0.00     0.042 A 
HETATM   14  C   UNL     1       5.401  29.158  49.250  1.00  0.00     0.095 A 
BRANCH  11  15
HETATM   15  O   UNL     1       3.430  26.202  47.067  1.00  0.00    -0.356 OA
HETATM   16  C   UNL     1       3.046  24.979  47.687  1.00  0.00     0.210 C 
ENDBRANCH  11  15
BRANCH  14  17
HETATM   17  O   UNL     1       6.025  30.102  50.031  1.00  0.00    -0.354 OA
HETATM   18  C   UNL     1       6.018  31.444  49.557  1.00  0.00     0.210 C 
ENDBRANCH  14  17
ENDBRANCH   6   9
ENDBRANCH   1   5
BRANCH   2  19
HETATM   19  C   UNL     1       7.139  27.150  54.804  1.00  0.00     0.144 C 
BRANCH  19  20
HETATM   20  C   UNL     1       7.150  25.612  55.077  1.00  0.00     0.033 C 
HETATM   21  C   UNL     1       8.077  25.330  56.281  1.00  0.00     0.049 C 
HETATM   22  C   UNL     1       7.463  25.818  57.591  1.00  0.00     0.169 C 
HETATM   23  O   UNL     1       6.166  25.261  57.785  1.00  0.00    -0.391 OA
HETATM   24  C   UNL     1       5.248  25.600  56.748  1.00  0.00     0.169 C 
HETATM   25  C   UNL     1       5.741  25.077  55.403  1.00  0.00     0.049 C 
BRANCH  20  26
HETATM   26  S   UNL     1       7.813  24.832  53.505  1.00  0.00    -0.118 SA
BRANCH  26  27
HETATM   27  C   UNL     1       7.901  23.096  53.893  1.00  0.00     0.001 A 
HETATM   28  C   UNL     1       7.832  22.662  55.219  1.00  0.00     0.018 A 
HETATM   29  C   UNL     1       7.869  21.299  55.519  1.00  0.00     0.001 A 
HETATM   30  C   UNL     1       7.957  20.360  54.492  1.00  0.00     0.000 A 
HETATM   31  C   UNL     1       7.996  20.784  53.165  1.00  0.00     0.001 A 
HETATM   32  C   UNL     1       7.957  22.148  52.865  1.00  0.00     0.018 A 
ENDBRANCH  26  27
ENDBRANCH  20  26
ENDBRANCH  19  20
ENDBRANCH   2  19
TORSDOF 8
ENDMDL
MODEL 5
REMARK VINA RESULT:      -8.3      3.750      8.215
REMARK  8 active torsions:
REMARK  status: ('A' for Active; 'I' for Inactive)
REMARK    1  A    between atoms: O_2  and  C_3 
REMARK    2  A    between atoms: C_5  and  N_6 
REMARK       I    between atoms: N_6  and  C_7 
REMARK    3  A    between atoms: C_7  and  C_8 
REMARK       I    between atoms: C_8  and  N_9 
REMARK    4  A    between atoms: N_9  and  C_10 
REMARK    5  A    between atoms: C_10  and  C_11 
REMARK    6  A    between atoms: C_11  and  S_12 
REMARK    7  A    between atoms: S_12  and  C_13 
REMARK    8  A    between atoms: C_26  and  O_27 
ROOT
HETATM    1  C   UNL     1       7.015  25.531  52.673  1.00  0.00     0.309 C 
HETATM    2  N   UNL     1       6.786  25.778  54.010  1.00  0.00    -0.351 N 
HETATM    3  O   UNL     1       8.092  25.253  52.164  1.00  0.00    -0.262 OA
HETATM    4  H   UNL     1       5.851  26.113  54.229  1.00  0.00     0.162 HD
ENDROOT
BRANCH   1   5
HETATM    5  C   UNL     1       5.752  25.661  51.793  1.00  0.00     0.314 C 
HETATM    6  N   UNL     1       5.826  26.735  50.940  1.00  0.00    -0.316 N 
HETATM    7  H   UNL     1       6.696  27.268  50.972  1.00  0.00     0.169 HD
HETATM    8  O   UNL     1       4.856  24.839  51.931  1.00  0.00    -0.262 OA
BRANCH   6   9
HETATM    9  C   UNL     1       4.868  27.203  50.019  1.00  0.00     0.071 A 
HETATM   10  C   UNL     1       4.557  26.535  48.830  1.00  0.00     0.069 A 
HETATM   11  C   UNL     1       3.581  27.046  47.972  1.00  0.00     0.070 A 
HETATM   12  C   UNL     1       2.941  28.244  48.295  1.00  0.00     0.039 A 
HETATM   13  C   UNL     1       3.241  28.919  49.479  1.00  0.00     0.042 A 
HETATM   14  C   UNL     1       4.199  28.401  50.351  1.00  0.00     0.095 A 
BRANCH  11  15
HETATM   15  O   UNL     1       3.173  26.482  46.794  1.00  0.00    -0.356 OA
HETATM   16  C   UNL     1       2.706  25.139  46.861  1.00  0.00     0.210 C 
ENDBRANCH  11  15
BRANCH  14  17
HETATM   17  O   UNL     1       4.568  28.971  51.547  1.00  0.00    -0.354 OA
HETATM   18  C   UNL     1       4.477  30.388  51.645  1.00  0.00     0.210 C 
ENDBRANCH  14  17
ENDBRANCH   6   9
ENDBRANCH   1   5
BRANCH   2  19
HETATM   19  C   UNL     1       7.876  25.939  54.955  1.00  0.00     0.144 C 
BRANCH  19  20
HETATM   20  C   UNL     1       7.580  25.474  56.417  1.00  0.00     0.033 C 
HETATM   21  C   UNL     1       7.610  26.709  57.345  1.00  0.00     0.049 C 
HETATM   22  C   UNL     1       6.403  27.616  57.114  1.00  0.00     0.169 C 
HETATM   23  O   UNL     1       5.185  26.888  57.248  1.00  0.00    -0.391 OA
HETATM   24  C   UNL     1       5.072  25.808  56.325  1.00  0.00     0.169 C 
HETATM   25  C   UNL     1       6.198  24.801  56.536  1.00  0.00     0.049 C 
BRANCH  20  26
HETATM   26  S   UNL     1       8.949  24.265  56.842  1.00  0.00    -0.118 SA
BRANCH  26  27
HETATM   27  C   UNL     1       8.527  22.799  55.922  1.00  0.00     0.001 A 
HETATM   28  C   UNL     1       8.685  22.765  54.534  1.00  0.00     0.018 A 
HETATM   29  C   UNL     1       8.383  21.605  53.818  1.00  0.00     0.001 A 
HETATM   30  C   UNL     1       7.939  20.466  54.489  1.00  0.00     0.000 A 
HETATM   31  C   UNL     1       7.809  20.483  55.876  1.00  0.00     0.001 A 
HETATM   32  C   UNL     1       8.113  21.643  56.592  1.00  0.00     0.018 A 
ENDBRANCH  26  27
ENDBRANCH  20  26
ENDBRANCH  19  20
ENDBRANCH   2  19
TORSDOF 8
ENDMDL
MODEL 6
REMARK VINA RESULT:      -8.2      3.131      7.987
REMARK  8 active torsions:
REMARK  status: ('A' for Active; 'I' for Inactive)
REMARK    1  A    between atoms: O_2  and  C_3 
REMARK    2  A    between atoms: C_5  and  N_6 
REMARK       I    between atoms: N_6  and  C_7 
REMARK    3  A    between atoms: C_7  and  C_8 
REMARK       I    between atoms: C_8  and  N_9 
REMARK    4  A    between atoms: N_9  and  C_10 
REMARK    5  A    between atoms: C_10  and  C_11 
REMARK    6  A    between atoms: C_11  and  S_12 
REMARK    7  A    between atoms: S_12  and  C_13 
REMARK    8  A    between atoms: C_26  and  O_27 
ROOT
HETATM    1  C   UNL     1       4.436  28.750  54.062  1.00  0.00     0.309 C 
HETATM    2  N   UNL     1       4.956  27.592  54.600  1.00  0.00    -0.351 N 
HETATM    3  O   UNL     1       4.305  29.820  54.639  1.00  0.00    -0.262 OA
HETATM    4  H   UNL     1       4.872  26.770  54.008  1.00  0.00     0.162 HD
ENDROOT
BRANCH   1   5
HETATM    5  C   UNL     1       3.972  28.599  52.596  1.00  0.00     0.314 C 
HETATM    6  N   UNL     1       5.022  28.339  51.747  1.00  0.00    -0.316 N 
HETATM    7  H   UNL     1       5.937  28.247  52.189  1.00  0.00     0.169 HD
HETATM    8  O   UNL     1       2.781  28.715  52.343  1.00  0.00    -0.262 OA
BRANCH   6   9
HETATM    9  C   UNL     1       5.010  28.177  50.348  1.00  0.00     0.071 A 
HETATM   10  C   UNL     1       4.618  26.992  49.716  1.00  0.00     0.069 A 
HETATM   11  C   UNL     1       4.612  26.910  48.322  1.00  0.00     0.070 A 
HETATM   12  C   UNL     1       5.030  28.006  47.565  1.00  0.00     0.039 A 
HETATM   13  C   UNL     1       5.422  29.194  48.185  1.00  0.00     0.042 A 
HETATM   14  C   UNL     1       5.408  29.291  49.576  1.00  0.00     0.095 A 
BRANCH  11  15
HETATM   15  O   UNL     1       4.235  25.820  47.585  1.00  0.00    -0.356 OA
HETATM   16  C   UNL     1       3.054  25.147  48.006  1.00  0.00     0.210 C 
ENDBRANCH  11  15
BRANCH  14  17
HETATM   17  O   UNL     1       5.762  30.410  50.293  1.00  0.00    -0.354 OA
HETATM   18  C   UNL     1       6.111  31.572  49.550  1.00  0.00     0.210 C 
ENDBRANCH  14  17
ENDBRANCH   6   9
ENDBRANCH   1   5
BRANCH   2  19
HETATM   19  C   UNL     1       5.223  27.464  56.021  1.00  0.00     0.144 C 
BRANCH  19  20
HETATM   20  C   UNL     1       6.543  26.716  56.397  1.00  0.00     0.033 C 
HETATM   21  C   UNL     1       7.565  26.912  55.255  1.00  0.00     0.049 C 
HETATM   22  C   UNL     1       8.088  28.347  55.208  1.00  0.00     0.169 C 
HETATM   23  O   UNL     1       8.628  28.734  56.469  1.00  0.00    -0.391 OA
HETATM   24  C   UNL     1       7.676  28.677  57.528  1.00  0.00     0.169 C 
HETATM   25  C   UNL     1       7.155  27.255  57.706  1.00  0.00     0.049 C 
BRANCH  20  26
HETATM   26  S   UNL     1       6.058  24.913  56.580  1.00  0.00    -0.118 SA
BRANCH  26  27
HETATM   27  C   UNL     1       6.972  24.092  55.291  1.00  0.00     0.001 A 
HETATM   28  C   UNL     1       8.130  23.369  55.594  1.00  0.00     0.018 A 
HETATM   29  C   UNL     1       8.827  22.699  54.587  1.00  0.00     0.001 A 
HETATM   30  C   UNL     1       8.361  22.733  53.273  1.00  0.00     0.000 A 
HETATM   31  C   UNL     1       7.191  23.425  52.969  1.00  0.00     0.001 A 
HETATM   32  C   UNL     1       6.492  24.094  53.977  1.00  0.00     0.018 A 
ENDBRANCH  26  27
ENDBRANCH  20  26
ENDBRANCH  19  20
ENDBRANCH   2  19
TORSDOF 8
ENDMDL
MODEL 7
REMARK VINA RESULT:      -8.2      3.455      8.596
REMARK  8 active torsions:
REMARK  status: ('A' for Active; 'I' for Inactive)
REMARK    1  A    between atoms: O_2  and  C_3 
REMARK    2  A    between atoms: C_5  and  N_6 
REMARK       I    between atoms: N_6  and  C_7 
REMARK    3  A    between atoms: C_7  and  C_8 
REMARK       I    between atoms: C_8  and  N_9 
REMARK    4  A    between atoms: N_9  and  C_10 
REMARK    5  A    between atoms: C_10  and  C_11 
REMARK    6  A    between atoms: C_11  and  S_12 
REMARK    7  A    between atoms: S_12  and  C_13 
REMARK    8  A    between atoms: C_26  and  O_27 
ROOT
HETATM    1  C   UNL     1       6.312  26.638  52.557  1.00  0.00     0.309 C 
HETATM    2  N   UNL     1       6.240  27.000  53.885  1.00  0.00    -0.351 N 
HETATM    3  O   UNL     1       7.177  25.943  52.044  1.00  0.00    -0.262 OA
HETATM    4  H   UNL     1       5.518  27.683  54.104  1.00  0.00     0.162 HD
ENDROOT
BRANCH   1   5
HETATM    5  C   UNL     1       5.173  27.222  51.692  1.00  0.00     0.314 C 
HETATM    6  N   UNL     1       5.401  27.041  50.349  1.00  0.00    -0.316 N 
HETATM    7  H   UNL     1       6.248  26.527  50.108  1.00  0.00     0.169 HD
HETATM    8  O   UNL     1       4.228  27.760  52.253  1.00  0.00    -0.262 OA
BRANCH   6   9
HETATM    9  C   UNL     1       4.622  27.463  49.254  1.00  0.00     0.071 A 
HETATM   10  C   UNL     1       3.595  26.691  48.699  1.00  0.00     0.069 A 
HETATM   11  C   UNL     1       2.850  27.182  47.626  1.00  0.00     0.070 A 
HETATM   12  C   UNL     1       3.156  28.434  47.090  1.00  0.00     0.039 A 
HETATM   13  C   UNL     1       4.178  29.215  47.635  1.00  0.00     0.042 A 
HETATM   14  C   UNL     1       4.910  28.739  48.723  1.00  0.00     0.095 A 
BRANCH  11  15
HETATM   15  O   UNL     1       1.813  26.537  47.008  1.00  0.00    -0.356 OA
HETATM   16  C   UNL     1       0.740  27.353  46.551  1.00  0.00     0.210 C 
ENDBRANCH  11  15
BRANCH  14  17
HETATM   17  O   UNL     1       5.928  29.422  49.347  1.00  0.00    -0.354 OA
HETATM   18  C   UNL     1       5.588  30.639  50.000  1.00  0.00     0.210 C 
ENDBRANCH  14  17
ENDBRANCH   6   9
ENDBRANCH   1   5
BRANCH   2  19
HETATM   19  C   UNL     1       7.335  26.753  54.805  1.00  0.00     0.144 C 
BRANCH  19  20
HETATM   20  C   UNL     1       6.938  26.618  56.311  1.00  0.00     0.033 C 
HETATM   21  C   UNL     1       8.219  26.706  57.170  1.00  0.00     0.049 C 
HETATM   22  C   UNL     1       8.793  28.121  57.183  1.00  0.00     0.169 C 
HETATM   23  O   UNL     1       7.812  29.065  57.604  1.00  0.00    -0.391 OA
HETATM   24  C   UNL     1       6.662  29.094  56.761  1.00  0.00     0.169 C 
HETATM   25  C   UNL     1       5.970  27.734  56.751  1.00  0.00     0.049 C 
BRANCH  20  26
HETATM   26  S   UNL     1       6.127  24.934  56.461  1.00  0.00    -0.118 SA
BRANCH  26  27
HETATM   27  C   UNL     1       7.197  23.858  55.529  1.00  0.00     0.001 A 
HETATM   28  C   UNL     1       6.861  23.480  54.226  1.00  0.00     0.018 A 
HETATM   29  C   UNL     1       7.716  22.663  53.485  1.00  0.00     0.001 A 
HETATM   30  C   UNL     1       8.922  22.233  54.036  1.00  0.00     0.000 A 
HETATM   31  C   UNL     1       9.279  22.630  55.323  1.00  0.00     0.001 A 
HETATM   32  C   UNL     1       8.423  23.450  56.064  1.00  0.00     0.018 A 
ENDBRANCH  26  27
ENDBRANCH  20  26
ENDBRANCH  19  20
ENDBRANCH   2  19
TORSDOF 8
ENDMDL
MODEL 8
REMARK VINA RESULT:      -8.2      2.715      8.358
REMARK  8 active torsions:
REMARK  status: ('A' for Active; 'I' for Inactive)
REMARK    1  A    between atoms: O_2  and  C_3 
REMARK    2  A    between atoms: C_5  and  N_6 
REMARK       I    between atoms: N_6  and  C_7 
REMARK    3  A    between atoms: C_7  and  C_8 
REMARK       I    between atoms: C_8  and  N_9 
REMARK    4  A    between atoms: N_9  and  C_10 
REMARK    5  A    between atoms: C_10  and  C_11 
REMARK    6  A    between atoms: C_11  and  S_12 
REMARK    7  A    between atoms: S_12  and  C_13 
REMARK    8  A    between atoms: C_26  and  O_27 
ROOT
HETATM    1  C   UNL     1       6.653  26.866  53.511  1.00  0.00     0.309 C 
HETATM    2  N   UNL     1       6.594  27.498  54.736  1.00  0.00    -0.351 N 
HETATM    3  O   UNL     1       6.178  27.278  52.463  1.00  0.00    -0.262 OA
HETATM    4  H   UNL     1       6.938  26.947  55.518  1.00  0.00     0.162 HD
ENDROOT
BRANCH   1   5
HETATM    5  C   UNL     1       7.380  25.503  53.552  1.00  0.00     0.314 C 
HETATM    6  N   UNL     1       7.001  24.749  54.635  1.00  0.00    -0.316 N 
HETATM    7  H   UNL     1       6.284  25.160  55.233  1.00  0.00     0.169 HD
HETATM    8  O   UNL     1       8.178  25.239  52.663  1.00  0.00    -0.262 OA
BRANCH   6   9
HETATM    9  C   UNL     1       7.463  23.479  55.036  1.00  0.00     0.071 A 
HETATM   10  C   UNL     1       7.569  22.391  54.163  1.00  0.00     0.069 A 
HETATM   11  C   UNL     1       8.055  21.166  54.625  1.00  0.00     0.070 A 
HETATM   12  C   UNL     1       8.404  21.027  55.969  1.00  0.00     0.039 A 
HETATM   13  C   UNL     1       8.304  22.106  56.850  1.00  0.00     0.042 A 
HETATM   14  C   UNL     1       7.842  23.339  56.389  1.00  0.00     0.095 A 
BRANCH  11  15
HETATM   15  O   UNL     1       8.224  20.035  53.873  1.00  0.00    -0.356 OA
HETATM   16  C   UNL     1       8.456  20.227  52.482  1.00  0.00     0.210 C 
ENDBRANCH  11  15
BRANCH  14  17
HETATM   17  O   UNL     1       7.711  24.470  57.159  1.00  0.00    -0.354 OA
HETATM   18  C   UNL     1       8.890  24.975  57.775  1.00  0.00     0.210 C 
ENDBRANCH  14  17
ENDBRANCH   6   9
ENDBRANCH   1   5
BRANCH   2  19
HETATM   19  C   UNL     1       5.755  28.662  54.954  1.00  0.00     0.144 C 
BRANCH  19  20
HETATM   20  C   UNL     1       5.697  29.188  56.425  1.00  0.00     0.033 C 
HETATM   21  C   UNL     1       6.133  30.670  56.439  1.00  0.00     0.049 C 
HETATM   22  C   UNL     1       5.078  31.573  55.802  1.00  0.00     0.169 C 
HETATM   23  O   UNL     1       3.809  31.393  56.425  1.00  0.00    -0.391 OA
HETATM   24  C   UNL     1       3.321  30.057  56.328  1.00  0.00     0.169 C 
HETATM   25  C   UNL     1       4.276  29.085  57.015  1.00  0.00     0.049 C 
BRANCH  20  26
HETATM   26  S   UNL     1       6.897  28.113  57.386  1.00  0.00    -0.118 SA
BRANCH  26  27
HETATM   27  C   UNL     1       8.374  29.102  57.483  1.00  0.00     0.001 A 
HETATM   28  C   UNL     1       9.287  29.118  56.424  1.00  0.00     0.018 A 
HETATM   29  C   UNL     1      10.428  29.919  56.488  1.00  0.00     0.001 A 
HETATM   30  C   UNL     1      10.656  30.723  57.605  1.00  0.00     0.000 A 
HETATM   31  C   UNL     1       9.736  30.735  58.650  1.00  0.00     0.001 A 
HETATM   32  C   UNL     1       8.592  29.935  58.585  1.00  0.00     0.018 A 
ENDBRANCH  26  27
ENDBRANCH  20  26
ENDBRANCH  19  20
ENDBRANCH   2  19
TORSDOF 8
ENDMDL
MODEL 9
REMARK VINA RESULT:      -8.1      1.687      2.398
REMARK  8 active torsions:
REMARK  status: ('A' for Active; 'I' for Inactive)
REMARK    1  A    between atoms: O_2  and  C_3 
REMARK    2  A    between atoms: C_5  and  N_6 
REMARK       I    between atoms: N_6  and  C_7 
REMARK    3  A    between atoms: C_7  and  C_8 
REMARK       I    between atoms: C_8  and  N_9 
REMARK    4  A    between atoms: N_9  and  C_10 
REMARK    5  A    between atoms: C_10  and  C_11 
REMARK    6  A    between atoms: C_11  and  S_12 
REMARK    7  A    between atoms: S_12  and  C_13 
REMARK    8  A    between atoms: C_26  and  O_27 
ROOT
HETATM    1  C   UNL     1       5.596  28.909  55.628  1.00  0.00     0.309 C 
HETATM    2  N   UNL     1       6.645  28.072  55.311  1.00  0.00    -0.351 N 
HETATM    3  O   UNL     1       4.426  28.753  55.309  1.00  0.00    -0.262 OA
HETATM    4  H   UNL     1       7.565  28.428  55.558  1.00  0.00     0.162 HD
ENDROOT
BRANCH   1   5
HETATM    5  C   UNL     1       6.018  30.152  56.442  1.00  0.00     0.314 C 
HETATM    6  N   UNL     1       6.891  29.834  57.454  1.00  0.00    -0.316 N 
HETATM    7  H   UNL     1       7.166  28.853  57.510  1.00  0.00     0.169 HD
HETATM    8  O   UNL     1       5.562  31.242  56.125  1.00  0.00    -0.262 OA
BRANCH   6   9
HETATM    9  C   UNL     1       7.466  30.676  58.426  1.00  0.00     0.071 A 
HETATM   10  C   UNL     1       6.714  31.521  59.250  1.00  0.00     0.069 A 
HETATM   11  C   UNL     1       7.350  32.315  60.207  1.00  0.00     0.070 A 
HETATM   12  C   UNL     1       8.741  32.282  60.314  1.00  0.00     0.039 A 
HETATM   13  C   UNL     1       9.502  31.442  59.499  1.00  0.00     0.042 A 
HETATM   14  C   UNL     1       8.871  30.629  58.558  1.00  0.00     0.095 A 
BRANCH  11  15
HETATM   15  O   UNL     1       6.732  33.166  61.082  1.00  0.00    -0.356 OA
HETATM   16  C   UNL     1       7.148  33.093  62.440  1.00  0.00     0.210 C 
ENDBRANCH  11  15
BRANCH  14  17
HETATM   17  O   UNL     1       9.514  29.757  57.711  1.00  0.00    -0.354 OA
HETATM   18  C   UNL     1      10.718  30.211  57.103  1.00  0.00     0.210 C 
ENDBRANCH  14  17
ENDBRANCH   6   9
ENDBRANCH   1   5
BRANCH   2  19
HETATM   19  C   UNL     1       6.496  26.987  54.359  1.00  0.00     0.144 C 
BRANCH  19  20
HETATM   20  C   UNL     1       7.020  25.593  54.832  1.00  0.00     0.033 C 
HETATM   21  C   UNL     1       8.000  25.806  56.008  1.00  0.00     0.049 C 
HETATM   22  C   UNL     1       7.270  26.249  57.275  1.00  0.00     0.169 C 
HETATM   23  O   UNL     1       6.234  25.332  57.614  1.00  0.00    -0.391 OA
HETATM   24  C   UNL     1       5.246  25.199  56.594  1.00  0.00     0.169 C 
HETATM   25  C   UNL     1       5.873  24.679  55.304  1.00  0.00     0.049 C 
BRANCH  20  26
HETATM   26  S   UNL     1       7.890  24.857  53.342  1.00  0.00    -0.118 SA
BRANCH  26  27
HETATM   27  C   UNL     1       8.137  23.151  53.791  1.00  0.00     0.001 A 
HETATM   28  C   UNL     1       7.626  22.127  52.988  1.00  0.00     0.018 A 
HETATM   29  C   UNL     1       7.848  20.790  53.324  1.00  0.00     0.001 A 
HETATM   30  C   UNL     1       8.597  20.469  54.455  1.00  0.00     0.000 A 
HETATM   31  C   UNL     1       9.135  21.484  55.243  1.00  0.00     0.001 A 
HETATM   32  C   UNL     1       8.915  22.822  54.906  1.00  0.00     0.018 A 
ENDBRANCH  26  27
ENDBRANCH  20  26
ENDBRANCH  19  20
ENDBRANCH   2  19
TORSDOF 8
ENDMDL
MODEL 10
REMARK VINA RESULT:      -8.1      4.889      6.475
REMARK  8 active torsions:
REMARK  status: ('A' for Active; 'I' for Inactive)
REMARK    1  A    between atoms: O_2  and  C_3 
REMARK    2  A    between atoms: C_5  and  N_6 
REMARK       I    between atoms: N_6  and  C_7 
REMARK    3  A    between atoms: C_7  and  C_8 
REMARK       I    between atoms: C_8  and  N_9 
REMARK    4  A    between atoms: N_9  and  C_10 
REMARK    5  A    between atoms: C_10  and  C_11 
REMARK    6  A    between atoms: C_11  and  S_12 
REMARK    7  A    between atoms: S_12  and  C_13 
REMARK    8  A    between atoms: C_26  and  O_27 
ROOT
HETATM    1  C   UNL     1       3.437  31.950  59.789  1.00  0.00     0.309 C 
HETATM    2  N   UNL     1       3.555  30.744  59.131  1.00  0.00    -0.351 N 
HETATM    3  O   UNL     1       2.989  32.988  59.322  1.00  0.00    -0.262 OA
HETATM    4  H   UNL     1       4.064  30.027  59.642  1.00  0.00     0.162 HD
ENDROOT
BRANCH   1   5
HETATM    5  C   UNL     1       3.966  31.919  61.241  1.00  0.00     0.314 C 
HETATM    6  N   UNL     1       5.021  32.780  61.424  1.00  0.00    -0.316 N 
HETATM    7  H   UNL     1       5.285  33.337  60.612  1.00  0.00     0.169 HD
HETATM    8  O   UNL     1       3.424  31.173  62.045  1.00  0.00    -0.262 OA
BRANCH   6   9
HETATM    9  C   UNL     1       5.789  33.005  62.583  1.00  0.00     0.071 A 
HETATM   10  C   UNL     1       5.280  33.618  63.734  1.00  0.00     0.069 A 
HETATM   11  C   UNL     1       6.095  33.791  64.855  1.00  0.00     0.070 A 
HETATM   12  C   UNL     1       7.427  33.377  64.809  1.00  0.00     0.039 A 
HETATM   13  C   UNL     1       7.946  32.763  63.667  1.00  0.00     0.042 A 
HETATM   14  C   UNL     1       7.131  32.566  62.552  1.00  0.00     0.095 A 
BRANCH  11  15
HETATM   15  O   UNL     1       5.715  34.355  66.043  1.00  0.00    -0.356 OA
HETATM   16  C   UNL     1       4.394  34.069  66.488  1.00  0.00     0.210 C 
ENDBRANCH  11  15
BRANCH  14  17
HETATM   17  O   UNL     1       7.528  31.966  61.380  1.00  0.00    -0.354 OA
HETATM   18  C   UNL     1       8.925  31.926  61.113  1.00  0.00     0.210 C 
ENDBRANCH  14  17
ENDBRANCH   6   9
ENDBRANCH   1   5
BRANCH   2  19
HETATM   19  C   UNL     1       3.338  30.631  57.701  1.00  0.00     0.144 C 
BRANCH  19  20
HETATM   20  C   UNL     1       4.629  30.510  56.828  1.00  0.00     0.033 C 
HETATM   21  C   UNL     1       4.216  30.418  55.342  1.00  0.00     0.049 C 
HETATM   22  C   UNL     1       3.679  31.750  54.823  1.00  0.00     0.169 C 
HETATM   23  O   UNL     1       4.620  32.799  55.043  1.00  0.00    -0.391 OA
HETATM   24  C   UNL     1       4.937  32.990  56.419  1.00  0.00     0.169 C 
HETATM   25  C   UNL     1       5.559  31.727  57.007  1.00  0.00     0.049 C 
BRANCH  20  26
HETATM   26  S   UNL     1       5.473  28.936  57.403  1.00  0.00    -0.118 SA
BRANCH  26  27
HETATM   27  C   UNL     1       7.204  29.256  57.135  1.00  0.00     0.001 A 
HETATM   28  C   UNL     1       8.024  29.647  58.197  1.00  0.00     0.018 A 
HETATM   29  C   UNL     1       9.388  29.867  57.993  1.00  0.00     0.001 A 
HETATM   30  C   UNL     1       9.943  29.679  56.728  1.00  0.00     0.000 A 
HETATM   31  C   UNL     1       9.138  29.260  55.671  1.00  0.00     0.001 A 
HETATM   32  C   UNL     1       7.774  29.038  55.876  1.00  0.00     0.018 A 
ENDBRANCH  26  27
ENDBRANCH  20  26
ENDBRANCH  19  20
ENDBRANCH   2  19
TORSDOF 8
ENDMDL
