MODEL 1
REMARK VINA RESULT:      -9.6      0.000      0.000
REMARK  5 active torsions:
REMARK  status: ('A' for Active; 'I' for Inactive)
REMARK    1  A    between atoms: C_3  and  N_4 
REMARK    2  A    between atoms: N_5  and  C_6 
REMARK    3  A    between atoms: C_6  and  C_7 
REMARK    4  A    between atoms: C_7  and  C_8 
REMARK    5  A    between atoms: C_16  and  C_17 
ROOT
HETATM    1  C   UNL     1       4.766  29.231  54.386  1.00  0.00     0.175 C 
HETATM    2  N   UNL     1       5.380  27.912  54.408  1.00  0.00    -0.186 N 
HETATM    3  C   UNL     1       4.948  26.878  53.689  1.00  0.00     0.680 A 
HETATM    4  N   UNL     1       5.837  25.895  53.762  1.00  0.00    -0.184 N 
HETATM    5  C   UNL     1       6.870  26.304  54.586  1.00  0.00     0.140 A 
HETATM    6  C   UNL     1       6.583  27.568  55.060  1.00  0.00     0.077 A 
ENDROOT
BRANCH   4   7
HETATM    7  C   UNL     1       5.734  24.547  53.167  1.00  0.00     0.231 C 
BRANCH   7   8
HETATM    8  C   UNL     1       7.097  23.921  52.896  1.00  0.00     0.178 C 
HETATM    9  O   UNL     1       7.872  24.409  52.069  1.00  0.00    -0.290 OA
BRANCH   8  10
HETATM   10  C   UNL     1       7.501  22.715  53.661  1.00  0.00     0.011 A 
HETATM   11  C   UNL     1       7.473  22.681  55.060  1.00  0.00     0.015 A 
HETATM   12  C   UNL     1       7.878  21.525  55.733  1.00  0.00     0.001 A 
HETATM   13  C   UNL     1       8.303  20.408  55.013  1.00  0.00     0.000 A 
HETATM   14  C   UNL     1       8.315  20.434  53.620  1.00  0.00     0.001 A 
HETATM   15  C   UNL     1       7.908  21.584  52.942  1.00  0.00     0.015 A 
ENDBRANCH   8  10
ENDBRANCH   7   8
ENDBRANCH   4   7
BRANCH   3  16
HETATM   16  N   UNL     1       3.813  26.852  52.999  1.00  0.00    -0.234 N 
HETATM   17  H   UNL     1       3.512  26.051  52.471  1.00  0.00     0.174 HD
HETATM   18  H   UNL     1       3.120  27.586  53.161  1.00  0.00     0.174 HD
ENDBRANCH   3  16
BRANCH   6  19
HETATM   19  C   UNL     1       7.431  28.337  56.042  1.00  0.00    -0.004 A 
HETATM   20  C   UNL     1       8.652  28.885  55.615  1.00  0.00     0.053 A 
HETATM   21  C   UNL     1       9.408  29.583  56.535  1.00  0.00     0.106 A 
HETATM   22  C   UNL     1       9.004  29.745  57.836  1.00  0.00     0.105 A 
HETATM   23  O   UNL     1      10.605  30.177  56.284  1.00  0.00    -0.323 OA
HETATM   24  O   UNL     1       9.893  30.462  58.570  1.00  0.00    -0.323 OA
HETATM   25  C   UNL     1       7.822  29.209  58.293  1.00  0.00     0.040 A 
HETATM   26  C   UNL     1      10.909  30.736  57.582  1.00  0.00     0.352 A 
HETATM   27  C   UNL     1       7.031  28.491  57.384  1.00  0.00     0.017 A 
ENDBRANCH   6  19
TORSDOF 5
ENDMDL
MODEL 2
REMARK VINA RESULT:      -9.5      1.493      2.155
REMARK  5 active torsions:
REMARK  status: ('A' for Active; 'I' for Inactive)
REMARK    1  A    between atoms: C_3  and  N_4 
REMARK    2  A    between atoms: N_5  and  C_6 
REMARK    3  A    between atoms: C_6  and  C_7 
REMARK    4  A    between atoms: C_7  and  C_8 
REMARK    5  A    between atoms: C_16  and  C_17 
ROOT
HETATM    1  C   UNL     1       5.712  29.222  55.099  1.00  0.00     0.175 C 
HETATM    2  N   UNL     1       6.282  28.009  55.667  1.00  0.00    -0.186 N 
HETATM    3  C   UNL     1       5.879  26.780  55.352  1.00  0.00     0.680 A 
HETATM    4  N   UNL     1       6.729  25.899  55.865  1.00  0.00    -0.184 N 
HETATM    5  C   UNL     1       7.702  26.590  56.564  1.00  0.00     0.140 A 
HETATM    6  C   UNL     1       7.416  27.938  56.503  1.00  0.00     0.077 A 
ENDROOT
BRANCH   4   7
HETATM    7  C   UNL     1       6.635  24.426  55.810  1.00  0.00     0.231 C 
BRANCH   7   8
HETATM    8  C   UNL     1       7.053  23.862  54.458  1.00  0.00     0.178 C 
HETATM    9  O   UNL     1       6.947  24.530  53.426  1.00  0.00    -0.290 OA
BRANCH   8  10
HETATM   10  C   UNL     1       7.616  22.490  54.391  1.00  0.00     0.011 A 
HETATM   11  C   UNL     1       7.840  21.725  55.541  1.00  0.00     0.015 A 
HETATM   12  C   UNL     1       8.386  20.444  55.425  1.00  0.00     0.001 A 
HETATM   13  C   UNL     1       8.702  19.928  54.168  1.00  0.00     0.000 A 
HETATM   14  C   UNL     1       8.463  20.682  53.021  1.00  0.00     0.001 A 
HETATM   15  C   UNL     1       7.914  21.961  53.129  1.00  0.00     0.015 A 
ENDBRANCH   8  10
ENDBRANCH   7   8
ENDBRANCH   4   7
BRANCH   3  16
HETATM   16  N   UNL     1       4.804  26.494  54.625  1.00  0.00    -0.234 N 
HETATM   17  H   UNL     1       4.772  25.728  53.974  1.00  0.00     0.174 HD
HETATM   18  H   UNL     1       3.913  26.932  54.869  1.00  0.00     0.174 HD
ENDBRANCH   3  16
BRANCH   6  19
HETATM   19  C   UNL     1       8.203  29.022  57.196  1.00  0.00    -0.004 A 
HETATM   20  C   UNL     1       7.636  29.686  58.297  1.00  0.00     0.053 A 
HETATM   21  C   UNL     1       8.378  30.675  58.912  1.00  0.00     0.106 A 
HETATM   22  C   UNL     1       9.631  31.023  58.475  1.00  0.00     0.105 A 
HETATM   23  O   UNL     1       7.980  31.405  59.988  1.00  0.00    -0.323 OA
HETATM   24  O   UNL     1      10.183  32.015  59.219  1.00  0.00    -0.323 OA
HETATM   25  C   UNL     1      10.210  30.404  57.391  1.00  0.00     0.040 A 
HETATM   26  C   UNL     1       9.133  32.257  60.179  1.00  0.00     0.352 A 
HETATM   27  C   UNL     1       9.482  29.398  56.742  1.00  0.00     0.017 A 
ENDBRANCH   6  19
TORSDOF 5
ENDMDL
MODEL 3
REMARK VINA RESULT:      -8.8      1.994      7.569
REMARK  5 active torsions:
REMARK  status: ('A' for Active; 'I' for Inactive)
REMARK    1  A    between atoms: C_3  and  N_4 
REMARK    2  A    between atoms: N_5  and  C_6 
REMARK    3  A    between atoms: C_6  and  C_7 
REMARK    4  A    between atoms: C_7  and  C_8 
REMARK    5  A    between atoms: C_16  and  C_17 
ROOT
HETATM    1  C   UNL     1       4.520  25.107  53.130  1.00  0.00     0.175 C 
HETATM    2  N   UNL     1       5.645  25.797  53.746  1.00  0.00    -0.186 N 
HETATM    3  C   UNL     1       5.673  27.106  53.986  1.00  0.00     0.680 A 
HETATM    4  N   UNL     1       6.728  27.387  54.741  1.00  0.00    -0.184 N 
HETATM    5  C   UNL     1       7.422  26.213  54.972  1.00  0.00     0.140 A 
HETATM    6  C   UNL     1       6.787  25.186  54.305  1.00  0.00     0.077 A 
ENDROOT
BRANCH   4   7
HETATM    7  C   UNL     1       7.176  28.719  55.196  1.00  0.00     0.231 C 
BRANCH   7   8
HETATM    8  C   UNL     1       7.179  28.850  56.714  1.00  0.00     0.178 C 
HETATM    9  O   UNL     1       6.374  28.227  57.411  1.00  0.00    -0.290 OA
BRANCH   8  10
HETATM   10  C   UNL     1       8.185  29.729  57.360  1.00  0.00     0.011 A 
HETATM   11  C   UNL     1       7.838  30.639  58.365  1.00  0.00     0.015 A 
HETATM   12  C   UNL     1       8.820  31.454  58.932  1.00  0.00     0.001 A 
HETATM   13  C   UNL     1      10.144  31.359  58.501  1.00  0.00     0.000 A 
HETATM   14  C   UNL     1      10.495  30.441  57.513  1.00  0.00     0.001 A 
HETATM   15  C   UNL     1       9.519  29.621  56.946  1.00  0.00     0.015 A 
ENDBRANCH   8  10
ENDBRANCH   7   8
ENDBRANCH   4   7
BRANCH   3  16
HETATM   16  N   UNL     1       4.774  27.980  53.547  1.00  0.00    -0.234 N 
HETATM   17  H   UNL     1       3.879  27.707  53.181  1.00  0.00     0.174 HD
HETATM   18  H   UNL     1       4.903  28.971  53.764  1.00  0.00     0.174 HD
ENDBRANCH   3  16
BRANCH   6  19
HETATM   19  C   UNL     1       7.271  23.759  54.251  1.00  0.00    -0.004 A 
HETATM   20  C   UNL     1       7.400  23.030  55.445  1.00  0.00     0.053 A 
HETATM   21  C   UNL     1       7.847  21.727  55.367  1.00  0.00     0.106 A 
HETATM   22  C   UNL     1       8.168  21.138  54.170  1.00  0.00     0.105 A 
HETATM   23  O   UNL     1       8.020  20.888  56.422  1.00  0.00    -0.323 OA
HETATM   24  O   UNL     1       8.584  19.855  54.318  1.00  0.00    -0.323 OA
HETATM   25  C   UNL     1       8.068  21.826  52.982  1.00  0.00     0.040 A 
HETATM   26  C   UNL     1       8.490  19.697  55.750  1.00  0.00     0.352 A 
HETATM   27  C   UNL     1       7.621  23.154  53.027  1.00  0.00     0.017 A 
ENDBRANCH   6  19
TORSDOF 5
ENDMDL
MODEL 4
REMARK VINA RESULT:      -8.7      4.209      9.447
REMARK  5 active torsions:
REMARK  status: ('A' for Active; 'I' for Inactive)
REMARK    1  A    between atoms: C_3  and  N_4 
REMARK    2  A    between atoms: N_5  and  C_6 
REMARK    3  A    between atoms: C_6  and  C_7 
REMARK    4  A    between atoms: C_7  and  C_8 
REMARK    5  A    between atoms: C_16  and  C_17 
ROOT
HETATM    1  C   UNL     1      10.645  29.372  56.625  1.00  0.00     0.175 C 
HETATM    2  N   UNL     1       9.467  29.626  57.442  1.00  0.00    -0.186 N 
HETATM    3  C   UNL     1       9.313  30.701  58.212  1.00  0.00     0.680 A 
HETATM    4  N   UNL     1       8.061  30.746  58.650  1.00  0.00    -0.184 N 
HETATM    5  C   UNL     1       7.390  29.638  58.166  1.00  0.00     0.140 A 
HETATM    6  C   UNL     1       8.274  28.872  57.434  1.00  0.00     0.077 A 
ENDROOT
BRANCH   4   7
HETATM    7  C   UNL     1       7.471  31.734  59.577  1.00  0.00     0.231 C 
BRANCH   7   8
HETATM    8  C   UNL     1       7.940  31.541  61.014  1.00  0.00     0.178 C 
HETATM    9  O   UNL     1       8.725  30.638  61.316  1.00  0.00    -0.290 OA
BRANCH   8  10
HETATM   10  C   UNL     1       7.455  32.474  62.062  1.00  0.00     0.011 A 
HETATM   11  C   UNL     1       6.472  33.435  61.801  1.00  0.00     0.015 A 
HETATM   12  C   UNL     1       6.060  34.299  62.818  1.00  0.00     0.001 A 
HETATM   13  C   UNL     1       6.623  34.201  64.091  1.00  0.00     0.000 A 
HETATM   14  C   UNL     1       7.589  33.234  64.358  1.00  0.00     0.001 A 
HETATM   15  C   UNL     1       8.002  32.365  63.347  1.00  0.00     0.015 A 
ENDBRANCH   8  10
ENDBRANCH   7   8
ENDBRANCH   4   7
BRANCH   3  16
HETATM   16  N   UNL     1      10.265  31.589  58.478  1.00  0.00    -0.234 N 
HETATM   17  H   UNL     1      10.470  32.368  57.876  1.00  0.00     0.174 HD
HETATM   18  H   UNL     1      10.673  31.608  59.415  1.00  0.00     0.174 HD
ENDBRANCH   3  16
BRANCH   6  19
HETATM   19  C   UNL     1       7.947  27.546  56.795  1.00  0.00    -0.004 A 
HETATM   20  C   UNL     1       7.198  27.521  55.607  1.00  0.00     0.053 A 
HETATM   21  C   UNL     1       6.912  26.294  55.044  1.00  0.00     0.106 A 
HETATM   22  C   UNL     1       7.329  25.117  55.613  1.00  0.00     0.105 A 
HETATM   23  O   UNL     1       6.206  26.096  53.899  1.00  0.00    -0.323 OA
HETATM   24  O   UNL     1       6.942  24.029  54.900  1.00  0.00    -0.323 OA
HETATM   25  C   UNL     1       8.052  25.103  56.784  1.00  0.00     0.040 A 
HETATM   26  C   UNL     1       6.228  24.653  53.811  1.00  0.00     0.352 A 
HETATM   27  C   UNL     1       8.357  26.333  57.383  1.00  0.00     0.017 A 
ENDBRANCH   6  19
TORSDOF 5
ENDMDL
MODEL 5
REMARK VINA RESULT:      -8.7      3.439      5.130
REMARK  5 active torsions:
REMARK  status: ('A' for Active; 'I' for Inactive)
REMARK    1  A    between atoms: C_3  and  N_4 
REMARK    2  A    between atoms: N_5  and  C_6 
REMARK    3  A    between atoms: C_6  and  C_7 
REMARK    4  A    between atoms: C_7  and  C_8 
REMARK    5  A    between atoms: C_16  and  C_17 
ROOT
HETATM    1  C   UNL     1      10.583  30.814  57.546  1.00  0.00     0.175 C 
HETATM    2  N   UNL     1       9.300  30.129  57.471  1.00  0.00    -0.186 N 
HETATM    3  C   UNL     1       8.926  29.362  56.450  1.00  0.00     0.680 A 
HETATM    4  N   UNL     1       7.813  28.716  56.776  1.00  0.00    -0.184 N 
HETATM    5  C   UNL     1       7.442  29.106  58.050  1.00  0.00     0.140 A 
HETATM    6  C   UNL     1       8.341  30.050  58.502  1.00  0.00     0.077 A 
ENDROOT
BRANCH   4   7
HETATM    7  C   UNL     1       7.021  27.807  55.923  1.00  0.00     0.231 C 
BRANCH   7   8
HETATM    8  C   UNL     1       7.472  26.356  56.036  1.00  0.00     0.178 C 
HETATM    9  O   UNL     1       7.740  25.853  57.131  1.00  0.00    -0.290 OA
BRANCH   8  10
HETATM   10  C   UNL     1       7.567  25.532  54.805  1.00  0.00     0.011 A 
HETATM   11  C   UNL     1       7.672  26.109  53.534  1.00  0.00     0.015 A 
HETATM   12  C   UNL     1       7.745  25.289  52.405  1.00  0.00     0.001 A 
HETATM   13  C   UNL     1       7.718  23.901  52.544  1.00  0.00     0.000 A 
HETATM   14  C   UNL     1       7.630  23.325  53.810  1.00  0.00     0.001 A 
HETATM   15  C   UNL     1       7.561  24.138  54.942  1.00  0.00     0.015 A 
ENDBRANCH   8  10
ENDBRANCH   7   8
ENDBRANCH   4   7
BRANCH   3  16
HETATM   16  N   UNL     1       9.578  29.256  55.297  1.00  0.00    -0.234 N 
HETATM   17  H   UNL     1       9.129  29.358  54.403  1.00  0.00     0.174 HD
HETATM   18  H   UNL     1      10.600  29.269  55.306  1.00  0.00     0.174 HD
ENDBRANCH   3  16
BRANCH   6  19
HETATM   19  C   UNL     1       8.246  30.773  59.823  1.00  0.00    -0.004 A 
HETATM   20  C   UNL     1       7.257  31.754  60.000  1.00  0.00     0.053 A 
HETATM   21  C   UNL     1       7.194  32.401  61.218  1.00  0.00     0.106 A 
HETATM   22  C   UNL     1       8.065  32.117  62.238  1.00  0.00     0.105 A 
HETATM   23  O   UNL     1       6.297  33.366  61.553  1.00  0.00    -0.323 OA
HETATM   24  O   UNL     1       7.829  32.865  63.346  1.00  0.00    -0.323 OA
HETATM   25  C   UNL     1       9.056  31.173  62.095  1.00  0.00     0.040 A 
HETATM   26  C   UNL     1       6.705  33.659  62.909  1.00  0.00     0.352 A 
HETATM   27  C   UNL     1       9.150  30.500  60.869  1.00  0.00     0.017 A 
ENDBRANCH   6  19
TORSDOF 5
ENDMDL
MODEL 6
REMARK VINA RESULT:      -8.7      1.892      7.239
REMARK  5 active torsions:
REMARK  status: ('A' for Active; 'I' for Inactive)
REMARK    1  A    between atoms: C_3  and  N_4 
REMARK    2  A    between atoms: N_5  and  C_6 
REMARK    3  A    between atoms: C_6  and  C_7 
REMARK    4  A    between atoms: C_7  and  C_8 
REMARK    5  A    between atoms: C_16  and  C_17 
ROOT
HETATM    1  C   UNL     1       4.824  25.232  53.615  1.00  0.00     0.175 C 
HETATM    2  N   UNL     1       5.531  25.802  54.753  1.00  0.00    -0.186 N 
HETATM    3  C   UNL     1       5.251  26.990  55.283  1.00  0.00     0.680 A 
HETATM    4  N   UNL     1       5.915  27.124  56.424  1.00  0.00    -0.184 N 
HETATM    5  C   UNL     1       6.677  25.986  56.620  1.00  0.00     0.140 A 
HETATM    6  C   UNL     1       6.497  25.144  55.543  1.00  0.00     0.077 A 
ENDROOT
BRANCH   4   7
HETATM    7  C   UNL     1       5.945  28.305  57.311  1.00  0.00     0.231 C 
BRANCH   7   8
HETATM    8  C   UNL     1       6.641  29.501  56.672  1.00  0.00     0.178 C 
HETATM    9  O   UNL     1       6.025  30.288  55.948  1.00  0.00    -0.290 OA
BRANCH   8  10
HETATM   10  C   UNL     1       8.082  29.727  56.945  1.00  0.00     0.011 A 
HETATM   11  C   UNL     1       8.529  30.297  58.143  1.00  0.00     0.015 A 
HETATM   12  C   UNL     1       9.895  30.503  58.345  1.00  0.00     0.001 A 
HETATM   13  C   UNL     1      10.812  30.137  57.359  1.00  0.00     0.000 A 
HETATM   14  C   UNL     1      10.371  29.554  56.174  1.00  0.00     0.001 A 
HETATM   15  C   UNL     1       9.008  29.342  55.966  1.00  0.00     0.015 A 
ENDBRANCH   8  10
ENDBRANCH   7   8
ENDBRANCH   4   7
BRANCH   3  16
HETATM   16  N   UNL     1       4.423  27.885  54.754  1.00  0.00    -0.234 N 
HETATM   17  H   UNL     1       4.154  28.729  55.229  1.00  0.00     0.174 HD
HETATM   18  H   UNL     1       4.203  27.823  53.758  1.00  0.00     0.174 HD
ENDBRANCH   3  16
BRANCH   6  19
HETATM   19  C   UNL     1       7.206  23.828  55.345  1.00  0.00    -0.004 A 
HETATM   20  C   UNL     1       7.233  23.246  54.067  1.00  0.00     0.053 A 
HETATM   21  C   UNL     1       7.888  22.040  53.915  1.00  0.00     0.106 A 
HETATM   22  C   UNL     1       8.497  21.405  54.967  1.00  0.00     0.105 A 
HETATM   23  O   UNL     1       8.010  21.350  52.750  1.00  0.00    -0.323 OA
HETATM   24  O   UNL     1       9.082  20.236  54.600  1.00  0.00    -0.323 OA
HETATM   25  C   UNL     1       8.478  21.939  56.236  1.00  0.00     0.040 A 
HETATM   26  C   UNL     1       8.771  20.203  53.191  1.00  0.00     0.352 A 
HETATM   27  C   UNL     1       7.818  23.161  56.425  1.00  0.00     0.017 A 
ENDBRANCH   6  19
TORSDOF 5
ENDMDL
MODEL 7
REMARK VINA RESULT:      -8.7      3.908      7.198
REMARK  5 active torsions:
REMARK  status: ('A' for Active; 'I' for Inactive)
REMARK    1  A    between atoms: C_3  and  N_4 
REMARK    2  A    between atoms: N_5  and  C_6 
REMARK    3  A    between atoms: C_6  and  C_7 
REMARK    4  A    between atoms: C_7  and  C_8 
REMARK    5  A    between atoms: C_16  and  C_17 
ROOT
HETATM    1  C   UNL     1       5.334  25.241  56.421  1.00  0.00     0.175 C 
HETATM    2  N   UNL     1       5.690  25.709  55.089  1.00  0.00    -0.186 N 
HETATM    3  C   UNL     1       5.363  26.908  54.611  1.00  0.00     0.680 A 
HETATM    4  N   UNL     1       6.011  27.112  53.470  1.00  0.00    -0.184 N 
HETATM    5  C   UNL     1       6.762  25.985  53.189  1.00  0.00     0.140 A 
HETATM    6  C   UNL     1       6.538  25.048  54.176  1.00  0.00     0.077 A 
ENDROOT
BRANCH   4   7
HETATM    7  C   UNL     1       5.900  28.281  52.573  1.00  0.00     0.231 C 
BRANCH   7   8
HETATM    8  C   UNL     1       4.647  28.238  51.707  1.00  0.00     0.178 C 
HETATM    9  O   UNL     1       3.528  28.428  52.191  1.00  0.00    -0.290 OA
BRANCH   8  10
HETATM   10  C   UNL     1       4.785  27.983  50.251  1.00  0.00     0.011 A 
HETATM   11  C   UNL     1       5.168  28.989  49.356  1.00  0.00     0.015 A 
HETATM   12  C   UNL     1       5.268  28.701  47.993  1.00  0.00     0.001 A 
HETATM   13  C   UNL     1       4.994  27.416  47.526  1.00  0.00     0.000 A 
HETATM   14  C   UNL     1       4.630  26.409  48.418  1.00  0.00     0.001 A 
HETATM   15  C   UNL     1       4.531  26.688  49.781  1.00  0.00     0.015 A 
ENDBRANCH   8  10
ENDBRANCH   7   8
ENDBRANCH   4   7
BRANCH   3  16
HETATM   16  N   UNL     1       4.533  27.762  55.199  1.00  0.00    -0.234 N 
HETATM   17  H   UNL     1       4.641  28.760  55.138  1.00  0.00     0.174 HD
HETATM   18  H   UNL     1       3.642  27.415  55.560  1.00  0.00     0.174 HD
ENDBRANCH   3  16
BRANCH   6  19
HETATM   19  C   UNL     1       7.121  23.657  54.198  1.00  0.00    -0.004 A 
HETATM   20  C   UNL     1       7.393  23.044  55.432  1.00  0.00     0.053 A 
HETATM   21  C   UNL     1       7.928  21.772  55.423  1.00  0.00     0.106 A 
HETATM   22  C   UNL     1       8.202  21.107  54.255  1.00  0.00     0.105 A 
HETATM   23  O   UNL     1       8.242  21.040  56.524  1.00  0.00    -0.323 OA
HETATM   24  O   UNL     1       8.722  19.871  54.470  1.00  0.00    -0.323 OA
HETATM   25  C   UNL     1       7.962  21.682  53.028  1.00  0.00     0.040 A 
HETATM   26  C   UNL     1       8.747  19.831  55.914  1.00  0.00     0.352 A 
HETATM   27  C   UNL     1       7.422  22.975  53.002  1.00  0.00     0.017 A 
ENDBRANCH   6  19
TORSDOF 5
ENDMDL
MODEL 8
REMARK VINA RESULT:      -8.5      2.914      5.357
REMARK  5 active torsions:
REMARK  status: ('A' for Active; 'I' for Inactive)
REMARK    1  A    between atoms: C_3  and  N_4 
REMARK    2  A    between atoms: N_5  and  C_6 
REMARK    3  A    between atoms: C_6  and  C_7 
REMARK    4  A    between atoms: C_7  and  C_8 
REMARK    5  A    between atoms: C_16  and  C_17 
ROOT
HETATM    1  C   UNL     1       6.169  29.325  55.774  1.00  0.00     0.175 C 
HETATM    2  N   UNL     1       6.160  27.880  55.593  1.00  0.00    -0.186 N 
HETATM    3  C   UNL     1       6.640  27.016  56.484  1.00  0.00     0.680 A 
HETATM    4  N   UNL     1       6.291  25.785  56.128  1.00  0.00    -0.184 N 
HETATM    5  C   UNL     1       5.582  25.860  54.943  1.00  0.00     0.140 A 
HETATM    6  C   UNL     1       5.527  27.180  54.544  1.00  0.00     0.077 A 
ENDROOT
BRANCH   4   7
HETATM    7  C   UNL     1       6.659  24.520  56.796  1.00  0.00     0.231 C 
BRANCH   7   8
HETATM    8  C   UNL     1       7.977  23.951  56.286  1.00  0.00     0.178 C 
HETATM    9  O   UNL     1       9.057  24.318  56.755  1.00  0.00    -0.290 OA
BRANCH   8  10
HETATM   10  C   UNL     1       7.951  22.920  55.218  1.00  0.00     0.011 A 
HETATM   11  C   UNL     1       7.985  23.259  53.860  1.00  0.00     0.015 A 
HETATM   12  C   UNL     1       7.945  22.251  52.893  1.00  0.00     0.001 A 
HETATM   13  C   UNL     1       7.876  20.912  53.279  1.00  0.00     0.000 A 
HETATM   14  C   UNL     1       7.860  20.572  54.630  1.00  0.00     0.001 A 
HETATM   15  C   UNL     1       7.904  21.573  55.601  1.00  0.00     0.015 A 
ENDBRANCH   8  10
ENDBRANCH   7   8
ENDBRANCH   4   7
BRANCH   3  16
HETATM   16  N   UNL     1       7.341  27.345  57.563  1.00  0.00    -0.234 N 
HETATM   17  H   UNL     1       7.059  28.071  58.199  1.00  0.00     0.174 HD
HETATM   18  H   UNL     1       8.086  26.719  57.877  1.00  0.00     0.174 HD
ENDBRANCH   3  16
BRANCH   6  19
HETATM   19  C   UNL     1       4.898  27.673  53.265  1.00  0.00    -0.004 A 
HETATM   20  C   UNL     1       5.561  27.456  52.045  1.00  0.00     0.053 A 
HETATM   21  C   UNL     1       4.964  27.918  50.890  1.00  0.00     0.106 A 
HETATM   22  C   UNL     1       3.762  28.579  50.906  1.00  0.00     0.105 A 
HETATM   23  O   UNL     1       5.467  27.785  49.634  1.00  0.00    -0.323 OA
HETATM   24  O   UNL     1       3.354  28.946  49.664  1.00  0.00    -0.323 OA
HETATM   25  C   UNL     1       3.093  28.823  52.083  1.00  0.00     0.040 A 
HETATM   26  C   UNL     1       4.440  28.441  48.857  1.00  0.00     0.352 A 
HETATM   27  C   UNL     1       3.674  28.369  53.276  1.00  0.00     0.017 A 
ENDBRANCH   6  19
TORSDOF 5
ENDMDL
MODEL 9
REMARK VINA RESULT:      -8.3      2.508      3.104
REMARK  5 active torsions:
REMARK  status: ('A' for Active; 'I' for Inactive)
REMARK    1  A    between atoms: C_3  and  N_4 
REMARK    2  A    between atoms: N_5  and  C_6 
REMARK    3  A    between atoms: C_6  and  C_7 
REMARK    4  A    between atoms: C_7  and  C_8 
REMARK    5  A    between atoms: C_16  and  C_17 
ROOT
HETATM    1  C   UNL     1       4.490  29.473  53.394  1.00  0.00     0.175 C 
HETATM    2  N   UNL     1       4.827  28.292  54.175  1.00  0.00    -0.186 N 
HETATM    3  C   UNL     1       4.873  27.059  53.676  1.00  0.00     0.680 A 
HETATM    4  N   UNL     1       5.416  26.246  54.574  1.00  0.00    -0.184 N 
HETATM    5  C   UNL     1       5.704  26.983  55.709  1.00  0.00     0.140 A 
HETATM    6  C   UNL     1       5.290  28.283  55.508  1.00  0.00     0.077 A 
ENDROOT
BRANCH   4   7
HETATM    7  C   UNL     1       5.606  24.785  54.463  1.00  0.00     0.231 C 
BRANCH   7   8
HETATM    8  C   UNL     1       7.024  24.409  54.051  1.00  0.00     0.178 C 
HETATM    9  O   UNL     1       7.819  25.260  53.642  1.00  0.00    -0.290 OA
BRANCH   8  10
HETATM   10  C   UNL     1       7.456  22.993  54.165  1.00  0.00     0.011 A 
HETATM   11  C   UNL     1       7.506  22.331  55.397  1.00  0.00     0.015 A 
HETATM   12  C   UNL     1       7.935  21.003  55.453  1.00  0.00     0.001 A 
HETATM   13  C   UNL     1       8.307  20.337  54.284  1.00  0.00     0.000 A 
HETATM   14  C   UNL     1       8.241  20.989  53.055  1.00  0.00     0.001 A 
HETATM   15  C   UNL     1       7.810  22.315  52.991  1.00  0.00     0.015 A 
ENDBRANCH   8  10
ENDBRANCH   7   8
ENDBRANCH   4   7
BRANCH   3  16
HETATM   16  N   UNL     1       4.455  26.711  52.464  1.00  0.00    -0.234 N 
HETATM   17  H   UNL     1       3.705  27.183  51.988  1.00  0.00     0.174 HD
HETATM   18  H   UNL     1       5.031  26.079  51.905  1.00  0.00     0.174 HD
ENDBRANCH   3  16
BRANCH   6  19
HETATM   19  C   UNL     1       5.366  29.385  56.535  1.00  0.00    -0.004 A 
HETATM   20  C   UNL     1       4.178  29.948  57.028  1.00  0.00     0.053 A 
HETATM   21  C   UNL     1       4.276  30.956  57.967  1.00  0.00     0.106 A 
HETATM   22  C   UNL     1       5.488  31.416  58.415  1.00  0.00     0.105 A 
HETATM   23  O   UNL     1       3.229  31.600  58.546  1.00  0.00    -0.323 OA
HETATM   24  O   UNL     1       5.360  32.406  59.335  1.00  0.00    -0.323 OA
HETATM   25  C   UNL     1       6.672  30.898  57.943  1.00  0.00     0.040 A 
HETATM   26  C   UNL     1       3.923  32.522  59.417  1.00  0.00     0.352 A 
HETATM   27  C   UNL     1       6.607  29.875  56.987  1.00  0.00     0.017 A 
ENDBRANCH   6  19
TORSDOF 5
ENDMDL
MODEL 10
REMARK VINA RESULT:      -8.3      3.969      9.067
REMARK  5 active torsions:
REMARK  status: ('A' for Active; 'I' for Inactive)
REMARK    1  A    between atoms: C_3  and  N_4 
REMARK    2  A    between atoms: N_5  and  C_6 
REMARK    3  A    between atoms: C_6  and  C_7 
REMARK    4  A    between atoms: C_7  and  C_8 
REMARK    5  A    between atoms: C_16  and  C_17 
ROOT
HETATM    1  C   UNL     1       4.939  29.519  56.891  1.00  0.00     0.175 C 
HETATM    2  N   UNL     1       6.272  29.733  57.436  1.00  0.00    -0.186 N 
HETATM    3  C   UNL     1       6.626  30.812  58.131  1.00  0.00     0.680 A 
HETATM    4  N   UNL     1       7.825  30.610  58.665  1.00  0.00    -0.184 N 
HETATM    5  C   UNL     1       8.271  29.360  58.273  1.00  0.00     0.140 A 
HETATM    6  C   UNL     1       7.326  28.796  57.441  1.00  0.00     0.077 A 
ENDROOT
BRANCH   4   7
HETATM    7  C   UNL     1       8.623  31.563  59.463  1.00  0.00     0.231 C 
BRANCH   7   8
HETATM    8  C   UNL     1       8.598  31.245  60.953  1.00  0.00     0.178 C 
HETATM    9  O   UNL     1       9.156  30.241  61.403  1.00  0.00    -0.290 OA
BRANCH   8  10
HETATM   10  C   UNL     1       7.903  32.176  61.877  1.00  0.00     0.011 A 
HETATM   11  C   UNL     1       6.879  33.026  61.442  1.00  0.00     0.015 A 
HETATM   12  C   UNL     1       6.268  33.895  62.348  1.00  0.00     0.001 A 
HETATM   13  C   UNL     1       6.672  33.912  63.684  1.00  0.00     0.000 A 
HETATM   14  C   UNL     1       7.678  33.055  64.122  1.00  0.00     0.001 A 
HETATM   15  C   UNL     1       8.292  32.182  63.223  1.00  0.00     0.015 A 
ENDBRANCH   8  10
ENDBRANCH   7   8
ENDBRANCH   4   7
BRANCH   3  16
HETATM   16  N   UNL     1       5.884  31.904  58.274  1.00  0.00    -0.234 N 
HETATM   17  H   UNL     1       5.313  32.075  59.083  1.00  0.00     0.174 HD
HETATM   18  H   UNL     1       6.042  32.693  57.643  1.00  0.00     0.174 HD
ENDBRANCH   3  16
BRANCH   6  19
HETATM   19  C   UNL     1       7.468  27.464  56.748  1.00  0.00    -0.004 A 
HETATM   20  C   UNL     1       7.917  26.352  57.480  1.00  0.00     0.053 A 
HETATM   21  C   UNL     1       8.040  25.146  56.820  1.00  0.00     0.106 A 
HETATM   22  C   UNL     1       7.744  25.012  55.487  1.00  0.00     0.105 A 
HETATM   23  O   UNL     1       8.453  23.978  57.381  1.00  0.00    -0.323 OA
HETATM   24  O   UNL     1       7.931  23.745  55.038  1.00  0.00    -0.323 OA
HETATM   25  C   UNL     1       7.315  26.082  54.736  1.00  0.00     0.040 A 
HETATM   26  C   UNL     1       8.383  23.089  56.243  1.00  0.00     0.352 A 
HETATM   27  C   UNL     1       7.184  27.323  55.375  1.00  0.00     0.017 A 
ENDBRANCH   6  19
TORSDOF 5
ENDMDL
