MODEL 1
REMARK VINA RESULT:      -9.8      0.000      0.000
REMARK  3 active torsions:
REMARK  status: ('A' for Active; 'I' for Inactive)
REMARK    1  A    between atoms: C_3  and  O_4 
REMARK    2  A    between atoms: C_6  and  C_7 
REMARK    3  A    between atoms: N_8  and  N_9 
ROOT
HETATM    1  N   UNL     1       7.141  26.097  55.997  1.00  0.00    -0.189 N 
HETATM    2  C   UNL     1       6.153  27.092  55.895  1.00  0.00     0.298 A 
HETATM    3  O   UNL     1       5.140  27.057  55.203  1.00  0.00    -0.264 OA
HETATM    4  C   UNL     1       6.446  28.204  56.744  1.00  0.00     0.133 A 
HETATM    5  C   UNL     1       7.504  28.245  57.604  1.00  0.00     0.103 A 
HETATM    6  N   UNL     1       8.402  27.188  57.755  1.00  0.00    -0.239 NA
HETATM    7  C   UNL     1       8.155  26.195  56.950  1.00  0.00     0.239 A 
HETATM    8  N   UNL     1       5.766  29.384  56.865  1.00  0.00    -0.349 N 
HETATM    9  H   UNL     1       4.929  29.624  56.351  1.00  0.00     0.166 HD
HETATM   10  C   UNL     1       6.406  30.196  57.783  1.00  0.00     0.045 A 
HETATM   11  C   UNL     1       7.512  29.488  58.271  1.00  0.00     0.024 A 
HETATM   12  C   UNL     1       6.089  31.490  58.215  1.00  0.00     0.032 A 
HETATM   13  C   UNL     1       6.929  32.074  59.169  1.00  0.00     0.026 A 
HETATM   14  C   UNL     1       8.034  31.385  59.669  1.00  0.00     0.035 A 
HETATM   15 CL   UNL     1       9.042  32.144  60.843  1.00  0.00    -0.084 Cl
HETATM   16  C   UNL     1       8.341  30.093  59.235  1.00  0.00     0.040 A 
ENDROOT
BRANCH   1  17
HETATM   17  N   UNL     1       7.113  24.901  55.289  1.00  0.00    -0.175 NA
HETATM   18  C   UNL     1       8.090  24.068  55.450  1.00  0.00     0.150 C 
BRANCH  18  19
HETATM   19  C   UNL     1       8.160  22.797  54.700  1.00  0.00    -0.014 A 
HETATM   20  C   UNL     1       8.485  21.631  55.396  1.00  0.00     0.049 A 
HETATM   21  C   UNL     1       8.549  20.424  54.709  1.00  0.00     0.066 A 
HETATM   22  C   UNL     1       8.294  20.362  53.342  1.00  0.00     0.036 A 
HETATM   23  C   UNL     1       7.970  21.530  52.648  1.00  0.00     0.004 A 
HETATM   24  C   UNL     1       7.903  22.751  53.326  1.00  0.00     0.013 A 
BRANCH  21  25
HETATM   25  O   UNL     1       8.868  19.307  55.423  1.00  0.00    -0.361 OA
HETATM   26  H   UNL     1       9.742  18.992  55.140  1.00  0.00     0.217 HD
ENDBRANCH  21  25
ENDBRANCH  18  19
ENDBRANCH   1  17
TORSDOF 3
ENDMDL
MODEL 2
REMARK VINA RESULT:      -9.3      3.621      8.892
REMARK  3 active torsions:
REMARK  status: ('A' for Active; 'I' for Inactive)
REMARK    1  A    between atoms: C_3  and  O_4 
REMARK    2  A    between atoms: C_6  and  C_7 
REMARK    3  A    between atoms: N_8  and  N_9 
ROOT
HETATM    1  N   UNL     1       7.324  27.555  57.073  1.00  0.00    -0.189 N 
HETATM    2  C   UNL     1       7.323  27.553  55.666  1.00  0.00     0.298 A 
HETATM    3  O   UNL     1       7.205  28.527  54.928  1.00  0.00    -0.264 OA
HETATM    4  C   UNL     1       7.507  26.234  55.148  1.00  0.00     0.133 A 
HETATM    5  C   UNL     1       7.743  25.139  55.926  1.00  0.00     0.103 A 
HETATM    6  N   UNL     1       7.846  25.201  57.316  1.00  0.00    -0.239 NA
HETATM    7  C   UNL     1       7.636  26.397  57.786  1.00  0.00     0.239 A 
HETATM    8  N   UNL     1       7.491  25.823  53.845  1.00  0.00    -0.349 N 
HETATM    9  H   UNL     1       7.347  26.430  53.048  1.00  0.00     0.166 HD
HETATM   10  C   UNL     1       7.687  24.455  53.787  1.00  0.00     0.045 A 
HETATM   11  C   UNL     1       7.855  24.000  55.102  1.00  0.00     0.024 A 
HETATM   12  C   UNL     1       7.729  23.597  52.681  1.00  0.00     0.032 A 
HETATM   13  C   UNL     1       7.947  22.238  52.929  1.00  0.00     0.026 A 
HETATM   14  C   UNL     1       8.119  21.765  54.229  1.00  0.00     0.035 A 
HETATM   15 CL   UNL     1       8.384  20.081  54.488  1.00  0.00    -0.084 Cl
HETATM   16  C   UNL     1       8.079  22.628  55.327  1.00  0.00     0.040 A 
ENDROOT
BRANCH   1  17
HETATM   17  N   UNL     1       7.170  28.699  57.847  1.00  0.00    -0.175 NA
HETATM   18  C   UNL     1       8.231  29.272  58.317  1.00  0.00     0.150 C 
BRANCH  18  19
HETATM   19  C   UNL     1       8.150  30.464  59.187  1.00  0.00    -0.014 A 
HETATM   20  C   UNL     1       6.976  31.220  59.172  1.00  0.00     0.049 A 
HETATM   21  C   UNL     1       6.879  32.340  59.988  1.00  0.00     0.066 A 
HETATM   22  C   UNL     1       7.931  32.718  60.818  1.00  0.00     0.036 A 
HETATM   23  C   UNL     1       9.104  31.960  60.830  1.00  0.00     0.004 A 
HETATM   24  C   UNL     1       9.217  30.832  60.014  1.00  0.00     0.013 A 
BRANCH  21  25
HETATM   25  O   UNL     1       5.716  33.052  59.947  1.00  0.00    -0.361 OA
HETATM   26  H   UNL     1       5.053  32.603  60.496  1.00  0.00     0.217 HD
ENDBRANCH  21  25
ENDBRANCH  18  19
ENDBRANCH   1  17
TORSDOF 3
ENDMDL
MODEL 3
REMARK VINA RESULT:      -9.2      2.670      3.414
REMARK  3 active torsions:
REMARK  status: ('A' for Active; 'I' for Inactive)
REMARK    1  A    between atoms: C_3  and  O_4 
REMARK    2  A    between atoms: C_6  and  C_7 
REMARK    3  A    between atoms: N_8  and  N_9 
ROOT
HETATM    1  N   UNL     1       6.740  25.844  56.359  1.00  0.00    -0.189 N 
HETATM    2  C   UNL     1       7.049  26.837  57.306  1.00  0.00     0.298 A 
HETATM    3  O   UNL     1       7.917  26.784  58.172  1.00  0.00    -0.264 OA
HETATM    4  C   UNL     1       6.222  27.990  57.138  1.00  0.00     0.133 A 
HETATM    5  C   UNL     1       5.315  28.135  56.130  1.00  0.00     0.103 A 
HETATM    6  N   UNL     1       5.116  27.169  55.143  1.00  0.00    -0.239 NA
HETATM    7  C   UNL     1       5.840  26.103  55.324  1.00  0.00     0.239 A 
HETATM    8  N   UNL     1       6.175  29.121  57.904  1.00  0.00    -0.349 N 
HETATM    9  H   UNL     1       6.751  29.293  58.718  1.00  0.00     0.166 HD
HETATM   10  C   UNL     1       5.215  29.982  57.404  1.00  0.00     0.045 A 
HETATM   11  C   UNL     1       4.659  29.375  56.270  1.00  0.00     0.024 A 
HETATM   12  C   UNL     1       4.803  31.238  57.866  1.00  0.00     0.032 A 
HETATM   13  C   UNL     1       3.794  31.889  57.147  1.00  0.00     0.026 A 
HETATM   14  C   UNL     1       3.229  31.303  56.015  1.00  0.00     0.035 A 
HETATM   15 CL   UNL     1       1.988  32.141  55.161  1.00  0.00    -0.084 Cl
HETATM   16  C   UNL     1       3.648  30.051  55.559  1.00  0.00     0.040 A 
ENDROOT
BRANCH   1  17
HETATM   17  N   UNL     1       7.388  24.617  56.282  1.00  0.00    -0.175 NA
HETATM   18  C   UNL     1       7.080  23.819  55.310  1.00  0.00     0.150 C 
BRANCH  18  19
HETATM   19  C   UNL     1       7.688  22.478  55.184  1.00  0.00    -0.014 A 
HETATM   20  C   UNL     1       7.680  21.860  53.931  1.00  0.00     0.049 A 
HETATM   21  C   UNL     1       8.253  20.602  53.791  1.00  0.00     0.066 A 
HETATM   22  C   UNL     1       8.833  19.951  54.877  1.00  0.00     0.036 A 
HETATM   23  C   UNL     1       8.839  20.572  56.128  1.00  0.00     0.004 A 
HETATM   24  C   UNL     1       8.265  21.836  56.284  1.00  0.00     0.013 A 
BRANCH  21  25
HETATM   25  O   UNL     1       8.227  20.031  52.552  1.00  0.00    -0.361 OA
HETATM   26  H   UNL     1       8.780  19.232  52.563  1.00  0.00     0.217 HD
ENDBRANCH  21  25
ENDBRANCH  18  19
ENDBRANCH   1  17
TORSDOF 3
ENDMDL
MODEL 4
REMARK VINA RESULT:      -9.0      1.015      1.489
REMARK  3 active torsions:
REMARK  status: ('A' for Active; 'I' for Inactive)
REMARK    1  A    between atoms: C_3  and  O_4 
REMARK    2  A    between atoms: C_6  and  C_7 
REMARK    3  A    between atoms: N_8  and  N_9 
ROOT
HETATM    1  N   UNL     1       7.357  26.027  56.091  1.00  0.00    -0.189 N 
HETATM    2  C   UNL     1       6.284  26.877  55.767  1.00  0.00     0.298 A 
HETATM    3  O   UNL     1       5.378  26.648  54.971  1.00  0.00    -0.264 OA
HETATM    4  C   UNL     1       6.339  28.093  56.515  1.00  0.00     0.133 A 
HETATM    5  C   UNL     1       7.268  28.349  57.481  1.00  0.00     0.103 A 
HETATM    6  N   UNL     1       8.253  27.433  57.850  1.00  0.00    -0.239 NA
HETATM    7  C   UNL     1       8.224  26.344  57.138  1.00  0.00     0.239 A 
HETATM    8  N   UNL     1       5.521  29.184  56.427  1.00  0.00    -0.349 N 
HETATM    9  H   UNL     1       4.734  29.267  55.796  1.00  0.00     0.166 HD
HETATM   10  C   UNL     1       5.943  30.155  57.317  1.00  0.00     0.045 A 
HETATM   11  C   UNL     1       7.051  29.641  58.003  1.00  0.00     0.024 A 
HETATM   12  C   UNL     1       5.429  31.434  57.563  1.00  0.00     0.032 A 
HETATM   13  C   UNL     1       6.070  32.208  58.537  1.00  0.00     0.026 A 
HETATM   14  C   UNL     1       7.173  31.714  59.233  1.00  0.00     0.035 A 
HETATM   15 CL   UNL     1       7.932  32.703  60.424  1.00  0.00    -0.084 Cl
HETATM   16  C   UNL     1       7.676  30.436  58.983  1.00  0.00     0.040 A 
ENDROOT
BRANCH   1  17
HETATM   17  N   UNL     1       7.555  24.775  55.521  1.00  0.00    -0.175 NA
HETATM   18  C   UNL     1       7.750  23.766  56.307  1.00  0.00     0.150 C 
BRANCH  18  19
HETATM   19  C   UNL     1       8.014  22.410  55.781  1.00  0.00    -0.014 A 
HETATM   20  C   UNL     1       7.720  22.148  54.441  1.00  0.00     0.049 A 
HETATM   21  C   UNL     1       7.968  20.882  53.926  1.00  0.00     0.066 A 
HETATM   22  C   UNL     1       8.504  19.874  54.723  1.00  0.00     0.036 A 
HETATM   23  C   UNL     1       8.797  20.139  56.063  1.00  0.00     0.004 A 
HETATM   24  C   UNL     1       8.551  21.408  56.595  1.00  0.00     0.013 A 
BRANCH  21  25
HETATM   25  O   UNL     1       7.669  20.664  52.613  1.00  0.00    -0.361 OA
HETATM   26  H   UNL     1       8.417  20.958  52.067  1.00  0.00     0.217 HD
ENDBRANCH  21  25
ENDBRANCH  18  19
ENDBRANCH   1  17
TORSDOF 3
ENDMDL
MODEL 5
REMARK VINA RESULT:      -8.9      3.680      9.013
REMARK  3 active torsions:
REMARK  status: ('A' for Active; 'I' for Inactive)
REMARK    1  A    between atoms: C_3  and  O_4 
REMARK    2  A    between atoms: C_6  and  C_7 
REMARK    3  A    between atoms: N_8  and  N_9 
ROOT
HETATM    1  N   UNL     1       7.350  27.016  56.464  1.00  0.00    -0.189 N 
HETATM    2  C   UNL     1       7.640  26.002  57.394  1.00  0.00     0.298 A 
HETATM    3  O   UNL     1       7.714  26.120  58.613  1.00  0.00    -0.264 OA
HETATM    4  C   UNL     1       7.825  24.741  56.748  1.00  0.00     0.133 A 
HETATM    5  C   UNL     1       7.653  24.541  55.409  1.00  0.00     0.103 A 
HETATM    6  N   UNL     1       7.259  25.553  54.534  1.00  0.00    -0.239 NA
HETATM    7  C   UNL     1       7.132  26.709  55.120  1.00  0.00     0.239 A 
HETATM    8  N   UNL     1       8.186  23.545  57.302  1.00  0.00    -0.349 N 
HETATM    9  H   UNL     1       8.369  23.396  58.286  1.00  0.00     0.166 HD
HETATM   10  C   UNL     1       8.276  22.582  56.314  1.00  0.00     0.045 A 
HETATM   11  C   UNL     1       7.935  23.194  55.101  1.00  0.00     0.024 A 
HETATM   12  C   UNL     1       8.629  21.230  56.404  1.00  0.00     0.032 A 
HETATM   13  C   UNL     1       8.633  20.486  55.219  1.00  0.00     0.026 A 
HETATM   14  C   UNL     1       8.295  21.075  54.001  1.00  0.00     0.035 A 
HETATM   15 CL   UNL     1       8.315  20.121  52.567  1.00  0.00    -0.084 Cl
HETATM   16  C   UNL     1       7.941  22.424  53.921  1.00  0.00     0.040 A 
ENDROOT
BRANCH   1  17
HETATM   17  N   UNL     1       7.119  28.342  56.809  1.00  0.00    -0.175 NA
HETATM   18  C   UNL     1       5.929  28.679  57.194  1.00  0.00     0.150 C 
BRANCH  18  19
HETATM   19  C   UNL     1       5.588  30.076  57.534  1.00  0.00    -0.014 A 
HETATM   20  C   UNL     1       4.361  30.584  57.103  1.00  0.00     0.049 A 
HETATM   21  C   UNL     1       4.019  31.894  57.418  1.00  0.00     0.066 A 
HETATM   22  C   UNL     1       4.879  32.703  58.155  1.00  0.00     0.036 A 
HETATM   23  C   UNL     1       6.106  32.192  58.584  1.00  0.00     0.004 A 
HETATM   24  C   UNL     1       6.464  30.877  58.273  1.00  0.00     0.013 A 
BRANCH  21  25
HETATM   25  O   UNL     1       2.812  32.354  56.981  1.00  0.00    -0.361 OA
HETATM   26  H   UNL     1       2.733  33.295  57.210  1.00  0.00     0.217 HD
ENDBRANCH  21  25
ENDBRANCH  18  19
ENDBRANCH   1  17
TORSDOF 3
ENDMDL
MODEL 6
REMARK VINA RESULT:      -8.8      5.264      6.664
REMARK  3 active torsions:
REMARK  status: ('A' for Active; 'I' for Inactive)
REMARK    1  A    between atoms: C_3  and  O_4 
REMARK    2  A    between atoms: C_6  and  C_7 
REMARK    3  A    between atoms: N_8  and  N_9 
ROOT
HETATM    1  N   UNL     1       6.369  25.805  53.183  1.00  0.00    -0.189 N 
HETATM    2  C   UNL     1       6.528  27.199  53.283  1.00  0.00     0.298 A 
HETATM    3  O   UNL     1       7.132  27.810  54.159  1.00  0.00    -0.264 OA
HETATM    4  C   UNL     1       5.905  27.874  52.188  1.00  0.00     0.133 A 
HETATM    5  C   UNL     1       5.312  27.234  51.140  1.00  0.00     0.103 A 
HETATM    6  N   UNL     1       5.270  25.844  51.023  1.00  0.00    -0.239 NA
HETATM    7  C   UNL     1       5.802  25.234  52.043  1.00  0.00     0.239 A 
HETATM    8  N   UNL     1       5.785  29.218  51.974  1.00  0.00    -0.349 N 
HETATM    9  H   UNL     1       6.146  29.936  52.590  1.00  0.00     0.166 HD
HETATM   10  C   UNL     1       5.087  29.442  50.802  1.00  0.00     0.045 A 
HETATM   11  C   UNL     1       4.781  28.191  50.251  1.00  0.00     0.024 A 
HETATM   12  C   UNL     1       4.711  30.647  50.194  1.00  0.00     0.032 A 
HETATM   13  C   UNL     1       4.000  30.566  48.992  1.00  0.00     0.026 A 
HETATM   14  C   UNL     1       3.687  29.331  48.426  1.00  0.00     0.035 A 
HETATM   15 CL   UNL     1       2.808  29.279  46.944  1.00  0.00    -0.084 Cl
HETATM   16  C   UNL     1       4.069  28.135  49.037  1.00  0.00     0.040 A 
ENDROOT
BRANCH   1  17
HETATM   17  N   UNL     1       6.875  24.898  54.106  1.00  0.00    -0.175 NA
HETATM   18  C   UNL     1       7.234  23.728  53.684  1.00  0.00     0.150 C 
BRANCH  18  19
HETATM   19  C   UNL     1       7.739  22.690  54.608  1.00  0.00    -0.014 A 
HETATM   20  C   UNL     1       8.150  21.468  54.074  1.00  0.00     0.049 A 
HETATM   21  C   UNL     1       8.634  20.482  54.926  1.00  0.00     0.066 A 
HETATM   22  C   UNL     1       8.714  20.695  56.299  1.00  0.00     0.036 A 
HETATM   23  C   UNL     1       8.302  21.919  56.830  1.00  0.00     0.004 A 
HETATM   24  C   UNL     1       7.812  22.920  55.986  1.00  0.00     0.013 A 
BRANCH  21  25
HETATM   25  O   UNL     1       9.028  19.302  54.366  1.00  0.00    -0.361 OA
HETATM   26  H   UNL     1       8.761  19.292  53.432  1.00  0.00     0.217 HD
ENDBRANCH  21  25
ENDBRANCH  18  19
ENDBRANCH   1  17
TORSDOF 3
ENDMDL
MODEL 7
REMARK VINA RESULT:      -8.6      1.982      2.424
REMARK  3 active torsions:
REMARK  status: ('A' for Active; 'I' for Inactive)
REMARK    1  A    between atoms: C_3  and  O_4 
REMARK    2  A    between atoms: C_6  and  C_7 
REMARK    3  A    between atoms: N_8  and  N_9 
ROOT
HETATM    1  N   UNL     1       6.513  26.061  54.867  1.00  0.00    -0.189 N 
HETATM    2  C   UNL     1       5.389  26.685  54.298  1.00  0.00     0.298 A 
HETATM    3  O   UNL     1       4.753  26.306  53.319  1.00  0.00    -0.264 OA
HETATM    4  C   UNL     1       5.019  27.856  55.028  1.00  0.00     0.133 A 
HETATM    5  C   UNL     1       5.631  28.260  56.178  1.00  0.00     0.103 A 
HETATM    6  N   UNL     1       6.676  27.551  56.771  1.00  0.00    -0.239 NA
HETATM    7  C   UNL     1       7.037  26.507  56.082  1.00  0.00     0.239 A 
HETATM    8  N   UNL     1       4.033  28.760  54.744  1.00  0.00    -0.349 N 
HETATM    9  H   UNL     1       3.409  28.704  53.949  1.00  0.00     0.166 HD
HETATM   10  C   UNL     1       4.032  29.761  55.698  1.00  0.00     0.045 A 
HETATM   11  C   UNL     1       5.038  29.459  56.624  1.00  0.00     0.024 A 
HETATM   12  C   UNL     1       3.221  30.898  55.808  1.00  0.00     0.032 A 
HETATM   13  C   UNL     1       3.450  31.748  56.895  1.00  0.00     0.026 A 
HETATM   14  C   UNL     1       4.446  31.464  57.830  1.00  0.00     0.035 A 
HETATM   15 CL   UNL     1       4.693  32.540  59.153  1.00  0.00    -0.084 Cl
HETATM   16  C   UNL     1       5.247  30.326  57.714  1.00  0.00     0.040 A 
ENDROOT
BRANCH   1  17
HETATM   17  N   UNL     1       7.091  24.899  54.370  1.00  0.00    -0.175 NA
HETATM   18  C   UNL     1       7.057  23.833  55.103  1.00  0.00     0.150 C 
BRANCH  18  19
HETATM   19  C   UNL     1       7.689  22.569  54.667  1.00  0.00    -0.014 A 
HETATM   20  C   UNL     1       8.379  21.811  55.615  1.00  0.00     0.049 A 
HETATM   21  C   UNL     1       8.974  20.616  55.226  1.00  0.00     0.066 A 
HETATM   22  C   UNL     1       8.892  20.167  53.911  1.00  0.00     0.036 A 
HETATM   23  C   UNL     1       8.200  20.929  52.966  1.00  0.00     0.004 A 
HETATM   24  C   UNL     1       7.598  22.132  53.342  1.00  0.00     0.013 A 
BRANCH  21  25
HETATM   25  O   UNL     1       9.639  19.902  56.179  1.00  0.00    -0.361 OA
HETATM   26  H   UNL     1      10.319  19.359  55.748  1.00  0.00     0.217 HD
ENDBRANCH  21  25
ENDBRANCH  18  19
ENDBRANCH   1  17
TORSDOF 3
ENDMDL
MODEL 8
REMARK VINA RESULT:      -8.6      2.202      2.979
REMARK  3 active torsions:
REMARK  status: ('A' for Active; 'I' for Inactive)
REMARK    1  A    between atoms: C_3  and  O_4 
REMARK    2  A    between atoms: C_6  and  C_7 
REMARK    3  A    between atoms: N_8  and  N_9 
ROOT
HETATM    1  N   UNL     1       7.438  28.474  56.491  1.00  0.00    -0.189 N 
HETATM    2  C   UNL     1       6.474  29.498  56.499  1.00  0.00     0.298 A 
HETATM    3  O   UNL     1       5.616  29.709  55.647  1.00  0.00    -0.264 OA
HETATM    4  C   UNL     1       6.580  30.302  57.676  1.00  0.00     0.133 A 
HETATM    5  C   UNL     1       7.449  30.045  58.695  1.00  0.00     0.103 A 
HETATM    6  N   UNL     1       8.316  28.953  58.698  1.00  0.00    -0.239 NA
HETATM    7  C   UNL     1       8.246  28.247  57.606  1.00  0.00     0.239 A 
HETATM    8  N   UNL     1       5.872  31.423  58.006  1.00  0.00    -0.349 N 
HETATM    9  H   UNL     1       5.147  31.839  57.435  1.00  0.00     0.166 HD
HETATM   10  C   UNL     1       6.308  31.906  59.226  1.00  0.00     0.045 A 
HETATM   11  C   UNL     1       7.308  31.039  59.686  1.00  0.00     0.024 A 
HETATM   12  C   UNL     1       5.894  33.031  59.950  1.00  0.00     0.032 A 
HETATM   13  C   UNL     1       6.523  33.275  61.175  1.00  0.00     0.026 A 
HETATM   14  C   UNL     1       7.520  32.424  61.652  1.00  0.00     0.035 A 
HETATM   15 CL   UNL     1       8.269  32.765  63.166  1.00  0.00    -0.084 Cl
HETATM   16  C   UNL     1       7.924  31.302  60.925  1.00  0.00     0.040 A 
ENDROOT
BRANCH   1  17
HETATM   17  N   UNL     1       7.567  27.538  55.471  1.00  0.00    -0.175 NA
HETATM   18  C   UNL     1       7.382  26.289  55.757  1.00  0.00     0.150 C 
BRANCH  18  19
HETATM   19  C   UNL     1       7.546  25.227  54.742  1.00  0.00    -0.014 A 
HETATM   20  C   UNL     1       7.565  25.593  53.394  1.00  0.00     0.049 A 
HETATM   21  C   UNL     1       7.726  24.610  52.425  1.00  0.00     0.066 A 
HETATM   22  C   UNL     1       7.866  23.270  52.777  1.00  0.00     0.036 A 
HETATM   23  C   UNL     1       7.846  22.908  54.126  1.00  0.00     0.004 A 
HETATM   24  C   UNL     1       7.685  23.885  55.111  1.00  0.00     0.013 A 
BRANCH  21  25
HETATM   25  O   UNL     1       7.741  25.006  51.120  1.00  0.00    -0.361 OA
HETATM   26  H   UNL     1       7.202  25.810  51.030  1.00  0.00     0.217 HD
ENDBRANCH  21  25
ENDBRANCH  18  19
ENDBRANCH   1  17
TORSDOF 3
ENDMDL
MODEL 9
REMARK VINA RESULT:      -8.5      8.885     13.995
REMARK  3 active torsions:
REMARK  status: ('A' for Active; 'I' for Inactive)
REMARK    1  A    between atoms: C_3  and  O_4 
REMARK    2  A    between atoms: C_6  and  C_7 
REMARK    3  A    between atoms: N_8  and  N_9 
ROOT
HETATM    1  N   UNL     1       6.019  33.818  65.856  1.00  0.00    -0.189 N 
HETATM    2  C   UNL     1       4.950  33.721  64.947  1.00  0.00     0.298 A 
HETATM    3  O   UNL     1       3.768  33.966  65.170  1.00  0.00    -0.264 OA
HETATM    4  C   UNL     1       5.402  33.310  63.655  1.00  0.00     0.133 A 
HETATM    5  C   UNL     1       6.714  33.124  63.333  1.00  0.00     0.103 A 
HETATM    6  N   UNL     1       7.756  33.337  64.237  1.00  0.00    -0.239 NA
HETATM    7  C   UNL     1       7.337  33.670  65.423  1.00  0.00     0.239 A 
HETATM    8  N   UNL     1       4.659  33.038  62.541  1.00  0.00    -0.349 N 
HETATM    9  H   UNL     1       3.650  33.105  62.488  1.00  0.00     0.166 HD
HETATM   10  C   UNL     1       5.493  32.648  61.509  1.00  0.00     0.045 A 
HETATM   11  C   UNL     1       6.808  32.702  61.991  1.00  0.00     0.024 A 
HETATM   12  C   UNL     1       5.184  32.259  60.200  1.00  0.00     0.032 A 
HETATM   13  C   UNL     1       6.251  31.913  59.364  1.00  0.00     0.026 A 
HETATM   14  C   UNL     1       7.567  31.961  59.823  1.00  0.00     0.035 A 
HETATM   15 CL   UNL     1       8.850  31.525  58.757  1.00  0.00    -0.084 Cl
HETATM   16  C   UNL     1       7.866  32.354  61.129  1.00  0.00     0.040 A 
ENDROOT
BRANCH   1  17
HETATM   17  N   UNL     1       5.875  34.200  67.184  1.00  0.00    -0.175 NA
HETATM   18  C   UNL     1       6.936  34.531  67.848  1.00  0.00     0.150 C 
BRANCH  18  19
HETATM   19  C   UNL     1       6.876  34.905  69.276  1.00  0.00    -0.014 A 
HETATM   20  C   UNL     1       6.036  34.174  70.119  1.00  0.00     0.049 A 
HETATM   21  C   UNL     1       5.970  34.506  71.467  1.00  0.00     0.066 A 
HETATM   22  C   UNL     1       6.727  35.552  71.987  1.00  0.00     0.036 A 
HETATM   23  C   UNL     1       7.566  36.281  71.141  1.00  0.00     0.004 A 
HETATM   24  C   UNL     1       7.641  35.959  69.783  1.00  0.00     0.013 A 
BRANCH  21  25
HETATM   25  O   UNL     1       5.140  33.769  72.259  1.00  0.00    -0.361 OA
HETATM   26  H   UNL     1       5.676  33.255  72.885  1.00  0.00     0.217 HD
ENDBRANCH  21  25
ENDBRANCH  18  19
ENDBRANCH   1  17
TORSDOF 3
ENDMDL
MODEL 10
REMARK VINA RESULT:      -8.4      3.794      8.905
REMARK  3 active torsions:
REMARK  status: ('A' for Active; 'I' for Inactive)
REMARK    1  A    between atoms: C_3  and  O_4 
REMARK    2  A    between atoms: C_6  and  C_7 
REMARK    3  A    between atoms: N_8  and  N_9 
ROOT
HETATM    1  N   UNL     1       6.765  27.773  56.374  1.00  0.00    -0.189 N 
HETATM    2  C   UNL     1       6.969  27.530  55.004  1.00  0.00     0.298 A 
HETATM    3  O   UNL     1       6.940  28.356  54.097  1.00  0.00    -0.264 OA
HETATM    4  C   UNL     1       7.254  26.152  54.757  1.00  0.00     0.133 A 
HETATM    5  C   UNL     1       7.396  25.217  55.741  1.00  0.00     0.103 A 
HETATM    6  N   UNL     1       7.294  25.522  57.098  1.00  0.00    -0.239 NA
HETATM    7  C   UNL     1       6.993  26.770  57.316  1.00  0.00     0.239 A 
HETATM    8  N   UNL     1       7.438  25.522  53.558  1.00  0.00    -0.349 N 
HETATM    9  H   UNL     1       7.399  25.977  52.654  1.00  0.00     0.166 HD
HETATM   10  C   UNL     1       7.668  24.175  53.770  1.00  0.00     0.045 A 
HETATM   11  C   UNL     1       7.652  23.961  55.154  1.00  0.00     0.024 A 
HETATM   12  C   UNL     1       7.889  23.144  52.849  1.00  0.00     0.032 A 
HETATM   13  C   UNL     1       8.096  21.858  53.361  1.00  0.00     0.026 A 
HETATM   14  C   UNL     1       8.086  21.623  54.736  1.00  0.00     0.035 A 
HETATM   15 CL   UNL     1       8.345  20.023  55.321  1.00  0.00    -0.084 Cl
HETATM   16  C   UNL     1       7.868  22.659  55.647  1.00  0.00     0.040 A 
ENDROOT
BRANCH   1  17
HETATM   17  N   UNL     1       6.475  29.024  56.905  1.00  0.00    -0.175 NA
HETATM   18  C   UNL     1       5.233  29.374  57.011  1.00  0.00     0.150 C 
BRANCH  18  19
HETATM   19  C   UNL     1       4.842  30.705  57.522  1.00  0.00    -0.014 A 
HETATM   20  C   UNL     1       3.917  30.771  58.566  1.00  0.00     0.049 A 
HETATM   21  C   UNL     1       3.542  32.013  59.064  1.00  0.00     0.066 A 
HETATM   22  C   UNL     1       4.073  33.188  58.539  1.00  0.00     0.036 A 
HETATM   23  C   UNL     1       4.997  33.118  57.494  1.00  0.00     0.004 A 
HETATM   24  C   UNL     1       5.383  31.876  56.982  1.00  0.00     0.013 A 
BRANCH  21  25
HETATM   25  O   UNL     1       2.638  32.037  60.085  1.00  0.00    -0.361 OA
HETATM   26  H   UNL     1       2.858  32.770  60.683  1.00  0.00     0.217 HD
ENDBRANCH  21  25
ENDBRANCH  18  19
ENDBRANCH   1  17
TORSDOF 3
ENDMDL
