MODEL 1
REMARK VINA RESULT:     -10.1      0.000      0.000
REMARK  10 active torsions:
REMARK  status: ('A' for Active; 'I' for Inactive)
REMARK    1  A    between atoms: C_2  and  C_3 
REMARK    2  A    between atoms: C_3  and  C_4 
REMARK    3  A    between atoms: C_4  and  O_5 
REMARK    4  A    between atoms: O_5  and  C_6 
REMARK    5  A    between atoms: C_9  and  C_10 
REMARK       I    between atoms: C_10  and  N_11 
REMARK    6  A    between atoms: N_11  and  C_12 
REMARK    7  A    between atoms: C_12  and  N_13 
REMARK    8  A    between atoms: N_13  and  C_14 
REMARK    9  A    between atoms: C_16  and  C_17 
REMARK   10  A    between atoms: C_26  and  O_27 
ROOT
HETATM    1  N   UNL     1       6.662  28.286  57.014  1.00  0.00    -0.333 N 
HETATM    2  H   UNL     1       6.747  27.357  57.417  1.00  0.00     0.168 HD
ENDROOT
BRANCH   1   3
HETATM    3  C   UNL     1       5.634  28.392  56.110  1.00  0.00     0.179 C 
HETATM    4  S   UNL     1       5.159  29.934  55.669  1.00  0.00    -0.040 SA
BRANCH   3   5
HETATM    5  N   UNL     1       5.025  27.208  55.752  1.00  0.00    -0.299 N 
HETATM    6  C   UNL     1       5.431  25.980  56.247  1.00  0.00     0.257 C 
HETATM    7  O   UNL     1       5.051  25.546  57.329  1.00  0.00    -0.267 OA
HETATM    8  H   UNL     1       4.822  27.213  54.762  1.00  0.00     0.171 HD
BRANCH   6   9
HETATM    9  C   UNL     1       6.329  25.161  55.370  1.00  0.00     0.032 A 
HETATM   10  C   UNL     1       7.604  24.740  55.775  1.00  0.00     0.020 A 
HETATM   11  C   UNL     1       8.353  23.887  54.959  1.00  0.00     0.038 A 
HETATM   12  C   UNL     1       7.825  23.424  53.757  1.00  0.00     0.068 A 
HETATM   13  C   UNL     1       6.579  23.871  53.322  1.00  0.00     0.038 A 
HETATM   14  C   UNL     1       5.830  24.732  54.131  1.00  0.00     0.020 A 
BRANCH  12  15
HETATM   15  O   UNL     1       8.602  22.547  53.052  1.00  0.00    -0.351 OA
BRANCH  15  16
HETATM   16  C   UNL     1       8.034  21.233  52.967  1.00  0.00     0.175 C 
BRANCH  16  17
HETATM   17  C   UNL     1       8.686  20.371  54.046  1.00  0.00     0.026 C 
BRANCH  17  18
HETATM   18  C   UNL     1       7.855  20.345  55.325  1.00  0.00    -0.002 C 
HETATM   19  C   UNL     1       8.720  20.567  56.556  1.00  0.00     0.005 C 
ENDBRANCH  17  18
ENDBRANCH  16  17
ENDBRANCH  15  16
ENDBRANCH  12  15
ENDBRANCH   6   9
ENDBRANCH   3   5
ENDBRANCH   1   3
BRANCH   1  20
HETATM   20  C   UNL     1       7.478  29.278  57.592  1.00  0.00     0.035 A 
HETATM   21  C   UNL     1       7.051  30.118  58.624  1.00  0.00     0.048 A 
HETATM   22  C   UNL     1       7.945  31.006  59.248  1.00  0.00     0.053 A 
HETATM   23  C   UNL     1       9.275  31.056  58.792  1.00  0.00     0.086 A 
HETATM   24  C   UNL     1       9.709  30.249  57.732  1.00  0.00    -0.026 A 
HETATM   25  C   UNL     1      11.132  30.285  57.251  1.00  0.00     0.051 C 
HETATM   26  C   UNL     1       8.807  29.337  57.165  1.00  0.00     0.039 A 
BRANCH  22  27
HETATM   27  C   UNL     1       7.519  31.816  60.386  1.00  0.00     0.183 A 
HETATM   28  O   UNL     1       8.182  31.631  61.571  1.00  0.00    -0.289 OA
HETATM   29  C   UNL     1       7.603  32.534  62.414  1.00  0.00     0.106 A 
HETATM   30  C   UNL     1       6.623  33.210  61.704  1.00  0.00     0.093 A 
HETATM   31  C   UNL     1       7.921  32.767  63.745  1.00  0.00     0.040 A 
HETATM   32  N   UNL     1       6.557  32.724  60.421  1.00  0.00    -0.221 NA
HETATM   33  C   UNL     1       5.897  34.221  62.346  1.00  0.00     0.034 A 
HETATM   34  C   UNL     1       6.196  34.497  63.689  1.00  0.00     0.002 A 
HETATM   35  C   UNL     1       7.185  33.779  64.375  1.00  0.00     0.003 A 
ENDBRANCH  22  27
BRANCH  23  36
HETATM   36  O   UNL     1      10.210  31.878  59.373  1.00  0.00    -0.359 OA
HETATM   37  H   UNL     1      10.654  32.400  58.671  1.00  0.00     0.218 HD
ENDBRANCH  23  36
ENDBRANCH   1  20
TORSDOF 10
ENDMDL
MODEL 2
REMARK VINA RESULT:      -9.9      2.361      3.624
REMARK  10 active torsions:
REMARK  status: ('A' for Active; 'I' for Inactive)
REMARK    1  A    between atoms: C_2  and  C_3 
REMARK    2  A    between atoms: C_3  and  C_4 
REMARK    3  A    between atoms: C_4  and  O_5 
REMARK    4  A    between atoms: O_5  and  C_6 
REMARK    5  A    between atoms: C_9  and  C_10 
REMARK       I    between atoms: C_10  and  N_11 
REMARK    6  A    between atoms: N_11  and  C_12 
REMARK    7  A    between atoms: C_12  and  N_13 
REMARK    8  A    between atoms: N_13  and  C_14 
REMARK    9  A    between atoms: C_16  and  C_17 
REMARK   10  A    between atoms: C_26  and  O_27 
ROOT
HETATM    1  N   UNL     1       5.097  29.622  54.095  1.00  0.00    -0.333 N 
HETATM    2  H   UNL     1       4.814  30.588  54.237  1.00  0.00     0.168 HD
ENDROOT
BRANCH   1   3
HETATM    3  C   UNL     1       4.831  29.160  52.830  1.00  0.00     0.179 C 
HETATM    4  S   UNL     1       3.232  29.154  52.338  1.00  0.00    -0.040 SA
BRANCH   3   5
HETATM    5  N   UNL     1       5.906  28.639  52.142  1.00  0.00    -0.299 N 
HETATM    6  C   UNL     1       5.799  27.531  51.318  1.00  0.00     0.257 C 
HETATM    7  O   UNL     1       5.424  27.610  50.153  1.00  0.00    -0.267 OA
HETATM    8  H   UNL     1       6.725  28.641  52.735  1.00  0.00     0.171 HD
BRANCH   6   9
HETATM    9  C   UNL     1       6.215  26.214  51.898  1.00  0.00     0.032 A 
HETATM   10  C   UNL     1       7.557  25.886  52.148  1.00  0.00     0.020 A 
HETATM   11  C   UNL     1       7.877  24.687  52.791  1.00  0.00     0.038 A 
HETATM   12  C   UNL     1       6.868  23.828  53.216  1.00  0.00     0.068 A 
HETATM   13  C   UNL     1       5.535  24.120  52.933  1.00  0.00     0.038 A 
HETATM   14  C   UNL     1       5.210  25.313  52.282  1.00  0.00     0.020 A 
BRANCH  12  15
HETATM   15  O   UNL     1       7.271  22.707  53.889  1.00  0.00    -0.351 OA
BRANCH  15  16
HETATM   16  C   UNL     1       7.898  21.735  53.042  1.00  0.00     0.175 C 
BRANCH  16  17
HETATM   17  C   UNL     1       8.155  20.483  53.877  1.00  0.00     0.026 C 
BRANCH  17  18
HETATM   18  C   UNL     1       7.821  20.709  55.348  1.00  0.00    -0.002 C 
HETATM   19  C   UNL     1       9.025  20.450  56.240  1.00  0.00     0.005 C 
ENDBRANCH  17  18
ENDBRANCH  16  17
ENDBRANCH  15  16
ENDBRANCH  12  15
ENDBRANCH   6   9
ENDBRANCH   3   5
ENDBRANCH   1   3
BRANCH   1  20
HETATM   20  C   UNL     1       5.845  29.047  55.141  1.00  0.00     0.035 A 
HETATM   21  C   UNL     1       6.379  29.785  56.199  1.00  0.00     0.048 A 
HETATM   22  C   UNL     1       7.011  29.144  57.280  1.00  0.00     0.053 A 
HETATM   23  C   UNL     1       7.122  27.742  57.261  1.00  0.00     0.086 A 
HETATM   24  C   UNL     1       6.627  26.989  56.188  1.00  0.00    -0.026 A 
HETATM   25  C   UNL     1       6.728  25.490  56.169  1.00  0.00     0.051 C 
HETATM   26  C   UNL     1       5.957  27.653  55.151  1.00  0.00     0.039 A 
BRANCH  22  27
HETATM   27  C   UNL     1       7.487  29.912  58.427  1.00  0.00     0.183 A 
HETATM   28  O   UNL     1       6.727  30.981  58.826  1.00  0.00    -0.289 OA
HETATM   29  C   UNL     1       7.388  31.463  59.918  1.00  0.00     0.106 A 
HETATM   30  C   UNL     1       8.507  30.670  60.121  1.00  0.00     0.093 A 
HETATM   31  C   UNL     1       7.026  32.542  60.712  1.00  0.00     0.040 A 
HETATM   32  N   UNL     1       8.577  29.703  59.148  1.00  0.00    -0.221 NA
HETATM   33  C   UNL     1       9.341  30.944  61.211  1.00  0.00     0.034 A 
HETATM   34  C   UNL     1       9.005  32.020  62.047  1.00  0.00     0.002 A 
HETATM   35  C   UNL     1       7.872  32.806  61.798  1.00  0.00     0.003 A 
ENDBRANCH  22  27
BRANCH  23  36
HETATM   36  O   UNL     1       7.701  27.046  58.295  1.00  0.00    -0.359 OA
HETATM   37  H   UNL     1       8.456  27.566  58.644  1.00  0.00     0.218 HD
ENDBRANCH  23  36
ENDBRANCH   1  20
TORSDOF 10
ENDMDL
MODEL 3
REMARK VINA RESULT:      -9.9      2.112     10.942
REMARK  10 active torsions:
REMARK  status: ('A' for Active; 'I' for Inactive)
REMARK    1  A    between atoms: C_2  and  C_3 
REMARK    2  A    between atoms: C_3  and  C_4 
REMARK    3  A    between atoms: C_4  and  O_5 
REMARK    4  A    between atoms: O_5  and  C_6 
REMARK    5  A    between atoms: C_9  and  C_10 
REMARK       I    between atoms: C_10  and  N_11 
REMARK    6  A    between atoms: N_11  and  C_12 
REMARK    7  A    between atoms: C_12  and  N_13 
REMARK    8  A    between atoms: N_13  and  C_14 
REMARK    9  A    between atoms: C_16  and  C_17 
REMARK   10  A    between atoms: C_26  and  O_27 
ROOT
HETATM    1  N   UNL     1       8.127  29.259  55.424  1.00  0.00    -0.333 N 
HETATM    2  H   UNL     1       8.278  30.060  54.818  1.00  0.00     0.168 HD
ENDROOT
BRANCH   1   3
HETATM    3  C   UNL     1       8.620  29.439  56.692  1.00  0.00     0.179 C 
HETATM    4  S   UNL     1      10.261  29.725  56.841  1.00  0.00    -0.040 SA
BRANCH   3   5
HETATM    5  N   UNL     1       7.721  29.246  57.719  1.00  0.00    -0.299 N 
HETATM    6  C   UNL     1       6.860  30.239  58.155  1.00  0.00     0.257 C 
HETATM    7  O   UNL     1       5.787  30.469  57.607  1.00  0.00    -0.267 OA
HETATM    8  H   UNL     1       8.158  28.717  58.463  1.00  0.00     0.171 HD
BRANCH   6   9
HETATM    9  C   UNL     1       7.272  31.004  59.375  1.00  0.00     0.032 A 
HETATM   10  C   UNL     1       6.530  32.082  59.881  1.00  0.00     0.020 A 
HETATM   11  C   UNL     1       6.903  32.688  61.084  1.00  0.00     0.038 A 
HETATM   12  C   UNL     1       7.993  32.206  61.803  1.00  0.00     0.068 A 
HETATM   13  C   UNL     1       8.766  31.167  61.289  1.00  0.00     0.038 A 
HETATM   14  C   UNL     1       8.402  30.563  60.082  1.00  0.00     0.020 A 
BRANCH  12  15
HETATM   15  O   UNL     1       8.249  32.821  62.998  1.00  0.00    -0.351 OA
BRANCH  15  16
HETATM   16  C   UNL     1       7.086  33.419  63.585  1.00  0.00     0.175 C 
BRANCH  16  17
HETATM   17  C   UNL     1       7.317  33.507  65.092  1.00  0.00     0.026 C 
BRANCH  17  18
HETATM   18  C   UNL     1       6.041  33.891  65.836  1.00  0.00    -0.002 C 
HETATM   19  C   UNL     1       4.814  33.753  64.948  1.00  0.00     0.005 C 
ENDBRANCH  17  18
ENDBRANCH  16  17
ENDBRANCH  15  16
ENDBRANCH  12  15
ENDBRANCH   6   9
ENDBRANCH   3   5
ENDBRANCH   1   3
BRANCH   1  20
HETATM   20  C   UNL     1       7.305  28.243  54.897  1.00  0.00     0.035 A 
HETATM   21  C   UNL     1       7.653  26.891  54.910  1.00  0.00     0.048 A 
HETATM   22  C   UNL     1       6.743  25.907  54.483  1.00  0.00     0.053 A 
HETATM   23  C   UNL     1       5.481  26.315  54.012  1.00  0.00     0.086 A 
HETATM   24  C   UNL     1       5.131  27.671  53.955  1.00  0.00    -0.026 A 
HETATM   25  C   UNL     1       3.780  28.111  53.468  1.00  0.00     0.051 C 
HETATM   26  C   UNL     1       6.041  28.622  54.435  1.00  0.00     0.039 A 
BRANCH  22  27
HETATM   27  C   UNL     1       7.075  24.489  54.584  1.00  0.00     0.183 A 
HETATM   28  O   UNL     1       7.300  23.812  53.414  1.00  0.00    -0.289 OA
HETATM   29  C   UNL     1       7.621  22.550  53.823  1.00  0.00     0.106 A 
HETATM   30  C   UNL     1       7.570  22.527  55.208  1.00  0.00     0.093 A 
HETATM   31  C   UNL     1       7.955  21.466  53.024  1.00  0.00     0.040 A 
HETATM   32  N   UNL     1       7.192  23.759  55.682  1.00  0.00    -0.221 NA
HETATM   33  C   UNL     1       7.893  21.341  55.878  1.00  0.00     0.034 A 
HETATM   34  C   UNL     1       8.248  20.222  55.107  1.00  0.00     0.002 A 
HETATM   35  C   UNL     1       8.273  20.285  53.707  1.00  0.00     0.003 A 
ENDBRANCH  22  27
BRANCH  23  36
HETATM   36  O   UNL     1       4.531  25.409  53.606  1.00  0.00    -0.359 OA
HETATM   37  H   UNL     1       4.035  25.786  52.849  1.00  0.00     0.218 HD
ENDBRANCH  23  36
ENDBRANCH   1  20
TORSDOF 10
ENDMDL
MODEL 4
REMARK VINA RESULT:      -9.9      2.245     11.522
REMARK  10 active torsions:
REMARK  status: ('A' for Active; 'I' for Inactive)
REMARK    1  A    between atoms: C_2  and  C_3 
REMARK    2  A    between atoms: C_3  and  C_4 
REMARK    3  A    between atoms: C_4  and  O_5 
REMARK    4  A    between atoms: O_5  and  C_6 
REMARK    5  A    between atoms: C_9  and  C_10 
REMARK       I    between atoms: C_10  and  N_11 
REMARK    6  A    between atoms: N_11  and  C_12 
REMARK    7  A    between atoms: C_12  and  N_13 
REMARK    8  A    between atoms: N_13  and  C_14 
REMARK    9  A    between atoms: C_16  and  C_17 
REMARK   10  A    between atoms: C_26  and  O_27 
ROOT
HETATM    1  N   UNL     1       7.919  28.534  58.120  1.00  0.00    -0.333 N 
HETATM    2  H   UNL     1       8.547  27.977  58.692  1.00  0.00     0.168 HD
ENDROOT
BRANCH   1   3
HETATM    3  C   UNL     1       7.997  29.879  58.382  1.00  0.00     0.179 C 
HETATM    4  S   UNL     1       9.480  30.619  58.156  1.00  0.00    -0.040 SA
BRANCH   3   5
HETATM    5  N   UNL     1       6.864  30.452  58.919  1.00  0.00    -0.299 N 
HETATM    6  C   UNL     1       6.825  31.769  59.349  1.00  0.00     0.257 C 
HETATM    7  O   UNL     1       6.622  32.706  58.584  1.00  0.00    -0.267 OA
HETATM    8  H   UNL     1       6.410  29.798  59.542  1.00  0.00     0.171 HD
BRANCH   6   9
HETATM    9  C   UNL     1       6.993  32.007  60.818  1.00  0.00     0.032 A 
HETATM   10  C   UNL     1       8.224  31.853  61.475  1.00  0.00     0.020 A 
HETATM   11  C   UNL     1       8.345  32.194  62.825  1.00  0.00     0.038 A 
HETATM   12  C   UNL     1       7.257  32.719  63.517  1.00  0.00     0.068 A 
HETATM   13  C   UNL     1       6.018  32.834  62.888  1.00  0.00     0.038 A 
HETATM   14  C   UNL     1       5.889  32.485  61.541  1.00  0.00     0.020 A 
BRANCH  12  15
HETATM   15  O   UNL     1       7.483  33.081  64.816  1.00  0.00    -0.351 OA
BRANCH  15  16
HETATM   16  C   UNL     1       6.464  33.938  65.348  1.00  0.00     0.175 C 
BRANCH  16  17
HETATM   17  C   UNL     1       6.768  34.164  66.827  1.00  0.00     0.026 C 
BRANCH  17  18
HETATM   18  C   UNL     1       5.499  34.437  67.628  1.00  0.00    -0.002 C 
HETATM   19  C   UNL     1       5.775  34.448  69.124  1.00  0.00     0.005 C 
ENDBRANCH  17  18
ENDBRANCH  16  17
ENDBRANCH  15  16
ENDBRANCH  12  15
ENDBRANCH   6   9
ENDBRANCH   3   5
ENDBRANCH   1   3
BRANCH   1  20
HETATM   20  C   UNL     1       7.262  27.840  57.085  1.00  0.00     0.035 A 
HETATM   21  C   UNL     1       7.603  26.544  56.692  1.00  0.00     0.048 A 
HETATM   22  C   UNL     1       6.834  25.853  55.739  1.00  0.00     0.053 A 
HETATM   23  C   UNL     1       5.728  26.505  55.163  1.00  0.00     0.086 A 
HETATM   24  C   UNL     1       5.396  27.819  55.517  1.00  0.00    -0.026 A 
HETATM   25  C   UNL     1       4.206  28.515  54.918  1.00  0.00     0.051 C 
HETATM   26  C   UNL     1       6.151  28.462  56.507  1.00  0.00     0.039 A 
BRANCH  22  27
HETATM   27  C   UNL     1       7.140  24.466  55.398  1.00  0.00     0.183 A 
HETATM   28  O   UNL     1       7.267  24.159  54.069  1.00  0.00    -0.289 OA
HETATM   29  C   UNL     1       7.585  22.833  54.068  1.00  0.00     0.106 A 
HETATM   30  C   UNL     1       7.631  22.407  55.386  1.00  0.00     0.093 A 
HETATM   31  C   UNL     1       7.837  22.028  52.965  1.00  0.00     0.040 A 
HETATM   32  N   UNL     1       7.316  23.448  56.225  1.00  0.00    -0.221 NA
HETATM   33  C   UNL     1       7.971  21.075  55.656  1.00  0.00     0.034 A 
HETATM   34  C   UNL     1       8.245  20.230  54.569  1.00  0.00     0.002 A 
HETATM   35  C   UNL     1       8.174  20.698  53.250  1.00  0.00     0.003 A 
ENDBRANCH  22  27
BRANCH  23  36
HETATM   36  O   UNL     1       4.915  25.881  54.247  1.00  0.00    -0.359 OA
HETATM   37  H   UNL     1       4.954  24.912  54.396  1.00  0.00     0.218 HD
ENDBRANCH  23  36
ENDBRANCH   1  20
TORSDOF 10
ENDMDL
MODEL 5
REMARK VINA RESULT:      -9.6      2.222     11.265
REMARK  10 active torsions:
REMARK  status: ('A' for Active; 'I' for Inactive)
REMARK    1  A    between atoms: C_2  and  C_3 
REMARK    2  A    between atoms: C_3  and  C_4 
REMARK    3  A    between atoms: C_4  and  O_5 
REMARK    4  A    between atoms: O_5  and  C_6 
REMARK    5  A    between atoms: C_9  and  C_10 
REMARK       I    between atoms: C_10  and  N_11 
REMARK    6  A    between atoms: N_11  and  C_12 
REMARK    7  A    between atoms: C_12  and  N_13 
REMARK    8  A    between atoms: N_13  and  C_14 
REMARK    9  A    between atoms: C_16  and  C_17 
REMARK   10  A    between atoms: C_26  and  O_27 
ROOT
HETATM    1  N   UNL     1       8.077  29.695  59.091  1.00  0.00    -0.333 N 
HETATM    2  H   UNL     1       7.891  29.376  60.038  1.00  0.00     0.168 HD
ENDROOT
BRANCH   1   3
HETATM    3  C   UNL     1       9.207  30.468  58.993  1.00  0.00     0.179 C 
HETATM    4  S   UNL     1       9.959  30.537  57.500  1.00  0.00    -0.040 SA
BRANCH   3   5
HETATM    5  N   UNL     1       9.667  31.012  60.173  1.00  0.00    -0.299 N 
HETATM    6  C   UNL     1       9.036  30.804  61.388  1.00  0.00     0.257 C 
HETATM    7  O   UNL     1       9.236  29.806  62.072  1.00  0.00    -0.267 OA
HETATM    8  H   UNL     1       9.967  31.965  60.017  1.00  0.00     0.171 HD
BRANCH   6   9
HETATM    9  C   UNL     1       8.120  31.887  61.868  1.00  0.00     0.032 A 
HETATM   10  C   UNL     1       7.129  32.459  61.055  1.00  0.00     0.020 A 
HETATM   11  C   UNL     1       6.233  33.388  61.590  1.00  0.00     0.038 A 
HETATM   12  C   UNL     1       6.295  33.727  62.938  1.00  0.00     0.068 A 
HETATM   13  C   UNL     1       7.302  33.202  63.746  1.00  0.00     0.038 A 
HETATM   14  C   UNL     1       8.208  32.279  63.213  1.00  0.00     0.020 A 
BRANCH  12  15
HETATM   15  O   UNL     1       5.341  34.598  63.389  1.00  0.00    -0.351 OA
BRANCH  15  16
HETATM   16  C   UNL     1       5.655  35.970  63.113  1.00  0.00     0.175 C 
BRANCH  16  17
HETATM   17  C   UNL     1       5.029  36.823  64.213  1.00  0.00     0.026 C 
BRANCH  17  18
HETATM   18  C   UNL     1       4.017  36.030  65.034  1.00  0.00    -0.002 C 
HETATM   19  C   UNL     1       4.380  36.020  66.510  1.00  0.00     0.005 C 
ENDBRANCH  17  18
ENDBRANCH  16  17
ENDBRANCH  15  16
ENDBRANCH  12  15
ENDBRANCH   6   9
ENDBRANCH   3   5
ENDBRANCH   1   3
BRANCH   1  20
HETATM   20  C   UNL     1       7.259  29.138  58.089  1.00  0.00     0.035 A 
HETATM   21  C   UNL     1       7.539  27.924  57.457  1.00  0.00     0.048 A 
HETATM   22  C   UNL     1       6.625  27.354  56.552  1.00  0.00     0.053 A 
HETATM   23  C   UNL     1       5.433  28.046  56.271  1.00  0.00     0.086 A 
HETATM   24  C   UNL     1       5.155  29.284  56.867  1.00  0.00    -0.026 A 
HETATM   25  C   UNL     1       3.877  30.021  56.584  1.00  0.00     0.051 C 
HETATM   26  C   UNL     1       6.062  29.801  57.802  1.00  0.00     0.039 A 
BRANCH  22  27
HETATM   27  C   UNL     1       6.879  26.042  55.964  1.00  0.00     0.183 A 
HETATM   28  O   UNL     1       6.954  25.970  54.598  1.00  0.00    -0.289 OA
HETATM   29  C   UNL     1       7.233  24.657  54.353  1.00  0.00     0.106 A 
HETATM   30  C   UNL     1       7.309  24.006  55.574  1.00  0.00     0.093 A 
HETATM   31  C   UNL     1       7.426  24.053  53.119  1.00  0.00     0.040 A 
HETATM   32  N   UNL     1       7.051  24.890  56.593  1.00  0.00    -0.221 NA
HETATM   33  C   UNL     1       7.618  22.640  55.595  1.00  0.00     0.034 A 
HETATM   34  C   UNL     1       7.833  21.993  54.368  1.00  0.00     0.002 A 
HETATM   35  C   UNL     1       7.733  22.686  53.154  1.00  0.00     0.003 A 
ENDBRANCH  22  27
BRANCH  23  36
HETATM   36  O   UNL     1       4.482  27.536  55.421  1.00  0.00    -0.359 OA
HETATM   37  H   UNL     1       4.685  26.593  55.246  1.00  0.00     0.218 HD
ENDBRANCH  23  36
ENDBRANCH   1  20
TORSDOF 10
ENDMDL
MODEL 6
REMARK VINA RESULT:      -9.6      2.037     10.919
REMARK  10 active torsions:
REMARK  status: ('A' for Active; 'I' for Inactive)
REMARK    1  A    between atoms: C_2  and  C_3 
REMARK    2  A    between atoms: C_3  and  C_4 
REMARK    3  A    between atoms: C_4  and  O_5 
REMARK    4  A    between atoms: O_5  and  C_6 
REMARK    5  A    between atoms: C_9  and  C_10 
REMARK       I    between atoms: C_10  and  N_11 
REMARK    6  A    between atoms: N_11  and  C_12 
REMARK    7  A    between atoms: C_12  and  N_13 
REMARK    8  A    between atoms: N_13  and  C_14 
REMARK    9  A    between atoms: C_16  and  C_17 
REMARK   10  A    between atoms: C_26  and  O_27 
ROOT
HETATM    1  N   UNL     1       8.252  29.426  58.347  1.00  0.00    -0.333 N 
HETATM    2  H   UNL     1       8.261  29.029  59.282  1.00  0.00     0.168 HD
ENDROOT
BRANCH   1   3
HETATM    3  C   UNL     1       9.211  30.390  58.159  1.00  0.00     0.179 C 
HETATM    4  S   UNL     1      10.668  29.901  57.497  1.00  0.00    -0.040 SA
BRANCH   3   5
HETATM    5  N   UNL     1       8.908  31.642  58.649  1.00  0.00    -0.299 N 
HETATM    6  C   UNL     1       9.233  32.040  59.935  1.00  0.00     0.257 C 
HETATM    7  O   UNL     1      10.340  32.477  60.230  1.00  0.00    -0.267 OA
HETATM    8  H   UNL     1       7.980  31.912  58.351  1.00  0.00     0.171 HD
BRANCH   6   9
HETATM    9  C   UNL     1       8.145  31.963  60.962  1.00  0.00     0.032 A 
HETATM   10  C   UNL     1       8.405  31.807  62.332  1.00  0.00     0.020 A 
HETATM   11  C   UNL     1       7.356  31.851  63.254  1.00  0.00     0.038 A 
HETATM   12  C   UNL     1       6.053  32.083  62.824  1.00  0.00     0.068 A 
HETATM   13  C   UNL     1       5.775  32.193  61.463  1.00  0.00     0.038 A 
HETATM   14  C   UNL     1       6.820  32.140  60.535  1.00  0.00     0.020 A 
BRANCH  12  15
HETATM   15  O   UNL     1       5.099  32.169  63.800  1.00  0.00    -0.351 OA
BRANCH  15  16
HETATM   16  C   UNL     1       5.264  33.313  64.649  1.00  0.00     0.175 C 
BRANCH  16  17
HETATM   17  C   UNL     1       4.015  34.181  64.511  1.00  0.00     0.026 C 
BRANCH  17  18
HETATM   18  C   UNL     1       4.294  35.446  63.705  1.00  0.00    -0.002 C 
HETATM   19  C   UNL     1       5.786  35.666  63.510  1.00  0.00     0.005 C 
ENDBRANCH  17  18
ENDBRANCH  16  17
ENDBRANCH  15  16
ENDBRANCH  12  15
ENDBRANCH   6   9
ENDBRANCH   3   5
ENDBRANCH   1   3
BRANCH   1  20
HETATM   20  C   UNL     1       7.402  28.788  57.423  1.00  0.00     0.035 A 
HETATM   21  C   UNL     1       7.747  27.616  56.745  1.00  0.00     0.048 A 
HETATM   22  C   UNL     1       6.814  26.954  55.927  1.00  0.00     0.053 A 
HETATM   23  C   UNL     1       5.531  27.513  55.780  1.00  0.00     0.086 A 
HETATM   24  C   UNL     1       5.182  28.709  56.421  1.00  0.00    -0.026 A 
HETATM   25  C   UNL     1       3.808  29.301  56.280  1.00  0.00     0.051 C 
HETATM   26  C   UNL     1       6.117  29.316  57.269  1.00  0.00     0.039 A 
BRANCH  22  27
HETATM   27  C   UNL     1       7.148  25.682  55.294  1.00  0.00     0.183 A 
HETATM   28  O   UNL     1       7.211  24.576  56.101  1.00  0.00    -0.289 OA
HETATM   29  C   UNL     1       7.496  23.557  55.240  1.00  0.00     0.106 A 
HETATM   30  C   UNL     1       7.594  24.094  53.966  1.00  0.00     0.093 A 
HETATM   31  C   UNL     1       7.654  22.213  55.548  1.00  0.00     0.040 A 
HETATM   32  N   UNL     1       7.400  25.453  54.015  1.00  0.00    -0.221 NA
HETATM   33  C   UNL     1       7.851  23.238  52.888  1.00  0.00     0.034 A 
HETATM   34  C   UNL     1       8.006  21.868  53.155  1.00  0.00     0.002 A 
HETATM   35  C   UNL     1       7.913  21.369  54.461  1.00  0.00     0.003 A 
ENDBRANCH  22  27
BRANCH  23  36
HETATM   36  O   UNL     1       4.559  26.906  55.020  1.00  0.00    -0.359 OA
HETATM   37  H   UNL     1       4.865  26.860  54.090  1.00  0.00     0.218 HD
ENDBRANCH  23  36
ENDBRANCH   1  20
TORSDOF 10
ENDMDL
MODEL 7
REMARK VINA RESULT:      -9.6      2.352     10.224
REMARK  10 active torsions:
REMARK  status: ('A' for Active; 'I' for Inactive)
REMARK    1  A    between atoms: C_2  and  C_3 
REMARK    2  A    between atoms: C_3  and  C_4 
REMARK    3  A    between atoms: C_4  and  O_5 
REMARK    4  A    between atoms: O_5  and  C_6 
REMARK    5  A    between atoms: C_9  and  C_10 
REMARK       I    between atoms: C_10  and  N_11 
REMARK    6  A    between atoms: N_11  and  C_12 
REMARK    7  A    between atoms: C_12  and  N_13 
REMARK    8  A    between atoms: N_13  and  C_14 
REMARK    9  A    between atoms: C_16  and  C_17 
REMARK   10  A    between atoms: C_26  and  O_27 
ROOT
HETATM    1  N   UNL     1       3.807  28.313  56.227  1.00  0.00    -0.333 N 
HETATM    2  H   UNL     1       2.978  27.729  56.296  1.00  0.00     0.168 HD
ENDROOT
BRANCH   1   3
HETATM    3  C   UNL     1       3.519  29.645  56.063  1.00  0.00     0.179 C 
HETATM    4  S   UNL     1       3.890  30.333  54.585  1.00  0.00    -0.040 SA
BRANCH   3   5
HETATM    5  N   UNL     1       3.059  30.302  57.185  1.00  0.00    -0.299 N 
HETATM    6  C   UNL     1       3.426  31.602  57.492  1.00  0.00     0.257 C 
HETATM    7  O   UNL     1       2.861  32.577  57.007  1.00  0.00    -0.267 OA
HETATM    8  H   UNL     1       3.059  29.672  57.976  1.00  0.00     0.171 HD
BRANCH   6   9
HETATM    9  C   UNL     1       4.524  31.776  58.495  1.00  0.00     0.032 A 
HETATM   10  C   UNL     1       5.883  31.745  58.145  1.00  0.00     0.020 A 
HETATM   11  C   UNL     1       6.860  32.022  59.104  1.00  0.00     0.038 A 
HETATM   12  C   UNL     1       6.493  32.364  60.403  1.00  0.00     0.068 A 
HETATM   13  C   UNL     1       5.149  32.355  60.774  1.00  0.00     0.038 A 
HETATM   14  C   UNL     1       4.168  32.068  59.821  1.00  0.00     0.020 A 
BRANCH  12  15
HETATM   15  O   UNL     1       7.512  32.678  61.258  1.00  0.00    -0.351 OA
BRANCH  15  16
HETATM   16  C   UNL     1       7.546  31.846  62.425  1.00  0.00     0.175 C 
BRANCH  16  17
HETATM   17  C   UNL     1       8.043  32.696  63.592  1.00  0.00     0.026 C 
BRANCH  17  18
HETATM   18  C   UNL     1       6.973  33.668  64.077  1.00  0.00    -0.002 C 
HETATM   19  C   UNL     1       6.889  33.693  65.595  1.00  0.00     0.005 C 
ENDBRANCH  17  18
ENDBRANCH  16  17
ENDBRANCH  15  16
ENDBRANCH  12  15
ENDBRANCH   6   9
ENDBRANCH   3   5
ENDBRANCH   1   3
BRANCH   1  20
HETATM   20  C   UNL     1       5.031  27.667  56.489  1.00  0.00     0.035 A 
HETATM   21  C   UNL     1       5.367  26.417  55.964  1.00  0.00     0.048 A 
HETATM   22  C   UNL     1       6.650  25.874  56.158  1.00  0.00     0.053 A 
HETATM   23  C   UNL     1       7.582  26.602  56.920  1.00  0.00     0.086 A 
HETATM   24  C   UNL     1       7.248  27.839  57.488  1.00  0.00    -0.026 A 
HETATM   25  C   UNL     1       8.243  28.629  58.289  1.00  0.00     0.051 C 
HETATM   26  C   UNL     1       5.978  28.376  57.233  1.00  0.00     0.039 A 
BRANCH  22  27
HETATM   27  C   UNL     1       7.028  24.611  55.530  1.00  0.00     0.183 A 
HETATM   28  O   UNL     1       7.287  23.551  56.359  1.00  0.00    -0.289 OA
HETATM   29  C   UNL     1       7.566  22.527  55.502  1.00  0.00     0.106 A 
HETATM   30  C   UNL     1       7.466  23.016  54.209  1.00  0.00     0.093 A 
HETATM   31  C   UNL     1       7.884  21.216  55.832  1.00  0.00     0.040 A 
HETATM   32  N   UNL     1       7.153  24.353  54.239  1.00  0.00    -0.221 NA
HETATM   33  C   UNL     1       7.679  22.142  53.137  1.00  0.00     0.034 A 
HETATM   34  C   UNL     1       7.991  20.804  53.426  1.00  0.00     0.002 A 
HETATM   35  C   UNL     1       8.096  20.353  54.749  1.00  0.00     0.003 A 
ENDBRANCH  22  27
BRANCH  23  36
HETATM   36  O   UNL     1       8.862  26.148  57.127  1.00  0.00    -0.359 OA
HETATM   37  H   UNL     1       9.155  25.650  56.334  1.00  0.00     0.218 HD
ENDBRANCH  23  36
ENDBRANCH   1  20
TORSDOF 10
ENDMDL
MODEL 8
REMARK VINA RESULT:      -9.4      4.223      8.542
REMARK  10 active torsions:
REMARK  status: ('A' for Active; 'I' for Inactive)
REMARK    1  A    between atoms: C_2  and  C_3 
REMARK    2  A    between atoms: C_3  and  C_4 
REMARK    3  A    between atoms: C_4  and  O_5 
REMARK    4  A    between atoms: O_5  and  C_6 
REMARK    5  A    between atoms: C_9  and  C_10 
REMARK       I    between atoms: C_10  and  N_11 
REMARK    6  A    between atoms: N_11  and  C_12 
REMARK    7  A    between atoms: C_12  and  N_13 
REMARK    8  A    between atoms: N_13  and  C_14 
REMARK    9  A    between atoms: C_16  and  C_17 
REMARK   10  A    between atoms: C_26  and  O_27 
ROOT
HETATM    1  N   UNL     1       6.756  29.150  55.126  1.00  0.00    -0.333 N 
HETATM    2  H   UNL     1       7.619  29.679  55.038  1.00  0.00     0.168 HD
ENDROOT
BRANCH   1   3
HETATM    3  C   UNL     1       5.984  29.546  56.188  1.00  0.00     0.179 C 
HETATM    4  S   UNL     1       5.179  31.006  56.048  1.00  0.00    -0.040 SA
BRANCH   3   5
HETATM    5  N   UNL     1       6.050  28.747  57.310  1.00  0.00    -0.299 N 
HETATM    6  C   UNL     1       7.176  28.009  57.636  1.00  0.00     0.257 C 
HETATM    7  O   UNL     1       8.127  28.491  58.242  1.00  0.00    -0.267 OA
HETATM    8  H   UNL     1       5.177  28.250  57.429  1.00  0.00     0.171 HD
BRANCH   6   9
HETATM    9  C   UNL     1       7.167  26.559  57.259  1.00  0.00     0.032 A 
HETATM   10  C   UNL     1       5.995  25.874  56.906  1.00  0.00     0.020 A 
HETATM   11  C   UNL     1       6.062  24.552  56.458  1.00  0.00     0.038 A 
HETATM   12  C   UNL     1       7.294  23.918  56.327  1.00  0.00     0.068 A 
HETATM   13  C   UNL     1       8.462  24.571  56.718  1.00  0.00     0.038 A 
HETATM   14  C   UNL     1       8.399  25.890  57.175  1.00  0.00     0.020 A 
BRANCH  12  15
HETATM   15  O   UNL     1       7.270  22.646  55.825  1.00  0.00    -0.351 OA
BRANCH  15  16
HETATM   16  C   UNL     1       8.569  22.042  55.757  1.00  0.00     0.175 C 
BRANCH  16  17
HETATM   17  C   UNL     1       8.376  20.542  55.548  1.00  0.00     0.026 C 
BRANCH  17  18
HETATM   18  C   UNL     1       8.743  20.119  54.129  1.00  0.00    -0.002 C 
HETATM   19  C   UNL     1       7.986  20.932  53.091  1.00  0.00     0.005 C 
ENDBRANCH  17  18
ENDBRANCH  16  17
ENDBRANCH  15  16
ENDBRANCH  12  15
ENDBRANCH   6   9
ENDBRANCH   3   5
ENDBRANCH   1   3
BRANCH   1  20
HETATM   20  C   UNL     1       6.467  28.277  54.059  1.00  0.00     0.035 A 
HETATM   21  C   UNL     1       5.500  28.546  53.087  1.00  0.00     0.048 A 
HETATM   22  C   UNL     1       5.338  27.699  51.976  1.00  0.00     0.053 A 
HETATM   23  C   UNL     1       6.150  26.554  51.877  1.00  0.00     0.086 A 
HETATM   24  C   UNL     1       7.097  26.248  52.863  1.00  0.00    -0.026 A 
HETATM   25  C   UNL     1       7.978  25.036  52.754  1.00  0.00     0.051 C 
HETATM   26  C   UNL     1       7.270  27.139  53.931  1.00  0.00     0.039 A 
BRANCH  22  27
HETATM   27  C   UNL     1       4.391  28.032  50.916  1.00  0.00     0.183 A 
HETATM   28  O   UNL     1       3.319  28.816  51.256  1.00  0.00    -0.289 OA
HETATM   29  C   UNL     1       2.652  28.987  50.078  1.00  0.00     0.106 A 
HETATM   30  C   UNL     1       3.346  28.301  49.094  1.00  0.00     0.093 A 
HETATM   31  C   UNL     1       1.492  29.719  49.866  1.00  0.00     0.040 A 
HETATM   32  N   UNL     1       4.436  27.671  49.644  1.00  0.00    -0.221 NA
HETATM   33  C   UNL     1       2.876  28.347  47.776  1.00  0.00     0.034 A 
HETATM   34  C   UNL     1       1.712  29.088  47.516  1.00  0.00     0.002 A 
HETATM   35  C   UNL     1       1.032  29.755  48.543  1.00  0.00     0.003 A 
ENDBRANCH  22  27
BRANCH  23  36
HETATM   36  O   UNL     1       6.067  25.698  50.805  1.00  0.00    -0.359 OA
HETATM   37  H   UNL     1       6.947  25.291  50.655  1.00  0.00     0.218 HD
ENDBRANCH  23  36
ENDBRANCH   1  20
TORSDOF 10
ENDMDL
MODEL 9
REMARK VINA RESULT:      -9.4      2.076     10.773
REMARK  10 active torsions:
REMARK  status: ('A' for Active; 'I' for Inactive)
REMARK    1  A    between atoms: C_2  and  C_3 
REMARK    2  A    between atoms: C_3  and  C_4 
REMARK    3  A    between atoms: C_4  and  O_5 
REMARK    4  A    between atoms: O_5  and  C_6 
REMARK    5  A    between atoms: C_9  and  C_10 
REMARK       I    between atoms: C_10  and  N_11 
REMARK    6  A    between atoms: N_11  and  C_12 
REMARK    7  A    between atoms: C_12  and  N_13 
REMARK    8  A    between atoms: N_13  and  C_14 
REMARK    9  A    between atoms: C_16  and  C_17 
REMARK   10  A    between atoms: C_26  and  O_27 
ROOT
HETATM    1  N   UNL     1       4.791  28.959  57.321  1.00  0.00    -0.333 N 
HETATM    2  H   UNL     1       4.626  28.412  58.161  1.00  0.00     0.168 HD
ENDROOT
BRANCH   1   3
HETATM    3  C   UNL     1       5.049  30.282  57.578  1.00  0.00     0.179 C 
HETATM    4  S   UNL     1       3.733  31.297  57.763  1.00  0.00    -0.040 SA
BRANCH   3   5
HETATM    5  N   UNL     1       6.376  30.654  57.539  1.00  0.00    -0.299 N 
HETATM    6  C   UNL     1       7.326  30.123  58.396  1.00  0.00     0.257 C 
HETATM    7  O   UNL     1       7.888  29.055  58.177  1.00  0.00    -0.267 OA
HETATM    8  H   UNL     1       6.449  31.653  57.404  1.00  0.00     0.171 HD
BRANCH   6   9
HETATM    9  C   UNL     1       7.686  30.942  59.597  1.00  0.00     0.032 A 
HETATM   10  C   UNL     1       6.913  32.029  60.033  1.00  0.00     0.020 A 
HETATM   11  C   UNL     1       7.237  32.687  61.223  1.00  0.00     0.038 A 
HETATM   12  C   UNL     1       8.307  32.250  61.998  1.00  0.00     0.068 A 
HETATM   13  C   UNL     1       9.110  31.201  61.554  1.00  0.00     0.038 A 
HETATM   14  C   UNL     1       8.796  30.544  60.360  1.00  0.00     0.020 A 
BRANCH  12  15
HETATM   15  O   UNL     1       8.514  32.915  63.175  1.00  0.00    -0.351 OA
BRANCH  15  16
HETATM   16  C   UNL     1       7.592  32.537  64.206  1.00  0.00     0.175 C 
BRANCH  16  17
HETATM   17  C   UNL     1       6.810  33.784  64.613  1.00  0.00     0.026 C 
BRANCH  17  18
HETATM   18  C   UNL     1       5.327  33.481  64.804  1.00  0.00    -0.002 C 
HETATM   19  C   UNL     1       4.455  34.430  63.998  1.00  0.00     0.005 C 
ENDBRANCH  17  18
ENDBRANCH  16  17
ENDBRANCH  15  16
ENDBRANCH  12  15
ENDBRANCH   6   9
ENDBRANCH   3   5
ENDBRANCH   1   3
BRANCH   1  20
HETATM   20  C   UNL     1       4.898  28.221  56.125  1.00  0.00     0.035 A 
HETATM   21  C   UNL     1       5.609  27.023  56.023  1.00  0.00     0.048 A 
HETATM   22  C   UNL     1       5.580  26.265  54.839  1.00  0.00     0.053 A 
HETATM   23  C   UNL     1       4.842  26.753  53.744  1.00  0.00     0.086 A 
HETATM   24  C   UNL     1       4.155  27.972  53.817  1.00  0.00    -0.026 A 
HETATM   25  C   UNL     1       3.353  28.490  52.657  1.00  0.00     0.051 C 
HETATM   26  C   UNL     1       4.162  28.678  55.028  1.00  0.00     0.039 A 
BRANCH  22  27
HETATM   27  C   UNL     1       6.249  24.970  54.766  1.00  0.00     0.183 A 
HETATM   28  O   UNL     1       6.665  24.546  53.531  1.00  0.00    -0.289 OA
HETATM   29  C   UNL     1       7.276  23.353  53.783  1.00  0.00     0.106 A 
HETATM   30  C   UNL     1       7.196  23.115  55.146  1.00  0.00     0.093 A 
HETATM   31  C   UNL     1       7.888  22.510  52.866  1.00  0.00     0.040 A 
HETATM   32  N   UNL     1       6.513  24.136  55.759  1.00  0.00    -0.221 NA
HETATM   33  C   UNL     1       7.784  21.955  55.667  1.00  0.00     0.034 A 
HETATM   34  C   UNL     1       8.424  21.081  54.774  1.00  0.00     0.002 A 
HETATM   35  C   UNL     1       8.470  21.353  53.400  1.00  0.00     0.003 A 
ENDBRANCH  22  27
BRANCH  23  36
HETATM   36  O   UNL     1       4.745  26.052  52.566  1.00  0.00    -0.359 OA
HETATM   37  H   UNL     1       5.534  26.243  52.016  1.00  0.00     0.218 HD
ENDBRANCH  23  36
ENDBRANCH   1  20
TORSDOF 10
ENDMDL
MODEL 10
REMARK VINA RESULT:      -9.2      2.219      3.011
REMARK  10 active torsions:
REMARK  status: ('A' for Active; 'I' for Inactive)
REMARK    1  A    between atoms: C_2  and  C_3 
REMARK    2  A    between atoms: C_3  and  C_4 
REMARK    3  A    between atoms: C_4  and  O_5 
REMARK    4  A    between atoms: O_5  and  C_6 
REMARK    5  A    between atoms: C_9  and  C_10 
REMARK       I    between atoms: C_10  and  N_11 
REMARK    6  A    between atoms: N_11  and  C_12 
REMARK    7  A    between atoms: C_12  and  N_13 
REMARK    8  A    between atoms: N_13  and  C_14 
REMARK    9  A    between atoms: C_16  and  C_17 
REMARK   10  A    between atoms: C_26  and  O_27 
ROOT
HETATM    1  N   UNL     1       7.400  29.891  55.939  1.00  0.00    -0.333 N 
HETATM    2  H   UNL     1       8.116  30.530  55.606  1.00  0.00     0.168 HD
ENDROOT
BRANCH   1   3
HETATM    3  C   UNL     1       7.676  28.576  55.661  1.00  0.00     0.179 C 
HETATM    4  S   UNL     1       8.223  27.626  56.924  1.00  0.00    -0.040 SA
BRANCH   3   5
HETATM    5  N   UNL     1       7.583  28.209  54.336  1.00  0.00    -0.299 N 
HETATM    6  C   UNL     1       6.631  27.316  53.873  1.00  0.00     0.257 C 
HETATM    7  O   UNL     1       5.488  27.658  53.590  1.00  0.00    -0.267 OA
HETATM    8  H   UNL     1       8.508  28.068  53.953  1.00  0.00     0.171 HD
BRANCH   6   9
HETATM    9  C   UNL     1       7.072  25.897  53.680  1.00  0.00     0.032 A 
HETATM   10  C   UNL     1       7.610  25.429  52.472  1.00  0.00     0.020 A 
HETATM   11  C   UNL     1       8.106  24.125  52.383  1.00  0.00     0.038 A 
HETATM   12  C   UNL     1       8.099  23.295  53.500  1.00  0.00     0.068 A 
HETATM   13  C   UNL     1       7.526  23.732  54.693  1.00  0.00     0.038 A 
HETATM   14  C   UNL     1       7.021  25.033  54.784  1.00  0.00     0.020 A 
BRANCH  12  15
HETATM   15  O   UNL     1       8.658  22.057  53.339  1.00  0.00    -0.351 OA
BRANCH  15  16
HETATM   16  C   UNL     1       7.803  20.991  53.772  1.00  0.00     0.175 C 
BRANCH  16  17
HETATM   17  C   UNL     1       8.666  19.972  54.513  1.00  0.00     0.026 C 
BRANCH  17  18
HETATM   18  C   UNL     1       9.323  20.581  55.747  1.00  0.00    -0.002 C 
HETATM   19  C   UNL     1       8.299  20.893  56.828  1.00  0.00     0.005 C 
ENDBRANCH  17  18
ENDBRANCH  16  17
ENDBRANCH  15  16
ENDBRANCH  12  15
ENDBRANCH   6   9
ENDBRANCH   3   5
ENDBRANCH   1   3
BRANCH   1  20
HETATM   20  C   UNL     1       6.401  30.466  56.750  1.00  0.00     0.035 A 
HETATM   21  C   UNL     1       6.633  30.915  58.051  1.00  0.00     0.048 A 
HETATM   22  C   UNL     1       5.632  31.592  58.771  1.00  0.00     0.053 A 
HETATM   23  C   UNL     1       4.377  31.781  58.163  1.00  0.00     0.086 A 
HETATM   24  C   UNL     1       4.114  31.302  56.873  1.00  0.00    -0.026 A 
HETATM   25  C   UNL     1       2.782  31.515  56.213  1.00  0.00     0.051 C 
HETATM   26  C   UNL     1       5.149  30.677  56.164  1.00  0.00     0.039 A 
BRANCH  22  27
HETATM   27  C   UNL     1       5.907  32.141  60.095  1.00  0.00     0.183 A 
HETATM   28  O   UNL     1       6.988  31.638  60.771  1.00  0.00    -0.289 OA
HETATM   29  C   UNL     1       7.013  32.357  61.930  1.00  0.00     0.106 A 
HETATM   30  C   UNL     1       5.952  33.249  61.899  1.00  0.00     0.093 A 
HETATM   31  C   UNL     1       7.928  32.250  62.968  1.00  0.00     0.040 A 
HETATM   32  N   UNL     1       5.236  33.082  60.739  1.00  0.00    -0.221 NA
HETATM   33  C   UNL     1       5.777  34.131  62.972  1.00  0.00     0.034 A 
HETATM   34  C   UNL     1       6.688  34.063  64.038  1.00  0.00     0.002 A 
HETATM   35  C   UNL     1       7.739  33.136  64.036  1.00  0.00     0.003 A 
ENDBRANCH  22  27
BRANCH  23  36
HETATM   36  O   UNL     1       3.361  32.459  58.794  1.00  0.00    -0.359 OA
HETATM   37  H   UNL     1       2.991  33.124  58.176  1.00  0.00     0.218 HD
ENDBRANCH  23  36
ENDBRANCH   1  20
TORSDOF 10
ENDMDL
