MODEL 1
REMARK VINA RESULT:      -8.4      0.000      0.000
REMARK  10 active torsions:
REMARK  status: ('A' for Active; 'I' for Inactive)
REMARK    1  A    between atoms: C_3  and  C_4 
REMARK    2  A    between atoms: C_4  and  C_5 
REMARK       I    between atoms: C_5  and  N_6 
REMARK    3  A    between atoms: N_6  and  C_7 
REMARK    4  A    between atoms: C_7  and  C_8 
REMARK    5  A    between atoms: C_8  and  O_9 
REMARK    6  A    between atoms: C_15  and  N_16 
REMARK       I    between atoms: N_16  and  C_17 
REMARK    7  A    between atoms: C_17  and  C_18 
REMARK    8  A    between atoms: C_28  and  C_29 
REMARK    9  A    between atoms: C_29  and  O_30 
REMARK   10  A    between atoms: C_32  and  O_33 
ROOT
HETATM    1  C   UNL     1       4.579  25.311  56.885  1.00  0.00     0.016 C 
HETATM    2  C   UNL     1       5.910  26.044  56.515  1.00  0.00    -0.030 C 
HETATM    3  C   UNL     1       6.271  25.766  54.985  1.00  0.00     0.056 C 
HETATM    4  C   UNL     1       5.481  26.687  54.078  1.00  0.00     0.056 C 
HETATM    5  C   UNL     1       4.699  27.731  54.528  1.00  0.00     0.012 C 
HETATM    6  S   UNL     1       3.954  28.522  53.224  1.00  0.00    -0.055 SA
HETATM    7  C   UNL     1       4.893  27.579  52.148  1.00  0.00     0.173 C 
HETATM    8  N   UNL     1       5.629  26.640  52.700  1.00  0.00    -0.227 NA
HETATM    9  C   UNL     1       4.546  28.168  55.940  1.00  0.00     0.055 C 
HETATM   10  C   UNL     1       5.705  27.593  56.801  1.00  0.00     0.012 C 
HETATM   11  C   UNL     1       7.033  28.478  56.835  1.00  0.00     0.008 C 
HETATM   12  C   UNL     1       6.776  29.621  57.862  1.00  0.00     0.020 C 
HETATM   13  C   UNL     1       8.243  27.647  57.367  1.00  0.00     0.128 C 
HETATM   14  C   UNL     1       7.803  26.483  58.245  1.00  0.00     0.033 C 
HETATM   15  C   UNL     1       7.014  25.449  57.443  1.00  0.00     0.013 C 
ENDROOT
BRANCH   7  16
HETATM   16  N   UNL     1       5.017  27.934  50.829  1.00  0.00    -0.305 N 
HETATM   17  C   UNL     1       4.574  27.163  49.777  1.00  0.00     0.227 C 
HETATM   18  O   UNL     1       4.535  25.935  49.777  1.00  0.00    -0.273 OA
HETATM   19  H   UNL     1       5.441  28.840  50.674  1.00  0.00     0.171 HD
BRANCH  17  20
HETATM   20  C   UNL     1       4.101  27.996  48.580  1.00  0.00     0.078 C 
HETATM   21  C   UNL     1       3.566  27.125  47.432  1.00  0.00     0.014 C 
HETATM   22  C   UNL     1       2.195  26.503  47.713  1.00  0.00     0.001 C 
HETATM   23  C   UNL     1       1.176  27.534  48.183  1.00  0.00     0.000 C 
HETATM   24  C   UNL     1       1.699  28.355  49.355  1.00  0.00     0.001 C 
HETATM   25  C   UNL     1       3.037  29.016  49.023  1.00  0.00     0.014 C 
ENDBRANCH  17  20
ENDBRANCH   7  16
BRANCH   3  26
HETATM   26  C   UNL     1       6.083  24.285  54.593  1.00  0.00     0.114 C 
BRANCH  26  27
HETATM   27  C   UNL     1       7.371  23.529  54.329  1.00  0.00     0.218 C 
HETATM   28  N   UNL     1       7.659  22.529  55.216  1.00  0.00    -0.359 N 
HETATM   29  H   UNL     1       6.889  22.154  55.776  1.00  0.00     0.162 HD
HETATM   30  O   UNL     1       8.131  23.852  53.417  1.00  0.00    -0.274 OA
BRANCH  28  31
HETATM   31  C   UNL     1       8.890  21.773  55.134  1.00  0.00     0.148 C 
BRANCH  31  32
HETATM   32  C   UNL     1       8.651  20.262  55.176  1.00  0.00     0.186 C 
BRANCH  32  33
HETATM   33  O   UNL     1       8.930  19.601  53.933  1.00  0.00    -0.394 OA
HETATM   34  C   UNL     1       8.473  20.345  52.805  1.00  0.00     0.201 C 
ENDBRANCH  32  33
ENDBRANCH  31  32
ENDBRANCH  28  31
ENDBRANCH  26  27
ENDBRANCH   3  26
BRANCH  11  35
HETATM   35  C   UNL     1       7.449  29.150  55.498  1.00  0.00     0.176 C 
BRANCH  35  36
HETATM   36  O   UNL     1       8.754  29.710  55.554  1.00  0.00    -0.400 OA
HETATM   37  H   UNL     1       9.340  29.107  55.064  1.00  0.00     0.209 HD
ENDBRANCH  35  36
ENDBRANCH  11  35
BRANCH  13  38
HETATM   38  O   UNL     1       9.024  27.127  56.290  1.00  0.00    -0.395 OA
HETATM   39  H   UNL     1       9.666  26.496  56.665  1.00  0.00     0.210 HD
ENDBRANCH  13  38
TORSDOF 10
ENDMDL
MODEL 2
REMARK VINA RESULT:      -7.9      3.104      7.697
REMARK  10 active torsions:
REMARK  status: ('A' for Active; 'I' for Inactive)
REMARK    1  A    between atoms: C_3  and  C_4 
REMARK    2  A    between atoms: C_4  and  C_5 
REMARK       I    between atoms: C_5  and  N_6 
REMARK    3  A    between atoms: N_6  and  C_7 
REMARK    4  A    between atoms: C_7  and  C_8 
REMARK    5  A    between atoms: C_8  and  O_9 
REMARK    6  A    between atoms: C_15  and  N_16 
REMARK       I    between atoms: N_16  and  C_17 
REMARK    7  A    between atoms: C_17  and  C_18 
REMARK    8  A    between atoms: C_28  and  C_29 
REMARK    9  A    between atoms: C_29  and  O_30 
REMARK   10  A    between atoms: C_32  and  O_33 
ROOT
HETATM    1  C   UNL     1       7.560  24.979  54.270  1.00  0.00     0.016 C 
HETATM    2  C   UNL     1       6.302  25.891  54.094  1.00  0.00    -0.030 C 
HETATM    3  C   UNL     1       5.765  26.350  55.526  1.00  0.00     0.056 C 
HETATM    4  C   UNL     1       6.573  27.521  56.045  1.00  0.00     0.056 C 
HETATM    5  C   UNL     1       7.519  28.197  55.302  1.00  0.00     0.012 C 
HETATM    6  S   UNL     1       8.229  29.432  56.226  1.00  0.00    -0.055 SA
HETATM    7  C   UNL     1       7.081  29.136  57.459  1.00  0.00     0.173 C 
HETATM    8  N   UNL     1       6.289  28.103  57.271  1.00  0.00    -0.227 NA
HETATM    9  C   UNL     1       7.860  27.947  53.878  1.00  0.00     0.055 C 
HETATM   10  C   UNL     1       6.726  27.132  53.197  1.00  0.00     0.012 C 
HETATM   11  C   UNL     1       5.528  27.999  52.596  1.00  0.00     0.008 C 
HETATM   12  C   UNL     1       6.023  28.543  51.223  1.00  0.00     0.020 C 
HETATM   13  C   UNL     1       4.280  27.105  52.312  1.00  0.00     0.128 C 
HETATM   14  C   UNL     1       4.653  25.644  52.097  1.00  0.00     0.033 C 
HETATM   15  C   UNL     1       5.226  25.023  53.370  1.00  0.00     0.013 C 
ENDROOT
BRANCH   7  16
HETATM   16  N   UNL     1       6.876  30.049  58.462  1.00  0.00    -0.305 N 
HETATM   17  C   UNL     1       7.855  30.471  59.334  1.00  0.00     0.227 C 
HETATM   18  O   UNL     1       8.797  29.780  59.716  1.00  0.00    -0.273 OA
HETATM   19  H   UNL     1       5.938  30.428  58.503  1.00  0.00     0.171 HD
BRANCH  17  20
HETATM   20  C   UNL     1       7.673  31.925  59.783  1.00  0.00     0.078 C 
HETATM   21  C   UNL     1       6.592  32.076  60.865  1.00  0.00     0.014 C 
HETATM   22  C   UNL     1       7.019  31.563  62.244  1.00  0.00     0.001 C 
HETATM   23  C   UNL     1       8.364  32.131  62.683  1.00  0.00     0.000 C 
HETATM   24  C   UNL     1       9.439  31.927  61.622  1.00  0.00     0.001 C 
HETATM   25  C   UNL     1       9.012  32.507  60.273  1.00  0.00     0.014 C 
ENDBRANCH  17  20
ENDBRANCH   7  16
BRANCH   3  26
HETATM   26  C   UNL     1       5.727  25.190  56.542  1.00  0.00     0.114 C 
BRANCH  26  27
HETATM   27  C   UNL     1       7.087  24.644  56.935  1.00  0.00     0.218 C 
HETATM   28  N   UNL     1       7.313  23.336  56.604  1.00  0.00    -0.359 N 
HETATM   29  H   UNL     1       6.728  22.922  55.875  1.00  0.00     0.162 HD
HETATM   30  O   UNL     1       7.893  25.321  57.570  1.00  0.00    -0.274 OA
BRANCH  28  31
HETATM   31  C   UNL     1       8.535  22.659  56.983  1.00  0.00     0.148 C 
BRANCH  31  32
HETATM   32  C   UNL     1       8.701  21.314  56.271  1.00  0.00     0.186 C 
BRANCH  32  33
HETATM   33  O   UNL     1       7.567  20.944  55.470  1.00  0.00    -0.394 OA
HETATM   34  C   UNL     1       7.913  20.725  54.104  1.00  0.00     0.201 C 
ENDBRANCH  32  33
ENDBRANCH  31  32
ENDBRANCH  28  31
ENDBRANCH  26  27
ENDBRANCH   3  26
BRANCH  11  35
HETATM   35  C   UNL     1       5.074  29.224  53.437  1.00  0.00     0.176 C 
BRANCH  35  36
HETATM   36  O   UNL     1       4.893  30.390  52.644  1.00  0.00    -0.400 OA
HETATM   37  H   UNL     1       4.680  31.116  53.256  1.00  0.00     0.209 HD
ENDBRANCH  35  36
ENDBRANCH  11  35
BRANCH  13  38
HETATM   38  O   UNL     1       3.341  27.175  53.386  1.00  0.00    -0.395 OA
HETATM   39  H   UNL     1       2.532  26.709  53.105  1.00  0.00     0.210 HD
ENDBRANCH  13  38
TORSDOF 10
ENDMDL
MODEL 3
REMARK VINA RESULT:      -7.7      2.499      7.731
REMARK  10 active torsions:
REMARK  status: ('A' for Active; 'I' for Inactive)
REMARK    1  A    between atoms: C_3  and  C_4 
REMARK    2  A    between atoms: C_4  and  C_5 
REMARK       I    between atoms: C_5  and  N_6 
REMARK    3  A    between atoms: N_6  and  C_7 
REMARK    4  A    between atoms: C_7  and  C_8 
REMARK    5  A    between atoms: C_8  and  O_9 
REMARK    6  A    between atoms: C_15  and  N_16 
REMARK       I    between atoms: N_16  and  C_17 
REMARK    7  A    between atoms: C_17  and  C_18 
REMARK    8  A    between atoms: C_28  and  C_29 
REMARK    9  A    between atoms: C_29  and  O_30 
REMARK   10  A    between atoms: C_32  and  O_33 
ROOT
HETATM    1  C   UNL     1       3.698  28.868  55.500  1.00  0.00     0.016 C 
HETATM    2  C   UNL     1       4.608  28.973  54.233  1.00  0.00    -0.030 C 
HETATM    3  C   UNL     1       6.113  28.606  54.618  1.00  0.00     0.056 C 
HETATM    4  C   UNL     1       6.299  27.103  54.660  1.00  0.00     0.056 C 
HETATM    5  C   UNL     1       5.345  26.195  54.248  1.00  0.00     0.012 C 
HETATM    6  S   UNL     1       5.905  24.607  54.463  1.00  0.00    -0.055 SA
HETATM    7  C   UNL     1       7.445  25.230  54.866  1.00  0.00     0.173 C 
HETATM    8  N   UNL     1       7.529  26.539  54.964  1.00  0.00    -0.227 NA
HETATM    9  C   UNL     1       4.025  26.519  53.648  1.00  0.00     0.055 C 
HETATM   10  C   UNL     1       4.023  27.986  53.134  1.00  0.00     0.012 C 
HETATM   11  C   UNL     1       4.573  28.190  51.650  1.00  0.00     0.008 C 
HETATM   12  C   UNL     1       3.408  27.804  50.690  1.00  0.00     0.020 C 
HETATM   13  C   UNL     1       4.910  29.690  51.381  1.00  0.00     0.128 C 
HETATM   14  C   UNL     1       4.124  30.629  52.286  1.00  0.00     0.033 C 
HETATM   15  C   UNL     1       4.524  30.455  53.750  1.00  0.00     0.013 C 
ENDROOT
BRANCH   7  16
HETATM   16  N   UNL     1       8.551  24.419  54.872  1.00  0.00    -0.305 N 
HETATM   17  C   UNL     1       8.733  23.367  55.743  1.00  0.00     0.227 C 
HETATM   18  O   UNL     1       8.299  23.327  56.891  1.00  0.00    -0.273 OA
HETATM   19  H   UNL     1       9.233  24.629  54.154  1.00  0.00     0.171 HD
BRANCH  17  20
HETATM   20  C   UNL     1       9.529  22.210  55.129  1.00  0.00     0.078 C 
HETATM   21  C   UNL     1       9.148  20.849  55.733  1.00  0.00     0.014 C 
HETATM   22  C   UNL     1       7.782  20.329  55.276  1.00  0.00     0.001 C 
HETATM   23  C   UNL     1       7.628  20.355  53.759  1.00  0.00     0.000 C 
HETATM   24  C   UNL     1       7.959  21.725  53.180  1.00  0.00     0.001 C 
HETATM   25  C   UNL     1       9.354  22.190  53.600  1.00  0.00     0.014 C 
ENDBRANCH  17  20
ENDBRANCH   7  16
BRANCH   3  26
HETATM   26  C   UNL     1       6.565  29.270  55.936  1.00  0.00     0.114 C 
BRANCH  26  27
HETATM   27  C   UNL     1       8.067  29.400  56.101  1.00  0.00     0.218 C 
HETATM   28  N   UNL     1       8.503  29.590  57.383  1.00  0.00    -0.359 N 
HETATM   29  H   UNL     1       7.873  29.327  58.144  1.00  0.00     0.162 HD
HETATM   30  O   UNL     1       8.823  29.403  55.131  1.00  0.00    -0.274 OA
BRANCH  28  31
HETATM   31  C   UNL     1       9.903  29.806  57.684  1.00  0.00     0.148 C 
BRANCH  31  32
HETATM   32  C   UNL     1      10.228  31.283  57.916  1.00  0.00     0.186 C 
BRANCH  32  33
HETATM   33  O   UNL     1       9.245  31.971  58.705  1.00  0.00    -0.394 OA
HETATM   34  C   UNL     1       9.497  31.865  60.104  1.00  0.00     0.201 C 
ENDBRANCH  32  33
ENDBRANCH  31  32
ENDBRANCH  28  31
ENDBRANCH  26  27
ENDBRANCH   3  26
BRANCH  11  35
HETATM   35  C   UNL     1       5.802  27.330  51.246  1.00  0.00     0.176 C 
BRANCH  35  36
HETATM   36  O   UNL     1       5.480  26.348  50.268  1.00  0.00    -0.400 OA
HETATM   37  H   UNL     1       5.313  25.518  50.748  1.00  0.00     0.209 HD
ENDBRANCH  35  36
ENDBRANCH  11  35
BRANCH  13  38
HETATM   38  O   UNL     1       6.303  29.947  51.568  1.00  0.00    -0.395 OA
HETATM   39  H   UNL     1       6.406  30.435  52.405  1.00  0.00     0.210 HD
ENDBRANCH  13  38
TORSDOF 10
ENDMDL
MODEL 4
REMARK VINA RESULT:      -7.4      2.667      5.862
REMARK  10 active torsions:
REMARK  status: ('A' for Active; 'I' for Inactive)
REMARK    1  A    between atoms: C_3  and  C_4 
REMARK    2  A    between atoms: C_4  and  C_5 
REMARK       I    between atoms: C_5  and  N_6 
REMARK    3  A    between atoms: N_6  and  C_7 
REMARK    4  A    between atoms: C_7  and  C_8 
REMARK    5  A    between atoms: C_8  and  O_9 
REMARK    6  A    between atoms: C_15  and  N_16 
REMARK       I    between atoms: N_16  and  C_17 
REMARK    7  A    between atoms: C_17  and  C_18 
REMARK    8  A    between atoms: C_28  and  C_29 
REMARK    9  A    between atoms: C_29  and  O_30 
REMARK   10  A    between atoms: C_32  and  O_33 
ROOT
HETATM    1  C   UNL     1       8.573  28.887  54.978  1.00  0.00     0.016 C 
HETATM    2  C   UNL     1       7.479  27.897  55.496  1.00  0.00    -0.030 C 
HETATM    3  C   UNL     1       6.032  28.544  55.306  1.00  0.00     0.056 C 
HETATM    4  C   UNL     1       5.554  28.368  53.880  1.00  0.00     0.056 C 
HETATM    5  C   UNL     1       6.206  27.600  52.936  1.00  0.00     0.012 C 
HETATM    6  S   UNL     1       5.385  27.660  51.451  1.00  0.00    -0.055 SA
HETATM    7  C   UNL     1       4.110  28.503  52.218  1.00  0.00     0.173 C 
HETATM    8  N   UNL     1       4.316  28.842  53.472  1.00  0.00    -0.227 NA
HETATM    9  C   UNL     1       7.425  26.782  53.160  1.00  0.00     0.055 C 
HETATM   10  C   UNL     1       7.630  26.541  54.681  1.00  0.00     0.012 C 
HETATM   11  C   UNL     1       6.860  25.278  55.282  1.00  0.00     0.008 C 
HETATM   12  C   UNL     1       7.717  24.027  54.922  1.00  0.00     0.020 C 
HETATM   13  C   UNL     1       6.792  25.355  56.839  1.00  0.00     0.128 C 
HETATM   14  C   UNL     1       7.911  26.206  57.425  1.00  0.00     0.033 C 
HETATM   15  C   UNL     1       7.770  27.670  57.012  1.00  0.00     0.013 C 
ENDROOT
BRANCH   7  16
HETATM   16  N   UNL     1       2.883  28.621  51.616  1.00  0.00    -0.305 N 
HETATM   17  C   UNL     1       2.489  29.710  50.871  1.00  0.00     0.227 C 
HETATM   18  O   UNL     1       2.862  30.864  51.069  1.00  0.00    -0.273 OA
HETATM   19  H   UNL     1       2.277  27.817  51.732  1.00  0.00     0.171 HD
BRANCH  17  20
HETATM   20  C   UNL     1       1.536  29.344  49.728  1.00  0.00     0.078 C 
HETATM   21  C   UNL     1       1.371  30.484  48.711  1.00  0.00     0.014 C 
HETATM   22  C   UNL     1       2.591  30.689  47.807  1.00  0.00     0.001 C 
HETATM   23  C   UNL     1       3.054  29.391  47.155  1.00  0.00     0.000 C 
HETATM   24  C   UNL     1       3.263  28.285  48.182  1.00  0.00     0.001 C 
HETATM   25  C   UNL     1       2.009  28.058  49.026  1.00  0.00     0.014 C 
ENDBRANCH  17  20
ENDBRANCH   7  16
BRANCH   3  26
HETATM   26  C   UNL     1       5.986  30.024  55.741  1.00  0.00     0.114 C 
BRANCH  26  27
HETATM   27  C   UNL     1       5.752  30.244  57.224  1.00  0.00     0.218 C 
HETATM   28  N   UNL     1       6.626  31.099  57.837  1.00  0.00    -0.359 N 
HETATM   29  H   UNL     1       7.148  31.750  57.245  1.00  0.00     0.162 HD
HETATM   30  O   UNL     1       4.877  29.633  57.835  1.00  0.00    -0.274 OA
BRANCH  28  31
HETATM   31  C   UNL     1       6.572  31.346  59.262  1.00  0.00     0.148 C 
BRANCH  31  32
HETATM   32  C   UNL     1       7.962  31.544  59.872  1.00  0.00     0.186 C 
BRANCH  32  33
HETATM   33  O   UNL     1       8.833  32.353  59.067  1.00  0.00    -0.394 OA
HETATM   34  C   UNL     1      10.004  31.652  58.655  1.00  0.00     0.201 C 
ENDBRANCH  32  33
ENDBRANCH  31  32
ENDBRANCH  28  31
ENDBRANCH  26  27
ENDBRANCH   3  26
BRANCH  11  35
HETATM   35  C   UNL     1       5.427  25.021  54.739  1.00  0.00     0.176 C 
BRANCH  35  36
HETATM   36  O   UNL     1       5.432  24.324  53.500  1.00  0.00    -0.400 OA
HETATM   37  H   UNL     1       5.401  23.374  53.712  1.00  0.00     0.209 HD
ENDBRANCH  35  36
ENDBRANCH  11  35
BRANCH  13  38
HETATM   38  O   UNL     1       5.543  25.894  57.275  1.00  0.00    -0.395 OA
HETATM   39  H   UNL     1       5.326  26.647  56.696  1.00  0.00     0.210 HD
ENDBRANCH  13  38
TORSDOF 10
ENDMDL
MODEL 5
REMARK VINA RESULT:      -7.3      3.282      6.564
REMARK  10 active torsions:
REMARK  status: ('A' for Active; 'I' for Inactive)
REMARK    1  A    between atoms: C_3  and  C_4 
REMARK    2  A    between atoms: C_4  and  C_5 
REMARK       I    between atoms: C_5  and  N_6 
REMARK    3  A    between atoms: N_6  and  C_7 
REMARK    4  A    between atoms: C_7  and  C_8 
REMARK    5  A    between atoms: C_8  and  O_9 
REMARK    6  A    between atoms: C_15  and  N_16 
REMARK       I    between atoms: N_16  and  C_17 
REMARK    7  A    between atoms: C_17  and  C_18 
REMARK    8  A    between atoms: C_28  and  C_29 
REMARK    9  A    between atoms: C_29  and  O_30 
REMARK   10  A    between atoms: C_32  and  O_33 
ROOT
HETATM    1  C   UNL     1       8.325  28.966  55.548  1.00  0.00     0.016 C 
HETATM    2  C   UNL     1       7.209  27.908  55.830  1.00  0.00    -0.030 C 
HETATM    3  C   UNL     1       5.772  28.586  55.677  1.00  0.00     0.056 C 
HETATM    4  C   UNL     1       5.372  28.659  54.218  1.00  0.00     0.056 C 
HETATM    5  C   UNL     1       6.077  28.061  53.193  1.00  0.00     0.012 C 
HETATM    6  S   UNL     1       5.336  28.378  51.698  1.00  0.00    -0.055 SA
HETATM    7  C   UNL     1       4.018  29.084  52.529  1.00  0.00     0.173 C 
HETATM    8  N   UNL     1       4.156  29.202  53.832  1.00  0.00    -0.227 NA
HETATM    9  C   UNL     1       7.285  27.209  53.338  1.00  0.00     0.055 C 
HETATM   10  C   UNL     1       7.409  26.711  54.805  1.00  0.00     0.012 C 
HETATM   11  C   UNL     1       6.613  25.368  55.138  1.00  0.00     0.008 C 
HETATM   12  C   UNL     1       7.493  24.192  54.617  1.00  0.00     0.020 C 
HETATM   13  C   UNL     1       6.461  25.178  56.680  1.00  0.00     0.128 C 
HETATM   14  C   UNL     1       7.544  25.910  57.461  1.00  0.00     0.033 C 
HETATM   15  C   UNL     1       7.420  27.424  57.298  1.00  0.00     0.013 C 
ENDROOT
BRANCH   7  16
HETATM   16  N   UNL     1       2.825  29.309  51.891  1.00  0.00    -0.305 N 
HETATM   17  C   UNL     1       2.621  30.308  50.965  1.00  0.00     0.227 C 
HETATM   18  O   UNL     1       3.192  31.395  50.971  1.00  0.00    -0.273 OA
HETATM   19  H   UNL     1       2.089  28.656  52.129  1.00  0.00     0.171 HD
BRANCH  17  20
HETATM   20  C   UNL     1       1.606  29.924  49.882  1.00  0.00     0.078 C 
HETATM   21  C   UNL     1       1.705  30.822  48.638  1.00  0.00     0.014 C 
HETATM   22  C   UNL     1       2.937  30.547  47.771  1.00  0.00     0.001 C 
HETATM   23  C   UNL     1       3.089  29.068  47.433  1.00  0.00     0.000 C 
HETATM   24  C   UNL     1       3.042  28.194  48.680  1.00  0.00     0.001 C 
HETATM   25  C   UNL     1       1.771  28.444  49.492  1.00  0.00     0.014 C 
ENDBRANCH  17  20
ENDBRANCH   7  16
BRANCH   3  26
HETATM   26  C   UNL     1       5.697  29.970  56.356  1.00  0.00     0.114 C 
BRANCH  26  27
HETATM   27  C   UNL     1       4.432  30.218  57.155  1.00  0.00     0.218 C 
HETATM   28  N   UNL     1       4.599  30.924  58.316  1.00  0.00    -0.359 N 
HETATM   29  H   UNL     1       5.447  31.487  58.412  1.00  0.00     0.162 HD
HETATM   30  O   UNL     1       3.350  29.749  56.809  1.00  0.00    -0.274 OA
BRANCH  28  31
HETATM   31  C   UNL     1       3.495  31.170  59.218  1.00  0.00     0.148 C 
BRANCH  31  32
HETATM   32  C   UNL     1       3.627  32.510  59.948  1.00  0.00     0.186 C 
BRANCH  32  33
HETATM   33  O   UNL     1       2.383  33.213  60.087  1.00  0.00    -0.394 OA
HETATM   34  C   UNL     1       2.422  34.190  61.124  1.00  0.00     0.201 C 
ENDBRANCH  32  33
ENDBRANCH  31  32
ENDBRANCH  28  31
ENDBRANCH  26  27
ENDBRANCH   3  26
BRANCH  11  35
HETATM   35  C   UNL     1       5.212  25.215  54.484  1.00  0.00     0.176 C 
BRANCH  35  36
HETATM   36  O   UNL     1       5.268  24.549  53.229  1.00  0.00    -0.400 OA
HETATM   37  H   UNL     1       6.171  24.196  53.139  1.00  0.00     0.209 HD
ENDBRANCH  35  36
ENDBRANCH  11  35
BRANCH  13  38
HETATM   38  O   UNL     1       5.188  25.641  57.134  1.00  0.00    -0.395 OA
HETATM   39  H   UNL     1       5.286  25.919  58.063  1.00  0.00     0.210 HD
ENDBRANCH  13  38
TORSDOF 10
ENDMDL
MODEL 6
REMARK VINA RESULT:      -7.1      2.647      8.668
REMARK  10 active torsions:
REMARK  status: ('A' for Active; 'I' for Inactive)
REMARK    1  A    between atoms: C_3  and  C_4 
REMARK    2  A    between atoms: C_4  and  C_5 
REMARK       I    between atoms: C_5  and  N_6 
REMARK    3  A    between atoms: N_6  and  C_7 
REMARK    4  A    between atoms: C_7  and  C_8 
REMARK    5  A    between atoms: C_8  and  O_9 
REMARK    6  A    between atoms: C_15  and  N_16 
REMARK       I    between atoms: N_16  and  C_17 
REMARK    7  A    between atoms: C_17  and  C_18 
REMARK    8  A    between atoms: C_28  and  C_29 
REMARK    9  A    between atoms: C_29  and  O_30 
REMARK   10  A    between atoms: C_32  and  O_33 
ROOT
HETATM    1  C   UNL     1       5.755  29.074  48.641  1.00  0.00     0.016 C 
HETATM    2  C   UNL     1       4.461  29.004  49.515  1.00  0.00    -0.030 C 
HETATM    3  C   UNL     1       4.190  27.494  49.959  1.00  0.00     0.056 C 
HETATM    4  C   UNL     1       5.048  27.130  51.153  1.00  0.00     0.056 C 
HETATM    5  C   UNL     1       5.816  28.034  51.857  1.00  0.00     0.012 C 
HETATM    6  S   UNL     1       6.652  27.254  53.112  1.00  0.00    -0.055 SA
HETATM    7  C   UNL     1       5.767  25.828  52.782  1.00  0.00     0.173 C 
HETATM    8  N   UNL     1       4.983  25.869  51.727  1.00  0.00    -0.227 NA
HETATM    9  C   UNL     1       5.890  29.498  51.617  1.00  0.00     0.055 C 
HETATM   10  C   UNL     1       4.672  29.958  50.768  1.00  0.00     0.012 C 
HETATM   11  C   UNL     1       3.357  30.317  51.600  1.00  0.00     0.008 C 
HETATM   12  C   UNL     1       3.568  31.756  52.159  1.00  0.00     0.020 C 
HETATM   13  C   UNL     1       2.105  30.366  50.669  1.00  0.00     0.128 C 
HETATM   14  C   UNL     1       2.473  30.655  49.221  1.00  0.00     0.033 C 
HETATM   15  C   UNL     1       3.293  29.516  48.617  1.00  0.00     0.013 C 
ENDROOT
BRANCH   7  16
HETATM   16  N   UNL     1       5.729  24.800  53.689  1.00  0.00    -0.305 N 
HETATM   17  C   UNL     1       6.845  24.160  54.179  1.00  0.00     0.227 C 
HETATM   18  O   UNL     1       7.889  23.997  53.552  1.00  0.00    -0.273 OA
HETATM   19  H   UNL     1       4.800  24.552  54.008  1.00  0.00     0.171 HD
BRANCH  17  20
HETATM   20  C   UNL     1       6.674  23.674  55.622  1.00  0.00     0.078 C 
HETATM   21  C   UNL     1       7.959  23.047  56.188  1.00  0.00     0.014 C 
HETATM   22  C   UNL     1       9.053  24.067  56.519  1.00  0.00     0.001 C 
HETATM   23  C   UNL     1       8.536  25.212  57.382  1.00  0.00     0.000 C 
HETATM   24  C   UNL     1       7.293  25.858  56.783  1.00  0.00     0.001 C 
HETATM   25  C   UNL     1       6.195  24.826  56.523  1.00  0.00     0.014 C 
ENDBRANCH  17  20
ENDBRANCH   7  16
BRANCH   3  26
HETATM   26  C   UNL     1       4.379  26.495  48.798  1.00  0.00     0.114 C 
BRANCH  26  27
HETATM   27  C   UNL     1       3.162  26.313  47.911  1.00  0.00     0.218 C 
HETATM   28  N   UNL     1       2.011  26.898  48.364  1.00  0.00    -0.359 N 
HETATM   29  H   UNL     1       2.099  27.647  49.055  1.00  0.00     0.162 HD
HETATM   30  O   UNL     1       3.204  25.623  46.894  1.00  0.00    -0.274 OA
BRANCH  28  31
HETATM   31  C   UNL     1       0.755  26.745  47.662  1.00  0.00     0.148 C 
BRANCH  31  32
HETATM   32  C   UNL     1       0.461  27.922  46.729  1.00  0.00     0.186 C 
BRANCH  32  33
HETATM   33  O   UNL     1      -0.855  27.885  46.155  1.00  0.00    -0.394 OA
HETATM   34  C   UNL     1      -1.045  28.890  45.162  1.00  0.00     0.201 C 
ENDBRANCH  32  33
ENDBRANCH  31  32
ENDBRANCH  28  31
ENDBRANCH  26  27
ENDBRANCH   3  26
BRANCH  11  35
HETATM   35  C   UNL     1       3.035  29.399  52.811  1.00  0.00     0.176 C 
BRANCH  35  36
HETATM   36  O   UNL     1       3.322  30.022  54.056  1.00  0.00    -0.400 OA
HETATM   37  H   UNL     1       2.583  29.812  54.653  1.00  0.00     0.209 HD
ENDBRANCH  35  36
ENDBRANCH  11  35
BRANCH  13  38
HETATM   38  O   UNL     1       1.383  29.134  50.712  1.00  0.00    -0.395 OA
HETATM   39  H   UNL     1       0.853  29.071  49.897  1.00  0.00     0.210 HD
ENDBRANCH  13  38
TORSDOF 10
ENDMDL
MODEL 7
REMARK VINA RESULT:      -6.9      3.577      8.122
REMARK  10 active torsions:
REMARK  status: ('A' for Active; 'I' for Inactive)
REMARK    1  A    between atoms: C_3  and  C_4 
REMARK    2  A    between atoms: C_4  and  C_5 
REMARK       I    between atoms: C_5  and  N_6 
REMARK    3  A    between atoms: N_6  and  C_7 
REMARK    4  A    between atoms: C_7  and  C_8 
REMARK    5  A    between atoms: C_8  and  O_9 
REMARK    6  A    between atoms: C_15  and  N_16 
REMARK       I    between atoms: N_16  and  C_17 
REMARK    7  A    between atoms: C_17  and  C_18 
REMARK    8  A    between atoms: C_28  and  C_29 
REMARK    9  A    between atoms: C_29  and  O_30 
REMARK   10  A    between atoms: C_32  and  O_33 
ROOT
HETATM    1  C   UNL     1       5.532  27.842  47.345  1.00  0.00     0.016 C 
HETATM    2  C   UNL     1       4.157  28.008  48.071  1.00  0.00    -0.030 C 
HETATM    3  C   UNL     1       4.398  28.431  49.592  1.00  0.00     0.056 C 
HETATM    4  C   UNL     1       4.661  29.919  49.693  1.00  0.00     0.056 C 
HETATM    5  C   UNL     1       4.532  30.800  48.640  1.00  0.00     0.012 C 
HETATM    6  S   UNL     1       4.930  32.376  49.130  1.00  0.00    -0.055 SA
HETATM    7  C   UNL     1       5.022  31.824  50.746  1.00  0.00     0.173 C 
HETATM    8  N   UNL     1       4.892  30.526  50.919  1.00  0.00    -0.227 NA
HETATM    9  C   UNL     1       4.064  30.468  47.269  1.00  0.00     0.055 C 
HETATM   10  C   UNL     1       3.322  29.104  47.279  1.00  0.00     0.012 C 
HETATM   11  C   UNL     1       1.765  29.176  47.625  1.00  0.00     0.008 C 
HETATM   12  C   UNL     1       1.042  29.612  46.316  1.00  0.00     0.020 C 
HETATM   13  C   UNL     1       1.212  27.768  48.008  1.00  0.00     0.128 C 
HETATM   14  C   UNL     1       2.045  26.640  47.414  1.00  0.00     0.033 C 
HETATM   15  C   UNL     1       3.453  26.617  48.006  1.00  0.00     0.013 C 
ENDROOT
BRANCH   7  16
HETATM   16  N   UNL     1       5.017  32.710  51.793  1.00  0.00    -0.305 N 
HETATM   17  C   UNL     1       3.876  33.159  52.420  1.00  0.00     0.227 C 
HETATM   18  O   UNL     1       2.788  33.307  51.869  1.00  0.00    -0.273 OA
HETATM   19  H   UNL     1       5.936  32.999  52.106  1.00  0.00     0.171 HD
BRANCH  17  20
HETATM   20  C   UNL     1       4.083  33.447  53.911  1.00  0.00     0.078 C 
HETATM   21  C   UNL     1       2.806  33.962  54.594  1.00  0.00     0.014 C 
HETATM   22  C   UNL     1       1.742  32.883  54.813  1.00  0.00     0.001 C 
HETATM   23  C   UNL     1       2.306  31.642  55.496  1.00  0.00     0.000 C 
HETATM   24  C   UNL     1       3.541  31.112  54.778  1.00  0.00     0.001 C 
HETATM   25  C   UNL     1       4.612  32.194  54.631  1.00  0.00     0.014 C 
ENDBRANCH  17  20
ENDBRANCH   7  16
BRANCH   3  26
HETATM   26  C   UNL     1       5.519  27.609  50.263  1.00  0.00     0.114 C 
BRANCH  26  27
HETATM   27  C   UNL     1       5.119  26.927  51.557  1.00  0.00     0.218 C 
HETATM   28  N   UNL     1       5.262  25.566  51.574  1.00  0.00    -0.359 N 
HETATM   29  H   UNL     1       5.891  25.146  50.886  1.00  0.00     0.162 HD
HETATM   30  O   UNL     1       4.633  27.559  52.494  1.00  0.00    -0.274 OA
BRANCH  28  31
HETATM   31  C   UNL     1       4.850  24.775  52.713  1.00  0.00     0.148 C 
BRANCH  31  32
HETATM   32  C   UNL     1       6.007  24.489  53.674  1.00  0.00     0.186 C 
BRANCH  32  33
HETATM   33  O   UNL     1       5.996  25.315  54.848  1.00  0.00    -0.394 OA
HETATM   34  C   UNL     1       7.026  26.301  54.831  1.00  0.00     0.201 C 
ENDBRANCH  32  33
ENDBRANCH  31  32
ENDBRANCH  28  31
ENDBRANCH  26  27
ENDBRANCH   3  26
BRANCH  11  35
HETATM   35  C   UNL     1       1.351  30.184  48.733  1.00  0.00     0.176 C 
BRANCH  35  36
HETATM   36  O   UNL     1       0.815  31.388  48.199  1.00  0.00    -0.400 OA
HETATM   37  H   UNL     1       1.544  32.032  48.168  1.00  0.00     0.209 HD
ENDBRANCH  35  36
ENDBRANCH  11  35
BRANCH  13  38
HETATM   38  O   UNL     1       1.171  27.598  49.426  1.00  0.00    -0.395 OA
HETATM   39  H   UNL     1       0.254  27.377  49.673  1.00  0.00     0.210 HD
ENDBRANCH  13  38
TORSDOF 10
ENDMDL
MODEL 8
REMARK VINA RESULT:      -6.8      4.126      7.506
REMARK  10 active torsions:
REMARK  status: ('A' for Active; 'I' for Inactive)
REMARK    1  A    between atoms: C_3  and  C_4 
REMARK    2  A    between atoms: C_4  and  C_5 
REMARK       I    between atoms: C_5  and  N_6 
REMARK    3  A    between atoms: N_6  and  C_7 
REMARK    4  A    between atoms: C_7  and  C_8 
REMARK    5  A    between atoms: C_8  and  O_9 
REMARK    6  A    between atoms: C_15  and  N_16 
REMARK       I    between atoms: N_16  and  C_17 
REMARK    7  A    between atoms: C_17  and  C_18 
REMARK    8  A    between atoms: C_28  and  C_29 
REMARK    9  A    between atoms: C_29  and  O_30 
REMARK   10  A    between atoms: C_32  and  O_33 
ROOT
HETATM    1  C   UNL     1       1.807  33.017  54.763  1.00  0.00     0.016 C 
HETATM    2  C   UNL     1       3.227  33.163  54.124  1.00  0.00    -0.030 C 
HETATM    3  C   UNL     1       4.171  31.981  54.634  1.00  0.00     0.056 C 
HETATM    4  C   UNL     1       3.915  30.717  53.840  1.00  0.00     0.056 C 
HETATM    5  C   UNL     1       3.107  30.656  52.723  1.00  0.00     0.012 C 
HETATM    6  S   UNL     1       3.047  29.071  52.119  1.00  0.00    -0.055 SA
HETATM    7  C   UNL     1       4.267  28.626  53.231  1.00  0.00     0.173 C 
HETATM    8  N   UNL     1       4.623  29.552  54.095  1.00  0.00    -0.227 NA
HETATM    9  C   UNL     1       2.412  31.800  52.079  1.00  0.00     0.055 C 
HETATM   10  C   UNL     1       3.050  33.138  52.545  1.00  0.00     0.012 C 
HETATM   11  C   UNL     1       4.311  33.626  51.695  1.00  0.00     0.008 C 
HETATM   12  C   UNL     1       3.743  34.293  50.407  1.00  0.00     0.020 C 
HETATM   13  C   UNL     1       5.112  34.722  52.465  1.00  0.00     0.128 C 
HETATM   14  C   UNL     1       4.249  35.466  53.475  1.00  0.00     0.033 C 
HETATM   15  C   UNL     1       3.786  34.540  54.599  1.00  0.00     0.013 C 
ENDROOT
BRANCH   7  16
HETATM   16  N   UNL     1       4.962  27.454  53.079  1.00  0.00    -0.305 N 
HETATM   17  C   UNL     1       5.272  26.600  54.114  1.00  0.00     0.227 C 
HETATM   18  O   UNL     1       5.486  26.952  55.272  1.00  0.00    -0.273 OA
HETATM   19  H   UNL     1       5.216  27.234  52.124  1.00  0.00     0.171 HD
BRANCH  17  20
HETATM   20  C   UNL     1       5.308  25.128  53.688  1.00  0.00     0.078 C 
HETATM   21  C   UNL     1       5.601  24.956  52.189  1.00  0.00     0.014 C 
HETATM   22  C   UNL     1       7.056  25.241  51.806  1.00  0.00     0.001 C 
HETATM   23  C   UNL     1       8.046  24.482  52.682  1.00  0.00     0.000 C 
HETATM   24  C   UNL     1       7.776  24.704  54.165  1.00  0.00     0.001 C 
HETATM   25  C   UNL     1       6.334  24.350  54.531  1.00  0.00     0.014 C 
ENDBRANCH  17  20
ENDBRANCH   7  16
BRANCH   3  26
HETATM   26  C   UNL     1       4.043  31.735  56.151  1.00  0.00     0.114 C 
BRANCH  26  27
HETATM   27  C   UNL     1       5.361  31.632  56.893  1.00  0.00     0.218 C 
HETATM   28  N   UNL     1       5.956  30.400  56.869  1.00  0.00    -0.359 N 
HETATM   29  H   UNL     1       5.669  29.749  56.134  1.00  0.00     0.162 HD
HETATM   30  O   UNL     1       5.817  32.581  57.530  1.00  0.00    -0.274 OA
BRANCH  28  31
HETATM   31  C   UNL     1       7.178  30.133  57.596  1.00  0.00     0.148 C 
BRANCH  31  32
HETATM   32  C   UNL     1       8.214  29.395  56.744  1.00  0.00     0.186 C 
BRANCH  32  33
HETATM   33  O   UNL     1       9.512  29.323  57.352  1.00  0.00    -0.394 OA
HETATM   34  C   UNL     1      10.553  29.725  56.465  1.00  0.00     0.201 C 
ENDBRANCH  32  33
ENDBRANCH  31  32
ENDBRANCH  28  31
ENDBRANCH  26  27
ENDBRANCH   3  26
BRANCH  11  35
HETATM   35  C   UNL     1       5.304  32.521  51.239  1.00  0.00     0.176 C 
BRANCH  35  36
HETATM   36  O   UNL     1       6.228  32.990  50.265  1.00  0.00    -0.400 OA
HETATM   37  H   UNL     1       5.840  32.797  49.394  1.00  0.00     0.209 HD
ENDBRANCH  35  36
ENDBRANCH  11  35
BRANCH  13  38
HETATM   38  O   UNL     1       6.227  34.156  53.156  1.00  0.00    -0.395 OA
HETATM   39  H   UNL     1       6.403  33.280  52.769  1.00  0.00     0.210 HD
ENDBRANCH  13  38
TORSDOF 10
ENDMDL
MODEL 9
REMARK VINA RESULT:      -6.7      2.950      6.227
REMARK  10 active torsions:
REMARK  status: ('A' for Active; 'I' for Inactive)
REMARK    1  A    between atoms: C_3  and  C_4 
REMARK    2  A    between atoms: C_4  and  C_5 
REMARK       I    between atoms: C_5  and  N_6 
REMARK    3  A    between atoms: N_6  and  C_7 
REMARK    4  A    between atoms: C_7  and  C_8 
REMARK    5  A    between atoms: C_8  and  O_9 
REMARK    6  A    between atoms: C_15  and  N_16 
REMARK       I    between atoms: N_16  and  C_17 
REMARK    7  A    between atoms: C_17  and  C_18 
REMARK    8  A    between atoms: C_28  and  C_29 
REMARK    9  A    between atoms: C_29  and  O_30 
REMARK   10  A    between atoms: C_32  and  O_33 
ROOT
HETATM    1  C   UNL     1       8.203  28.765  55.652  1.00  0.00     0.016 C 
HETATM    2  C   UNL     1       6.993  27.777  55.705  1.00  0.00    -0.030 C 
HETATM    3  C   UNL     1       5.664  28.526  55.234  1.00  0.00     0.056 C 
HETATM    4  C   UNL     1       5.590  28.576  53.722  1.00  0.00     0.056 C 
HETATM    5  C   UNL     1       6.462  27.912  52.883  1.00  0.00     0.012 C 
HETATM    6  S   UNL     1       6.078  28.223  51.259  1.00  0.00    -0.055 SA
HETATM    7  C   UNL     1       4.656  29.023  51.774  1.00  0.00     0.173 C 
HETATM    8  N   UNL     1       4.519  29.172  53.073  1.00  0.00    -0.227 NA
HETATM    9  C   UNL     1       7.559  27.002  53.300  1.00  0.00     0.055 C 
HETATM   10  C   UNL     1       7.337  26.541  54.767  1.00  0.00     0.012 C 
HETATM   11  C   UNL     1       6.412  25.252  54.945  1.00  0.00     0.008 C 
HETATM   12  C   UNL     1       7.312  24.017  54.646  1.00  0.00     0.020 C 
HETATM   13  C   UNL     1       5.922  25.116  56.421  1.00  0.00     0.128 C 
HETATM   14  C   UNL     1       6.854  25.813  57.405  1.00  0.00     0.033 C 
HETATM   15  C   UNL     1       6.856  27.326  57.192  1.00  0.00     0.013 C 
ENDROOT
BRANCH   7  16
HETATM   16  N   UNL     1       3.643  29.292  50.890  1.00  0.00    -0.305 N 
HETATM   17  C   UNL     1       3.138  28.379  49.992  1.00  0.00     0.227 C 
HETATM   18  O   UNL     1       3.790  27.479  49.468  1.00  0.00    -0.273 OA
HETATM   19  H   UNL     1       3.256  30.226  50.963  1.00  0.00     0.171 HD
BRANCH  17  20
HETATM   20  C   UNL     1       1.643  28.574  49.712  1.00  0.00     0.078 C 
HETATM   21  C   UNL     1       1.246  30.058  49.647  1.00  0.00     0.014 C 
HETATM   22  C   UNL     1       1.715  30.770  48.375  1.00  0.00     0.001 C 
HETATM   23  C   UNL     1       1.332  30.011  47.110  1.00  0.00     0.000 C 
HETATM   24  C   UNL     1       1.779  28.555  47.166  1.00  0.00     0.001 C 
HETATM   25  C   UNL     1       1.242  27.852  48.413  1.00  0.00     0.014 C 
ENDBRANCH  17  20
ENDBRANCH   7  16
BRANCH   3  26
HETATM   26  C   UNL     1       5.525  29.931  55.856  1.00  0.00     0.114 C 
BRANCH  26  27
HETATM   27  C   UNL     1       4.098  30.416  56.022  1.00  0.00     0.218 C 
HETATM   28  N   UNL     1       3.668  31.311  55.081  1.00  0.00    -0.359 N 
HETATM   29  H   UNL     1       4.179  31.353  54.196  1.00  0.00     0.162 HD
HETATM   30  O   UNL     1       3.410  30.074  56.982  1.00  0.00    -0.274 OA
BRANCH  28  31
HETATM   31  C   UNL     1       2.356  31.917  55.155  1.00  0.00     0.148 C 
BRANCH  31  32
HETATM   32  C   UNL     1       2.204  33.097  54.191  1.00  0.00     0.186 C 
BRANCH  32  33
HETATM   33  O   UNL     1       1.718  32.720  52.894  1.00  0.00    -0.394 OA
HETATM   34  C   UNL     1       2.754  32.682  51.914  1.00  0.00     0.201 C 
ENDBRANCH  32  33
ENDBRANCH  31  32
ENDBRANCH  28  31
ENDBRANCH  26  27
ENDBRANCH   3  26
BRANCH  11  35
HETATM   35  C   UNL     1       5.177  25.155  54.008  1.00  0.00     0.176 C 
BRANCH  35  36
HETATM   36  O   UNL     1       5.455  24.430  52.816  1.00  0.00    -0.400 OA
HETATM   37  H   UNL     1       5.184  23.510  52.978  1.00  0.00     0.209 HD
ENDBRANCH  35  36
ENDBRANCH  11  35
BRANCH  13  38
HETATM   38  O   UNL     1       4.611  25.660  56.582  1.00  0.00    -0.395 OA
HETATM   39  H   UNL     1       4.665  26.619  56.420  1.00  0.00     0.210 HD
ENDBRANCH  13  38
TORSDOF 10
ENDMDL
MODEL 10
REMARK VINA RESULT:      -6.7      3.692      9.828
REMARK  10 active torsions:
REMARK  status: ('A' for Active; 'I' for Inactive)
REMARK    1  A    between atoms: C_3  and  C_4 
REMARK    2  A    between atoms: C_4  and  C_5 
REMARK       I    between atoms: C_5  and  N_6 
REMARK    3  A    between atoms: N_6  and  C_7 
REMARK    4  A    between atoms: C_7  and  C_8 
REMARK    5  A    between atoms: C_8  and  O_9 
REMARK    6  A    between atoms: C_15  and  N_16 
REMARK       I    between atoms: N_16  and  C_17 
REMARK    7  A    between atoms: C_17  and  C_18 
REMARK    8  A    between atoms: C_28  and  C_29 
REMARK    9  A    between atoms: C_29  and  O_30 
REMARK   10  A    between atoms: C_32  and  O_33 
ROOT
HETATM    1  C   UNL     1       1.736  31.673  50.220  1.00  0.00     0.016 C 
HETATM    2  C   UNL     1       2.575  30.697  49.333  1.00  0.00    -0.030 C 
HETATM    3  C   UNL     1       4.102  30.722  49.799  1.00  0.00     0.056 C 
HETATM    4  C   UNL     1       4.302  29.835  51.011  1.00  0.00     0.056 C 
HETATM    5  C   UNL     1       3.334  28.993  51.520  1.00  0.00     0.012 C 
HETATM    6  S   UNL     1       3.917  28.177  52.890  1.00  0.00    -0.055 SA
HETATM    7  C   UNL     1       5.472  28.817  52.579  1.00  0.00     0.173 C 
HETATM    8  N   UNL     1       5.550  29.686  51.596  1.00  0.00    -0.227 NA
HETATM    9  C   UNL     1       1.981  28.765  50.951  1.00  0.00     0.055 C 
HETATM   10  C   UNL     1       1.939  29.248  49.475  1.00  0.00     0.012 C 
HETATM   11  C   UNL     1       2.406  28.173  48.391  1.00  0.00     0.008 C 
HETATM   12  C   UNL     1       1.194  27.221  48.162  1.00  0.00     0.020 C 
HETATM   13  C   UNL     1       2.717  28.858  47.023  1.00  0.00     0.128 C 
HETATM   14  C   UNL     1       1.974  30.176  46.856  1.00  0.00     0.033 C 
HETATM   15  C   UNL     1       2.454  31.217  47.867  1.00  0.00     0.013 C 
ENDROOT
BRANCH   7  16
HETATM   16  N   UNL     1       6.583  28.287  53.184  1.00  0.00    -0.305 N 
HETATM   17  C   UNL     1       6.775  28.244  54.547  1.00  0.00     0.227 C 
HETATM   18  O   UNL     1       6.344  29.078  55.340  1.00  0.00    -0.273 OA
HETATM   19  H   UNL     1       7.262  27.888  52.546  1.00  0.00     0.171 HD
BRANCH  17  20
HETATM   20  C   UNL     1       7.576  27.019  55.003  1.00  0.00     0.078 C 
HETATM   21  C   UNL     1       7.566  26.845  56.531  1.00  0.00     0.014 C 
HETATM   22  C   UNL     1       6.229  26.347  57.089  1.00  0.00     0.001 C 
HETATM   23  C   UNL     1       5.722  25.108  56.360  1.00  0.00     0.000 C 
HETATM   24  C   UNL     1       5.688  25.313  54.851  1.00  0.00     0.001 C 
HETATM   25  C   UNL     1       7.051  25.747  54.313  1.00  0.00     0.014 C 
ENDBRANCH  17  20
ENDBRANCH   7  16
BRANCH   3  26
HETATM   26  C   UNL     1       4.619  32.153  50.053  1.00  0.00     0.114 C 
BRANCH  26  27
HETATM   27  C   UNL     1       5.923  32.492  49.355  1.00  0.00     0.218 C 
HETATM   28  N   UNL     1       5.930  33.672  48.662  1.00  0.00    -0.359 N 
HETATM   29  H   UNL     1       5.222  34.369  48.903  1.00  0.00     0.162 HD
HETATM   30  O   UNL     1       6.876  31.714  49.360  1.00  0.00    -0.274 OA
BRANCH  28  31
HETATM   31  C   UNL     1       7.078  34.088  47.886  1.00  0.00     0.148 C 
BRANCH  31  32
HETATM   32  C   UNL     1       7.385  35.578  48.051  1.00  0.00     0.186 C 
BRANCH  32  33
HETATM   33  O   UNL     1       8.129  35.883  49.241  1.00  0.00    -0.394 OA
HETATM   34  C   UNL     1       7.431  36.774  50.108  1.00  0.00     0.201 C 
ENDBRANCH  32  33
ENDBRANCH  31  32
ENDBRANCH  28  31
ENDBRANCH  26  27
ENDBRANCH   3  26
BRANCH  11  35
HETATM   35  C   UNL     1       3.618  27.282  48.781  1.00  0.00     0.176 C 
BRANCH  35  36
HETATM   36  O   UNL     1       3.267  25.910  48.903  1.00  0.00    -0.400 OA
HETATM   37  H   UNL     1       2.349  25.882  49.224  1.00  0.00     0.209 HD
ENDBRANCH  35  36
ENDBRANCH  11  35
BRANCH  13  38
HETATM   38  O   UNL     1       4.116  29.108  46.878  1.00  0.00    -0.395 OA
HETATM   39  H   UNL     1       4.222  29.847  46.251  1.00  0.00     0.210 HD
ENDBRANCH  13  38
TORSDOF 10
ENDMDL
