MODEL 1
REMARK VINA RESULT:      -9.9      0.000      0.000
REMARK  8 active torsions:
REMARK  status: ('A' for Active; 'I' for Inactive)
REMARK    1  A    between atoms: C_2  and  N_3 
REMARK       I    between atoms: N_3  and  C_4 
REMARK       I    between atoms: C_4  and  N_5 
REMARK       I    between atoms: N_5  and  C_6 
REMARK    2  A    between atoms: C_6  and  C_7 
REMARK    3  A    between atoms: C_7  and  S_8 
REMARK    4  A    between atoms: C_7  and  C_29 
REMARK    5  A    between atoms: S_8  and  C_9 
REMARK    6  A    between atoms: N_10  and  C_11 
REMARK    7  A    between atoms: C_18  and  C_19 
REMARK    8  A    between atoms: C_19  and  N_20 
ROOT
HETATM    1  C   UNL     1       6.534  27.478  57.244  1.00  0.00     0.197 A 
HETATM    2  N   UNL     1       6.353  28.851  57.280  1.00  0.00    -0.274 N 
HETATM    3  C   UNL     1       7.491  29.301  57.940  1.00  0.00     0.161 A 
HETATM    4  N   UNL     1       8.239  28.273  58.303  1.00  0.00    -0.132 NA
HETATM    5  N   UNL     1       7.634  27.140  57.873  1.00  0.00    -0.122 NA
ENDROOT
BRANCH   1   6
HETATM    6  S   UNL     1       5.646  26.363  56.264  1.00  0.00    -0.071 SA
BRANCH   6   7
HETATM    7  C   UNL     1       6.765  26.159  54.814  1.00  0.00     0.175 C 
BRANCH   7   8
HETATM    8  C   UNL     1       6.288  26.973  53.595  1.00  0.00     0.224 C 
HETATM    9  N   UNL     1       5.038  26.659  53.090  1.00  0.00    -0.178 NA
HETATM   10  C   UNL     1       4.233  27.662  52.670  1.00  0.00     0.300 C 
HETATM   11  H   UNL     1       4.499  26.128  53.765  1.00  0.00     0.141 HD
HETATM   12  N   UNL     1       4.489  28.266  51.488  1.00  0.00    -0.348 N 
HETATM   13  O   UNL     1       3.246  27.974  53.333  1.00  0.00    -0.254 OA
HETATM   14  H   UNL     1       3.801  28.970  51.248  1.00  0.00     0.163 HD
HETATM   15  O   UNL     1       7.079  27.720  53.013  1.00  0.00    -0.278 OA
BRANCH  12  16
HETATM   16  C   UNL     1       5.380  27.822  50.432  1.00  0.00     0.119 C 
HETATM   17  C   UNL     1       4.685  26.845  49.504  1.00  0.00     0.026 C 
ENDBRANCH  12  16
ENDBRANCH   7   8
BRANCH   7  18
HETATM   18  C   UNL     1       7.159  24.707  54.539  1.00  0.00    -0.035 A 
HETATM   19  C   UNL     1       7.582  24.257  53.278  1.00  0.00     0.009 A 
HETATM   20  C   UNL     1       7.954  22.924  53.078  1.00  0.00     0.001 A 
HETATM   21  C   UNL     1       7.902  22.015  54.130  1.00  0.00     0.000 A 
HETATM   22  C   UNL     1       7.483  22.439  55.389  1.00  0.00     0.001 A 
HETATM   23  C   UNL     1       7.121  23.773  55.593  1.00  0.00     0.009 A 
ENDBRANCH   7  18
ENDBRANCH   6   7
ENDBRANCH   1   6
BRANCH   2  24
HETATM   24  C   UNL     1       5.267  29.614  56.785  1.00  0.00     0.043 A 
HETATM   25  C   UNL     1       5.269  30.036  55.446  1.00  0.00     0.033 A 
HETATM   26  C   UNL     1       4.188  30.765  54.942  1.00  0.00     0.044 A 
HETATM   27  C   UNL     1       3.121  31.076  55.774  1.00  0.00     0.116 A 
HETATM   28  F   UNL     1       2.085  31.772  55.289  1.00  0.00    -0.206 F 
HETATM   29  C   UNL     1       3.116  30.681  57.106  1.00  0.00     0.044 A 
HETATM   30  C   UNL     1       4.191  29.952  57.619  1.00  0.00     0.033 A 
ENDBRANCH   2  24
BRANCH   3  31
HETATM   31  C   UNL     1       7.842  30.687  58.341  1.00  0.00     0.315 C 
BRANCH  31  32
HETATM   32  N   UNL     1       7.776  30.806  59.862  1.00  0.00    -0.064 N 
HETATM   33  H   UNL     1       7.286  29.940  60.151  1.00  0.00     0.280 HD
HETATM   34  C   UNL     1       9.145  30.747  60.499  1.00  0.00     0.235 C 
HETATM   35  C   UNL     1       8.993  30.649  62.010  1.00  0.00     0.028 C 
HETATM   36  C   UNL     1       8.153  31.795  62.562  1.00  0.00     0.003 C 
HETATM   37  C   UNL     1       6.805  31.887  61.854  1.00  0.00     0.028 C 
HETATM   38  C   UNL     1       6.960  31.971  60.341  1.00  0.00     0.235 C 
ENDBRANCH  31  32
ENDBRANCH   3  31
TORSDOF 8
ENDMDL
MODEL 2
REMARK VINA RESULT:      -9.8      2.893      4.354
REMARK  8 active torsions:
REMARK  status: ('A' for Active; 'I' for Inactive)
REMARK    1  A    between atoms: C_2  and  N_3 
REMARK       I    between atoms: N_3  and  C_4 
REMARK       I    between atoms: C_4  and  N_5 
REMARK       I    between atoms: N_5  and  C_6 
REMARK    2  A    between atoms: C_6  and  C_7 
REMARK    3  A    between atoms: C_7  and  S_8 
REMARK    4  A    between atoms: C_7  and  C_29 
REMARK    5  A    between atoms: S_8  and  C_9 
REMARK    6  A    between atoms: N_10  and  C_11 
REMARK    7  A    between atoms: C_18  and  C_19 
REMARK    8  A    between atoms: C_19  and  N_20 
ROOT
HETATM    1  C   UNL     1       5.134  28.770  54.662  1.00  0.00     0.197 A 
HETATM    2  N   UNL     1       5.831  28.288  55.758  1.00  0.00    -0.274 N 
HETATM    3  C   UNL     1       6.044  29.429  56.522  1.00  0.00     0.161 A 
HETATM    4  N   UNL     1       5.562  30.489  55.896  1.00  0.00    -0.132 NA
HETATM    5  N   UNL     1       5.002  30.073  54.734  1.00  0.00    -0.122 NA
ENDROOT
BRANCH   1   6
HETATM    6  S   UNL     1       4.273  27.813  53.506  1.00  0.00    -0.071 SA
BRANCH   6   7
HETATM    7  C   UNL     1       5.588  27.440  52.270  1.00  0.00     0.175 C 
BRANCH   7   8
HETATM    8  C   UNL     1       5.143  27.771  50.832  1.00  0.00     0.224 C 
HETATM    9  N   UNL     1       5.343  26.787  49.880  1.00  0.00    -0.178 NA
HETATM   10  C   UNL     1       4.392  26.587  48.937  1.00  0.00     0.300 C 
HETATM   11  H   UNL     1       5.498  25.886  50.318  1.00  0.00     0.141 HD
HETATM   12  N   UNL     1       4.278  27.465  47.915  1.00  0.00    -0.348 N 
HETATM   13  O   UNL     1       3.683  25.584  48.985  1.00  0.00    -0.254 OA
HETATM   14  H   UNL     1       3.567  27.198  47.244  1.00  0.00     0.163 HD
HETATM   15  O   UNL     1       4.808  28.923  50.547  1.00  0.00    -0.278 OA
BRANCH  12  16
HETATM   16  C   UNL     1       5.218  28.494  47.512  1.00  0.00     0.119 C 
HETATM   17  C   UNL     1       4.501  29.782  47.157  1.00  0.00     0.026 C 
ENDBRANCH  12  16
ENDBRANCH   7   8
BRANCH   7  18
HETATM   18  C   UNL     1       6.252  26.077  52.470  1.00  0.00    -0.035 A 
HETATM   19  C   UNL     1       7.613  25.846  52.212  1.00  0.00     0.009 A 
HETATM   20  C   UNL     1       8.183  24.588  52.429  1.00  0.00     0.001 A 
HETATM   21  C   UNL     1       7.403  23.536  52.900  1.00  0.00     0.000 A 
HETATM   22  C   UNL     1       6.051  23.741  53.160  1.00  0.00     0.001 A 
HETATM   23  C   UNL     1       5.482  25.000  52.953  1.00  0.00     0.009 A 
ENDBRANCH   7  18
ENDBRANCH   6   7
ENDBRANCH   1   6
BRANCH   2  24
HETATM   24  C   UNL     1       6.245  26.960  56.031  1.00  0.00     0.043 A 
HETATM   25  C   UNL     1       7.564  26.573  55.746  1.00  0.00     0.033 A 
HETATM   26  C   UNL     1       7.988  25.274  56.038  1.00  0.00     0.044 A 
HETATM   27  C   UNL     1       7.098  24.369  56.599  1.00  0.00     0.116 A 
HETATM   28  F   UNL     1       7.506  23.125  56.880  1.00  0.00    -0.206 F 
HETATM   29  C   UNL     1       5.784  24.734  56.867  1.00  0.00     0.044 A 
HETATM   30  C   UNL     1       5.350  26.031  56.580  1.00  0.00     0.033 A 
ENDBRANCH   2  24
BRANCH   3  31
HETATM   31  C   UNL     1       6.801  29.566  57.793  1.00  0.00     0.315 C 
BRANCH  31  32
HETATM   32  N   UNL     1       8.192  30.120  57.497  1.00  0.00    -0.064 N 
HETATM   33  H   UNL     1       8.008  30.896  56.836  1.00  0.00     0.280 HD
HETATM   34  C   UNL     1       8.829  30.747  58.715  1.00  0.00     0.235 C 
HETATM   35  C   UNL     1      10.104  31.467  58.303  1.00  0.00     0.028 C 
HETATM   36  C   UNL     1      11.062  30.532  57.574  1.00  0.00     0.003 C 
HETATM   37  C   UNL     1      10.380  29.849  56.393  1.00  0.00     0.028 C 
HETATM   38  C   UNL     1       9.096  29.141  56.806  1.00  0.00     0.235 C 
ENDBRANCH  31  32
ENDBRANCH   3  31
TORSDOF 8
ENDMDL
MODEL 3
REMARK VINA RESULT:      -9.5      3.008      7.550
REMARK  8 active torsions:
REMARK  status: ('A' for Active; 'I' for Inactive)
REMARK    1  A    between atoms: C_2  and  N_3 
REMARK       I    between atoms: N_3  and  C_4 
REMARK       I    between atoms: C_4  and  N_5 
REMARK       I    between atoms: N_5  and  C_6 
REMARK    2  A    between atoms: C_6  and  C_7 
REMARK    3  A    between atoms: C_7  and  S_8 
REMARK    4  A    between atoms: C_7  and  C_29 
REMARK    5  A    between atoms: S_8  and  C_9 
REMARK    6  A    between atoms: N_10  and  C_11 
REMARK    7  A    between atoms: C_18  and  C_19 
REMARK    8  A    between atoms: C_19  and  N_20 
ROOT
HETATM    1  C   UNL     1       6.854  26.596  56.998  1.00  0.00     0.197 A 
HETATM    2  N   UNL     1       7.318  25.736  56.017  1.00  0.00    -0.274 N 
HETATM    3  C   UNL     1       8.356  25.065  56.652  1.00  0.00     0.161 A 
HETATM    4  N   UNL     1       8.515  25.534  57.877  1.00  0.00    -0.132 NA
HETATM    5  N   UNL     1       7.581  26.494  58.085  1.00  0.00    -0.122 NA
ENDROOT
BRANCH   1   6
HETATM    6  S   UNL     1       5.358  27.465  56.962  1.00  0.00    -0.071 SA
BRANCH   6   7
HETATM    7  C   UNL     1       5.775  28.890  55.872  1.00  0.00     0.175 C 
BRANCH   7   8
HETATM    8  C   UNL     1       5.572  30.243  56.581  1.00  0.00     0.224 C 
HETATM    9  N   UNL     1       5.725  30.251  57.957  1.00  0.00    -0.178 NA
HETATM   10  C   UNL     1       6.345  31.305  58.538  1.00  0.00     0.300 C 
HETATM   11  H   UNL     1       6.222  29.425  58.270  1.00  0.00     0.141 HD
HETATM   12  N   UNL     1       5.680  32.475  58.669  1.00  0.00    -0.348 N 
HETATM   13  O   UNL     1       7.479  31.174  58.995  1.00  0.00    -0.254 OA
HETATM   14  H   UNL     1       6.217  33.181  59.156  1.00  0.00     0.163 HD
HETATM   15  O   UNL     1       5.113  31.199  55.951  1.00  0.00    -0.278 OA
BRANCH  12  16
HETATM   16  C   UNL     1       4.258  32.718  58.505  1.00  0.00     0.119 C 
HETATM   17  C   UNL     1       3.951  34.202  58.525  1.00  0.00     0.026 C 
ENDBRANCH  12  16
ENDBRANCH   7   8
BRANCH   7  18
HETATM   18  C   UNL     1       5.194  28.778  54.462  1.00  0.00    -0.035 A 
HETATM   19  C   UNL     1       5.928  29.087  53.306  1.00  0.00     0.009 A 
HETATM   20  C   UNL     1       5.362  28.949  52.034  1.00  0.00     0.001 A 
HETATM   21  C   UNL     1       4.049  28.509  51.895  1.00  0.00     0.000 A 
HETATM   22  C   UNL     1       3.301  28.200  53.028  1.00  0.00     0.001 A 
HETATM   23  C   UNL     1       3.868  28.327  54.298  1.00  0.00     0.009 A 
ENDBRANCH   7  18
ENDBRANCH   6   7
ENDBRANCH   1   6
BRANCH   2  24
HETATM   24  C   UNL     1       6.863  25.586  54.683  1.00  0.00     0.043 A 
HETATM   25  C   UNL     1       5.608  25.007  54.440  1.00  0.00     0.033 A 
HETATM   26  C   UNL     1       5.139  24.881  53.129  1.00  0.00     0.044 A 
HETATM   27  C   UNL     1       5.924  25.322  52.073  1.00  0.00     0.116 A 
HETATM   28  F   UNL     1       5.473  25.204  50.818  1.00  0.00    -0.206 F 
HETATM   29  C   UNL     1       7.176  25.880  52.299  1.00  0.00     0.044 A 
HETATM   30  C   UNL     1       7.654  26.010  53.606  1.00  0.00     0.033 A 
ENDBRANCH   2  24
BRANCH   3  31
HETATM   31  C   UNL     1       9.288  24.054  56.089  1.00  0.00     0.315 C 
BRANCH  31  32
HETATM   32  N   UNL     1       8.486  22.883  55.530  1.00  0.00    -0.064 N 
HETATM   33  H   UNL     1       7.505  23.213  55.583  1.00  0.00     0.280 HD
HETATM   34  C   UNL     1       8.770  22.642  54.065  1.00  0.00     0.235 C 
HETATM   35  C   UNL     1       7.785  21.617  53.523  1.00  0.00     0.028 C 
HETATM   36  C   UNL     1       7.823  20.325  54.332  1.00  0.00     0.003 C 
HETATM   37  C   UNL     1       7.610  20.595  55.818  1.00  0.00     0.028 C 
HETATM   38  C   UNL     1       8.588  21.633  56.355  1.00  0.00     0.235 C 
ENDBRANCH  31  32
ENDBRANCH   3  31
TORSDOF 8
ENDMDL
MODEL 4
REMARK VINA RESULT:      -9.4      2.461      7.455
REMARK  8 active torsions:
REMARK  status: ('A' for Active; 'I' for Inactive)
REMARK    1  A    between atoms: C_2  and  N_3 
REMARK       I    between atoms: N_3  and  C_4 
REMARK       I    between atoms: C_4  and  N_5 
REMARK       I    between atoms: N_5  and  C_6 
REMARK    2  A    between atoms: C_6  and  C_7 
REMARK    3  A    between atoms: C_7  and  S_8 
REMARK    4  A    between atoms: C_7  and  C_29 
REMARK    5  A    between atoms: S_8  and  C_9 
REMARK    6  A    between atoms: N_10  and  C_11 
REMARK    7  A    between atoms: C_18  and  C_19 
REMARK    8  A    between atoms: C_19  and  N_20 
ROOT
HETATM    1  C   UNL     1       8.085  27.821  56.810  1.00  0.00     0.197 A 
HETATM    2  N   UNL     1       7.157  27.111  56.067  1.00  0.00    -0.274 N 
HETATM    3  C   UNL     1       7.191  25.848  56.646  1.00  0.00     0.161 A 
HETATM    4  N   UNL     1       8.100  25.815  57.606  1.00  0.00    -0.132 NA
HETATM    5  N   UNL     1       8.659  27.045  57.698  1.00  0.00    -0.122 NA
ENDROOT
BRANCH   1   6
HETATM    6  S   UNL     1       8.274  29.541  56.822  1.00  0.00    -0.071 SA
BRANCH   6   7
HETATM    7  C   UNL     1       7.024  30.050  58.076  1.00  0.00     0.175 C 
BRANCH   7   8
HETATM    8  C   UNL     1       5.769  30.668  57.427  1.00  0.00     0.224 C 
HETATM    9  N   UNL     1       4.548  30.293  57.959  1.00  0.00    -0.178 NA
HETATM   10  C   UNL     1       3.577  31.227  58.088  1.00  0.00     0.300 C 
HETATM   11  H   UNL     1       4.665  29.880  58.878  1.00  0.00     0.141 HD
HETATM   12  N   UNL     1       2.902  31.636  56.990  1.00  0.00    -0.348 N 
HETATM   13  O   UNL     1       3.276  31.649  59.202  1.00  0.00    -0.254 OA
HETATM   14  H   UNL     1       2.169  32.302  57.203  1.00  0.00     0.163 HD
HETATM   15  O   UNL     1       5.877  31.307  56.378  1.00  0.00    -0.278 OA
BRANCH  12  16
HETATM   16  C   UNL     1       2.879  31.023  55.674  1.00  0.00     0.119 C 
HETATM   17  C   UNL     1       2.764  32.071  54.584  1.00  0.00     0.026 C 
ENDBRANCH  12  16
ENDBRANCH   7   8
BRANCH   7  18
HETATM   18  C   UNL     1       7.615  30.819  59.259  1.00  0.00    -0.035 A 
HETATM   19  C   UNL     1       7.042  31.996  59.768  1.00  0.00     0.009 A 
HETATM   20  C   UNL     1       7.605  32.654  60.866  1.00  0.00     0.001 A 
HETATM   21  C   UNL     1       8.754  32.153  61.469  1.00  0.00     0.000 A 
HETATM   22  C   UNL     1       9.341  30.990  60.980  1.00  0.00     0.001 A 
HETATM   23  C   UNL     1       8.774  30.325  59.890  1.00  0.00     0.009 A 
ENDBRANCH   7  18
ENDBRANCH   6   7
ENDBRANCH   1   6
BRANCH   2  24
HETATM   24  C   UNL     1       6.375  27.552  54.971  1.00  0.00     0.043 A 
HETATM   25  C   UNL     1       6.982  27.748  53.720  1.00  0.00     0.033 A 
HETATM   26  C   UNL     1       6.214  28.156  52.627  1.00  0.00     0.044 A 
HETATM   27  C   UNL     1       4.853  28.376  52.787  1.00  0.00     0.116 A 
HETATM   28  F   UNL     1       4.116  28.764  51.739  1.00  0.00    -0.206 F 
HETATM   29  C   UNL     1       4.243  28.204  54.024  1.00  0.00     0.044 A 
HETATM   30  C   UNL     1       5.003  27.796  55.123  1.00  0.00     0.033 A 
ENDBRANCH   2  24
BRANCH   3  31
HETATM   31  C   UNL     1       6.457  24.622  56.240  1.00  0.00     0.315 C 
BRANCH  31  32
HETATM   32  N   UNL     1       7.245  23.898  55.151  1.00  0.00    -0.064 N 
HETATM   33  H   UNL     1       8.158  24.389  55.146  1.00  0.00     0.280 HD
HETATM   34  C   UNL     1       7.541  22.463  55.518  1.00  0.00     0.235 C 
HETATM   35  C   UNL     1       8.507  21.872  54.502  1.00  0.00     0.028 C 
HETATM   36  C   UNL     1       7.970  22.000  53.081  1.00  0.00     0.003 C 
HETATM   37  C   UNL     1       7.605  23.444  52.754  1.00  0.00     0.028 C 
HETATM   38  C   UNL     1       6.649  24.038  53.781  1.00  0.00     0.235 C 
ENDBRANCH  31  32
ENDBRANCH   3  31
TORSDOF 8
ENDMDL
MODEL 5
REMARK VINA RESULT:      -9.3      3.477      8.534
REMARK  8 active torsions:
REMARK  status: ('A' for Active; 'I' for Inactive)
REMARK    1  A    between atoms: C_2  and  N_3 
REMARK       I    between atoms: N_3  and  C_4 
REMARK       I    between atoms: C_4  and  N_5 
REMARK       I    between atoms: N_5  and  C_6 
REMARK    2  A    between atoms: C_6  and  C_7 
REMARK    3  A    between atoms: C_7  and  S_8 
REMARK    4  A    between atoms: C_7  and  C_29 
REMARK    5  A    between atoms: S_8  and  C_9 
REMARK    6  A    between atoms: N_10  and  C_11 
REMARK    7  A    between atoms: C_18  and  C_19 
REMARK    8  A    between atoms: C_19  and  N_20 
ROOT
HETATM    1  C   UNL     1       4.552  28.006  54.274  1.00  0.00     0.197 A 
HETATM    2  N   UNL     1       5.143  27.499  53.128  1.00  0.00    -0.274 N 
HETATM    3  C   UNL     1       4.831  28.453  52.166  1.00  0.00     0.161 A 
HETATM    4  N   UNL     1       4.079  29.401  52.697  1.00  0.00    -0.132 NA
HETATM    5  N   UNL     1       3.902  29.114  54.009  1.00  0.00    -0.122 NA
ENDROOT
BRANCH   1   6
HETATM    6  S   UNL     1       4.854  27.473  55.893  1.00  0.00    -0.071 SA
BRANCH   6   7
HETATM    7  C   UNL     1       6.642  27.038  55.820  1.00  0.00     0.175 C 
BRANCH   7   8
HETATM    8  C   UNL     1       6.899  25.570  56.217  1.00  0.00     0.224 C 
HETATM    9  N   UNL     1       8.223  25.185  56.342  1.00  0.00    -0.178 NA
HETATM   10  C   UNL     1       8.567  24.352  57.352  1.00  0.00     0.300 C 
HETATM   11  H   UNL     1       8.829  25.994  56.425  1.00  0.00     0.141 HD
HETATM   12  N   UNL     1       8.259  23.039  57.262  1.00  0.00    -0.348 N 
HETATM   13  O   UNL     1       9.208  24.782  58.309  1.00  0.00    -0.254 OA
HETATM   14  H   UNL     1       8.601  22.499  58.048  1.00  0.00     0.163 HD
HETATM   15  O   UNL     1       5.962  24.769  56.230  1.00  0.00    -0.278 OA
BRANCH  12  16
HETATM   16  C   UNL     1       7.821  22.302  56.091  1.00  0.00     0.119 C 
HETATM   17  C   UNL     1       8.038  20.812  56.269  1.00  0.00     0.026 C 
ENDBRANCH  12  16
ENDBRANCH   7   8
BRANCH   7  18
HETATM   18  C   UNL     1       7.557  28.078  56.468  1.00  0.00    -0.035 A 
HETATM   19  C   UNL     1       7.450  28.455  57.816  1.00  0.00     0.009 A 
HETATM   20  C   UNL     1       8.323  29.396  58.372  1.00  0.00     0.001 A 
HETATM   21  C   UNL     1       9.313  29.982  57.589  1.00  0.00     0.000 A 
HETATM   22  C   UNL     1       9.436  29.626  56.250  1.00  0.00     0.001 A 
HETATM   23  C   UNL     1       8.571  28.679  55.695  1.00  0.00     0.009 A 
ENDBRANCH   7  18
ENDBRANCH   6   7
ENDBRANCH   1   6
BRANCH   2  24
HETATM   24  C   UNL     1       5.871  26.295  52.966  1.00  0.00     0.043 A 
HETATM   25  C   UNL     1       5.196  25.065  53.011  1.00  0.00     0.033 A 
HETATM   26  C   UNL     1       5.902  23.874  52.824  1.00  0.00     0.044 A 
HETATM   27  C   UNL     1       7.271  23.913  52.604  1.00  0.00     0.116 A 
HETATM   28  F   UNL     1       7.947  22.771  52.422  1.00  0.00    -0.206 F 
HETATM   29  C   UNL     1       7.954  25.123  52.575  1.00  0.00     0.044 A 
HETATM   30  C   UNL     1       7.258  26.320  52.761  1.00  0.00     0.033 A 
ENDBRANCH   2  24
BRANCH   3  31
HETATM   31  C   UNL     1       5.136  28.436  50.713  1.00  0.00     0.315 C 
BRANCH  31  32
HETATM   32  N   UNL     1       4.047  27.660  49.977  1.00  0.00    -0.064 N 
HETATM   33  H   UNL     1       3.540  27.173  50.738  1.00  0.00     0.280 HD
HETATM   34  C   UNL     1       3.040  28.573  49.318  1.00  0.00     0.235 C 
HETATM   35  C   UNL     1       1.874  27.746  48.797  1.00  0.00     0.028 C 
HETATM   36  C   UNL     1       2.349  26.645  47.856  1.00  0.00     0.003 C 
HETATM   37  C   UNL     1       3.421  25.779  48.510  1.00  0.00     0.028 C 
HETATM   38  C   UNL     1       4.579  26.612  49.044  1.00  0.00     0.235 C 
ENDBRANCH  31  32
ENDBRANCH   3  31
TORSDOF 8
ENDMDL
MODEL 6
REMARK VINA RESULT:      -9.0      2.785      6.898
REMARK  8 active torsions:
REMARK  status: ('A' for Active; 'I' for Inactive)
REMARK    1  A    between atoms: C_2  and  N_3 
REMARK       I    between atoms: N_3  and  C_4 
REMARK       I    between atoms: C_4  and  N_5 
REMARK       I    between atoms: N_5  and  C_6 
REMARK    2  A    between atoms: C_6  and  C_7 
REMARK    3  A    between atoms: C_7  and  S_8 
REMARK    4  A    between atoms: C_7  and  C_29 
REMARK    5  A    between atoms: S_8  and  C_9 
REMARK    6  A    between atoms: N_10  and  C_11 
REMARK    7  A    between atoms: C_18  and  C_19 
REMARK    8  A    between atoms: C_19  and  N_20 
ROOT
HETATM    1  C   UNL     1       6.663  26.445  57.090  1.00  0.00     0.197 A 
HETATM    2  N   UNL     1       7.170  25.708  56.032  1.00  0.00    -0.274 N 
HETATM    3  C   UNL     1       8.258  25.053  56.597  1.00  0.00     0.161 A 
HETATM    4  N   UNL     1       8.402  25.422  57.858  1.00  0.00    -0.132 NA
HETATM    5  N   UNL     1       7.410  26.295  58.158  1.00  0.00    -0.122 NA
ENDROOT
BRANCH   1   6
HETATM    6  S   UNL     1       5.114  27.212  57.143  1.00  0.00    -0.071 SA
BRANCH   6   7
HETATM    7  C   UNL     1       5.560  28.982  56.899  1.00  0.00     0.175 C 
BRANCH   7   8
HETATM    8  C   UNL     1       4.754  29.633  55.757  1.00  0.00     0.224 C 
HETATM    9  N   UNL     1       4.927  29.096  54.493  1.00  0.00    -0.178 NA
HETATM   10  C   UNL     1       3.849  28.972  53.683  1.00  0.00     0.300 C 
HETATM   11  H   UNL     1       5.347  28.175  54.545  1.00  0.00     0.141 HD
HETATM   12  N   UNL     1       3.344  30.071  53.080  1.00  0.00    -0.348 N 
HETATM   13  O   UNL     1       3.377  27.860  53.458  1.00  0.00    -0.254 OA
HETATM   14  H   UNL     1       2.569  29.861  52.462  1.00  0.00     0.163 HD
HETATM   15  O   UNL     1       4.148  30.687  55.962  1.00  0.00    -0.278 OA
BRANCH  12  16
HETATM   16  C   UNL     1       3.954  31.383  52.955  1.00  0.00     0.119 C 
HETATM   17  C   UNL     1       2.926  32.483  53.126  1.00  0.00     0.026 C 
ENDBRANCH  12  16
ENDBRANCH   7   8
BRANCH   7  18
HETATM   18  C   UNL     1       7.068  29.242  56.888  1.00  0.00    -0.035 A 
HETATM   19  C   UNL     1       7.855  29.122  55.731  1.00  0.00     0.009 A 
HETATM   20  C   UNL     1       9.227  29.390  55.763  1.00  0.00     0.001 A 
HETATM   21  C   UNL     1       9.839  29.775  56.952  1.00  0.00     0.000 A 
HETATM   22  C   UNL     1       9.079  29.898  58.112  1.00  0.00     0.001 A 
HETATM   23  C   UNL     1       7.706  29.640  58.079  1.00  0.00     0.009 A 
ENDBRANCH   7  18
ENDBRANCH   6   7
ENDBRANCH   1   6
BRANCH   2  24
HETATM   24  C   UNL     1       6.708  25.647  54.694  1.00  0.00     0.043 A 
HETATM   25  C   UNL     1       5.628  24.810  54.370  1.00  0.00     0.033 A 
HETATM   26  C   UNL     1       5.148  24.765  53.059  1.00  0.00     0.044 A 
HETATM   27  C   UNL     1       5.749  25.543  52.079  1.00  0.00     0.116 A 
HETATM   28  F   UNL     1       5.287  25.502  50.823  1.00  0.00    -0.206 F 
HETATM   29  C   UNL     1       6.830  26.362  52.383  1.00  0.00     0.044 A 
HETATM   30  C   UNL     1       7.318  26.414  53.691  1.00  0.00     0.033 A 
ENDBRANCH   2  24
BRANCH   3  31
HETATM   31  C   UNL     1       9.246  24.161  55.939  1.00  0.00     0.315 C 
BRANCH  31  32
HETATM   32  N   UNL     1       8.524  22.949  55.356  1.00  0.00    -0.064 N 
HETATM   33  H   UNL     1       7.535  23.256  55.308  1.00  0.00     0.280 HD
HETATM   34  C   UNL     1       8.944  22.663  53.933  1.00  0.00     0.235 C 
HETATM   35  C   UNL     1       8.036  21.593  53.345  1.00  0.00     0.028 C 
HETATM   36  C   UNL     1       8.029  20.334  54.204  1.00  0.00     0.003 C 
HETATM   37  C   UNL     1       7.677  20.652  55.653  1.00  0.00     0.028 C 
HETATM   38  C   UNL     1       8.579  21.734  56.235  1.00  0.00     0.235 C 
ENDBRANCH  31  32
ENDBRANCH   3  31
TORSDOF 8
ENDMDL
MODEL 7
REMARK VINA RESULT:      -8.9      2.859      4.199
REMARK  8 active torsions:
REMARK  status: ('A' for Active; 'I' for Inactive)
REMARK    1  A    between atoms: C_2  and  N_3 
REMARK       I    between atoms: N_3  and  C_4 
REMARK       I    between atoms: C_4  and  N_5 
REMARK       I    between atoms: N_5  and  C_6 
REMARK    2  A    between atoms: C_6  and  C_7 
REMARK    3  A    between atoms: C_7  and  S_8 
REMARK    4  A    between atoms: C_7  and  C_29 
REMARK    5  A    between atoms: S_8  and  C_9 
REMARK    6  A    between atoms: N_10  and  C_11 
REMARK    7  A    between atoms: C_18  and  C_19 
REMARK    8  A    between atoms: C_19  and  N_20 
ROOT
HETATM    1  C   UNL     1       4.743  29.198  54.438  1.00  0.00     0.197 A 
HETATM    2  N   UNL     1       5.459  28.859  55.574  1.00  0.00    -0.274 N 
HETATM    3  C   UNL     1       5.606  30.076  56.228  1.00  0.00     0.161 A 
HETATM    4  N   UNL     1       5.071  31.045  55.506  1.00  0.00    -0.132 NA
HETATM    5  N   UNL     1       4.542  30.493  54.388  1.00  0.00    -0.122 NA
ENDROOT
BRANCH   1   6
HETATM    6  S   UNL     1       3.942  28.093  53.375  1.00  0.00    -0.071 SA
BRANCH   6   7
HETATM    7  C   UNL     1       5.274  27.697  52.166  1.00  0.00     0.175 C 
BRANCH   7   8
HETATM    8  C   UNL     1       4.823  27.921  50.710  1.00  0.00     0.224 C 
HETATM    9  N   UNL     1       3.512  27.595  50.410  1.00  0.00    -0.178 NA
HETATM   10  C   UNL     1       2.813  28.400  49.575  1.00  0.00     0.300 C 
HETATM   11  H   UNL     1       2.956  27.517  51.255  1.00  0.00     0.141 HD
HETATM   12  N   UNL     1       3.062  28.352  48.247  1.00  0.00    -0.348 N 
HETATM   13  O   UNL     1       1.922  29.119  50.020  1.00  0.00    -0.254 OA
HETATM   14  H   UNL     1       2.455  28.959  47.710  1.00  0.00     0.163 HD
HETATM   15  O   UNL     1       5.660  28.197  49.847  1.00  0.00    -0.278 OA
BRANCH  12  16
HETATM   16  C   UNL     1       3.815  27.350  47.514  1.00  0.00     0.119 C 
HETATM   17  C   UNL     1       2.965  26.129  47.225  1.00  0.00     0.026 C 
ENDBRANCH  12  16
ENDBRANCH   7   8
BRANCH   7  18
HETATM   18  C   UNL     1       5.991  26.376  52.450  1.00  0.00    -0.035 A 
HETATM   19  C   UNL     1       7.355  26.174  52.184  1.00  0.00     0.009 A 
HETATM   20  C   UNL     1       7.974  24.956  52.480  1.00  0.00     0.001 A 
HETATM   21  C   UNL     1       7.240  23.914  53.039  1.00  0.00     0.000 A 
HETATM   22  C   UNL     1       5.885  24.090  53.308  1.00  0.00     0.001 A 
HETATM   23  C   UNL     1       5.268  25.310  53.023  1.00  0.00     0.009 A 
ENDBRANCH   7  18
ENDBRANCH   6   7
ENDBRANCH   1   6
BRANCH   2  24
HETATM   24  C   UNL     1       5.941  27.586  55.969  1.00  0.00     0.043 A 
HETATM   25  C   UNL     1       5.069  26.673  56.582  1.00  0.00     0.033 A 
HETATM   26  C   UNL     1       5.529  25.406  56.949  1.00  0.00     0.044 A 
HETATM   27  C   UNL     1       6.853  25.061  56.714  1.00  0.00     0.116 A 
HETATM   28  F   UNL     1       7.293  23.845  57.064  1.00  0.00    -0.206 F 
HETATM   29  C   UNL     1       7.732  25.962  56.126  1.00  0.00     0.044 A 
HETATM   30  C   UNL     1       7.281  27.232  55.755  1.00  0.00     0.033 A 
ENDBRANCH   2  24
BRANCH   3  31
HETATM   31  C   UNL     1       6.347  30.371  57.482  1.00  0.00     0.315 C 
BRANCH  31  32
HETATM   32  N   UNL     1       5.587  31.426  58.282  1.00  0.00    -0.064 N 
HETATM   33  H   UNL     1       5.485  32.210  57.613  1.00  0.00     0.280 HD
HETATM   34  C   UNL     1       4.185  30.982  58.626  1.00  0.00     0.235 C 
HETATM   35  C   UNL     1       3.418  32.153  59.223  1.00  0.00     0.028 C 
HETATM   36  C   UNL     1       4.144  32.739  60.428  1.00  0.00     0.003 C 
HETATM   37  C   UNL     1       5.583  33.111  60.083  1.00  0.00     0.028 C 
HETATM   38  C   UNL     1       6.343  31.940  59.472  1.00  0.00     0.235 C 
ENDBRANCH  31  32
ENDBRANCH   3  31
TORSDOF 8
ENDMDL
MODEL 8
REMARK VINA RESULT:      -8.9      3.510      7.239
REMARK  8 active torsions:
REMARK  status: ('A' for Active; 'I' for Inactive)
REMARK    1  A    between atoms: C_2  and  N_3 
REMARK       I    between atoms: N_3  and  C_4 
REMARK       I    between atoms: C_4  and  N_5 
REMARK       I    between atoms: N_5  and  C_6 
REMARK    2  A    between atoms: C_6  and  C_7 
REMARK    3  A    between atoms: C_7  and  S_8 
REMARK    4  A    between atoms: C_7  and  C_29 
REMARK    5  A    between atoms: S_8  and  C_9 
REMARK    6  A    between atoms: N_10  and  C_11 
REMARK    7  A    between atoms: C_18  and  C_19 
REMARK    8  A    between atoms: C_19  and  N_20 
ROOT
HETATM    1  C   UNL     1       5.037  26.248  53.263  1.00  0.00     0.197 A 
HETATM    2  N   UNL     1       6.166  26.242  54.065  1.00  0.00    -0.274 N 
HETATM    3  C   UNL     1       6.752  25.015  53.774  1.00  0.00     0.161 A 
HETATM    4  N   UNL     1       5.997  24.346  52.920  1.00  0.00    -0.132 NA
HETATM    5  N   UNL     1       4.926  25.115  52.611  1.00  0.00    -0.122 NA
ENDROOT
BRANCH   1   6
HETATM    6  S   UNL     1       4.058  27.627  52.899  1.00  0.00    -0.071 SA
BRANCH   6   7
HETATM    7  C   UNL     1       4.788  28.200  51.308  1.00  0.00     0.175 C 
BRANCH   7   8
HETATM    8  C   UNL     1       5.048  29.719  51.302  1.00  0.00     0.224 C 
HETATM    9  N   UNL     1       4.041  30.522  51.810  1.00  0.00    -0.178 NA
HETATM   10  C   UNL     1       4.378  31.595  52.564  1.00  0.00     0.300 C 
HETATM   11  H   UNL     1       3.392  29.979  52.368  1.00  0.00     0.141 HD
HETATM   12  N   UNL     1       4.869  32.700  51.960  1.00  0.00    -0.348 N 
HETATM   13  O   UNL     1       4.180  31.577  53.777  1.00  0.00    -0.254 OA
HETATM   14  H   UNL     1       5.046  33.458  52.609  1.00  0.00     0.163 HD
HETATM   15  O   UNL     1       6.025  30.169  50.699  1.00  0.00    -0.278 OA
BRANCH  12  16
HETATM   16  C   UNL     1       4.856  33.027  50.546  1.00  0.00     0.119 C 
HETATM   17  C   UNL     1       5.925  34.049  50.211  1.00  0.00     0.026 C 
ENDBRANCH  12  16
ENDBRANCH   7   8
BRANCH   7  18
HETATM   18  C   UNL     1       4.091  27.634  50.070  1.00  0.00    -0.035 A 
HETATM   19  C   UNL     1       4.570  26.516  49.368  1.00  0.00     0.009 A 
HETATM   20  C   UNL     1       3.888  26.020  48.253  1.00  0.00     0.001 A 
HETATM   21  C   UNL     1       2.719  26.636  47.814  1.00  0.00     0.000 A 
HETATM   22  C   UNL     1       2.227  27.747  48.494  1.00  0.00     0.001 A 
HETATM   23  C   UNL     1       2.903  28.238  49.614  1.00  0.00     0.009 A 
ENDBRANCH   7  18
ENDBRANCH   6   7
ENDBRANCH   1   6
BRANCH   2  24
HETATM   24  C   UNL     1       6.611  27.233  54.975  1.00  0.00     0.043 A 
HETATM   25  C   UNL     1       5.989  27.353  56.228  1.00  0.00     0.033 A 
HETATM   26  C   UNL     1       6.440  28.308  57.142  1.00  0.00     0.044 A 
HETATM   27  C   UNL     1       7.497  29.141  56.802  1.00  0.00     0.116 A 
HETATM   28  F   UNL     1       7.930  30.055  57.680  1.00  0.00    -0.206 F 
HETATM   29  C   UNL     1       8.109  29.044  55.558  1.00  0.00     0.044 A 
HETATM   30  C   UNL     1       7.666  28.092  54.637  1.00  0.00     0.033 A 
ENDBRANCH   2  24
BRANCH   3  31
HETATM   31  C   UNL     1       7.965  24.402  54.373  1.00  0.00     0.315 C 
BRANCH  31  32
HETATM   32  N   UNL     1       7.799  22.885  54.411  1.00  0.00    -0.064 N 
HETATM   33  H   UNL     1       6.809  22.743  54.139  1.00  0.00     0.280 HD
HETATM   34  C   UNL     1       8.629  22.193  53.356  1.00  0.00     0.235 C 
HETATM   35  C   UNL     1       8.252  20.720  53.304  1.00  0.00     0.028 C 
HETATM   36  C   UNL     1       8.396  20.059  54.670  1.00  0.00     0.003 C 
HETATM   37  C   UNL     1       7.612  20.815  55.738  1.00  0.00     0.028 C 
HETATM   38  C   UNL     1       7.982  22.293  55.777  1.00  0.00     0.235 C 
ENDBRANCH  31  32
ENDBRANCH   3  31
TORSDOF 8
ENDMDL
MODEL 9
REMARK VINA RESULT:      -8.8      3.195      5.931
REMARK  8 active torsions:
REMARK  status: ('A' for Active; 'I' for Inactive)
REMARK    1  A    between atoms: C_2  and  N_3 
REMARK       I    between atoms: N_3  and  C_4 
REMARK       I    between atoms: C_4  and  N_5 
REMARK       I    between atoms: N_5  and  C_6 
REMARK    2  A    between atoms: C_6  and  C_7 
REMARK    3  A    between atoms: C_7  and  S_8 
REMARK    4  A    between atoms: C_7  and  C_29 
REMARK    5  A    between atoms: S_8  and  C_9 
REMARK    6  A    between atoms: N_10  and  C_11 
REMARK    7  A    between atoms: C_18  and  C_19 
REMARK    8  A    between atoms: C_19  and  N_20 
ROOT
HETATM    1  C   UNL     1       5.233  28.482  54.175  1.00  0.00     0.197 A 
HETATM    2  N   UNL     1       6.253  27.661  54.628  1.00  0.00    -0.274 N 
HETATM    3  C   UNL     1       6.761  28.361  55.715  1.00  0.00     0.161 A 
HETATM    4  N   UNL     1       6.127  29.513  55.847  1.00  0.00    -0.132 NA
HETATM    5  N   UNL     1       5.181  29.586  54.881  1.00  0.00    -0.122 NA
ENDROOT
BRANCH   1   6
HETATM    6  S   UNL     1       3.987  28.034  53.061  1.00  0.00    -0.071 SA
BRANCH   6   7
HETATM    7  C   UNL     1       4.653  28.681  51.470  1.00  0.00     0.175 C 
BRANCH   7   8
HETATM    8  C   UNL     1       4.593  30.219  51.399  1.00  0.00     0.224 C 
HETATM    9  N   UNL     1       5.757  30.868  51.023  1.00  0.00    -0.178 NA
HETATM   10  C   UNL     1       5.671  31.939  50.200  1.00  0.00     0.300 C 
HETATM   11  H   UNL     1       6.403  30.224  50.580  1.00  0.00     0.141 HD
HETATM   12  N   UNL     1       5.246  33.123  50.696  1.00  0.00    -0.348 N 
HETATM   13  O   UNL     1       6.035  31.843  49.030  1.00  0.00    -0.254 OA
HETATM   14  H   UNL     1       5.262  33.867  50.008  1.00  0.00     0.163 HD
HETATM   15  O   UNL     1       3.607  30.813  51.841  1.00  0.00    -0.278 OA
BRANCH  12  16
HETATM   16  C   UNL     1       5.101  33.509  52.088  1.00  0.00     0.119 C 
HETATM   17  C   UNL     1       6.109  34.576  52.467  1.00  0.00     0.026 C 
ENDBRANCH  12  16
ENDBRANCH   7   8
BRANCH   7  18
HETATM   18  C   UNL     1       4.141  27.932  50.238  1.00  0.00    -0.035 A 
HETATM   19  C   UNL     1       3.177  28.464  49.368  1.00  0.00     0.009 A 
HETATM   20  C   UNL     1       2.754  27.753  48.240  1.00  0.00     0.001 A 
HETATM   21  C   UNL     1       3.280  26.494  47.967  1.00  0.00     0.000 A 
HETATM   22  C   UNL     1       4.235  25.945  48.819  1.00  0.00     0.001 A 
HETATM   23  C   UNL     1       4.666  26.659  49.940  1.00  0.00     0.009 A 
ENDBRANCH   7  18
ENDBRANCH   6   7
ENDBRANCH   1   6
BRANCH   2  24
HETATM   24  C   UNL     1       6.688  26.419  54.102  1.00  0.00     0.043 A 
HETATM   25  C   UNL     1       7.526  26.398  52.976  1.00  0.00     0.033 A 
HETATM   26  C   UNL     1       7.983  25.179  52.469  1.00  0.00     0.044 A 
HETATM   27  C   UNL     1       7.597  23.992  53.077  1.00  0.00     0.116 A 
HETATM   28  F   UNL     1       8.037  22.825  52.592  1.00  0.00    -0.206 F 
HETATM   29  C   UNL     1       6.753  23.999  54.181  1.00  0.00     0.044 A 
HETATM   30  C   UNL     1       6.291  25.212  54.696  1.00  0.00     0.033 A 
ENDBRANCH   2  24
BRANCH   3  31
HETATM   31  C   UNL     1       7.920  28.017  56.579  1.00  0.00     0.315 C 
BRANCH  31  32
HETATM   32  N   UNL     1       8.543  29.300  57.123  1.00  0.00    -0.064 N 
HETATM   33  H   UNL     1       8.164  30.036  56.500  1.00  0.00     0.280 HD
HETATM   34  C   UNL     1       8.049  29.630  58.513  1.00  0.00     0.235 C 
HETATM   35  C   UNL     1       8.532  31.019  58.903  1.00  0.00     0.028 C 
HETATM   36  C   UNL     1      10.049  31.133  58.792  1.00  0.00     0.003 C 
HETATM   37  C   UNL     1      10.537  30.723  57.407  1.00  0.00     0.028 C 
HETATM   38  C   UNL     1      10.039  29.338  57.013  1.00  0.00     0.235 C 
ENDBRANCH  31  32
ENDBRANCH   3  31
TORSDOF 8
ENDMDL
MODEL 10
REMARK VINA RESULT:      -8.7      2.645      7.034
REMARK  8 active torsions:
REMARK  status: ('A' for Active; 'I' for Inactive)
REMARK    1  A    between atoms: C_2  and  N_3 
REMARK       I    between atoms: N_3  and  C_4 
REMARK       I    between atoms: C_4  and  N_5 
REMARK       I    between atoms: N_5  and  C_6 
REMARK    2  A    between atoms: C_6  and  C_7 
REMARK    3  A    between atoms: C_7  and  S_8 
REMARK    4  A    between atoms: C_7  and  C_29 
REMARK    5  A    between atoms: S_8  and  C_9 
REMARK    6  A    between atoms: N_10  and  C_11 
REMARK    7  A    between atoms: C_18  and  C_19 
REMARK    8  A    between atoms: C_19  and  N_20 
ROOT
HETATM    1  C   UNL     1       5.594  28.658  56.591  1.00  0.00     0.197 A 
HETATM    2  N   UNL     1       6.848  28.171  56.924  1.00  0.00    -0.274 N 
HETATM    3  C   UNL     1       6.630  26.805  57.055  1.00  0.00     0.161 A 
HETATM    4  N   UNL     1       5.350  26.531  56.868  1.00  0.00    -0.132 NA
HETATM    5  N   UNL     1       4.708  27.690  56.587  1.00  0.00    -0.122 NA
ENDROOT
BRANCH   1   6
HETATM    6  S   UNL     1       5.251  30.232  55.961  1.00  0.00    -0.071 SA
BRANCH   6   7
HETATM    7  C   UNL     1       3.825  29.890  54.847  1.00  0.00     0.175 C 
BRANCH   7   8
HETATM    8  C   UNL     1       4.203  28.938  53.694  1.00  0.00     0.224 C 
HETATM    9  N   UNL     1       5.429  29.154  53.090  1.00  0.00    -0.178 NA
HETATM   10  C   UNL     1       6.179  28.085  52.733  1.00  0.00     0.300 C 
HETATM   11  H   UNL     1       6.024  29.732  53.674  1.00  0.00     0.141 HD
HETATM   12  N   UNL     1       5.835  27.372  51.637  1.00  0.00    -0.348 N 
HETATM   13  O   UNL     1       7.194  27.809  53.368  1.00  0.00    -0.254 OA
HETATM   14  H   UNL     1       6.486  26.622  51.434  1.00  0.00     0.163 HD
HETATM   15  O   UNL     1       3.358  28.164  53.240  1.00  0.00    -0.278 OA
BRANCH  12  16
HETATM   16  C   UNL     1       4.896  27.735  50.592  1.00  0.00     0.119 C 
HETATM   17  C   UNL     1       4.644  26.572  49.653  1.00  0.00     0.026 C 
ENDBRANCH  12  16
ENDBRANCH   7   8
BRANCH   7  18
HETATM   18  C   UNL     1       3.037  31.140  54.452  1.00  0.00    -0.035 A 
HETATM   19  C   UNL     1       2.250  31.865  55.361  1.00  0.00     0.009 A 
HETATM   20  C   UNL     1       1.563  33.016  54.961  1.00  0.00     0.001 A 
HETATM   21  C   UNL     1       1.643  33.458  53.644  1.00  0.00     0.000 A 
HETATM   22  C   UNL     1       2.415  32.753  52.724  1.00  0.00     0.001 A 
HETATM   23  C   UNL     1       3.110  31.609  53.125  1.00  0.00     0.009 A 
ENDBRANCH   7  18
ENDBRANCH   6   7
ENDBRANCH   1   6
BRANCH   2  24
HETATM   24  C   UNL     1       8.056  28.889  57.108  1.00  0.00     0.043 A 
HETATM   25  C   UNL     1       8.309  29.518  58.337  1.00  0.00     0.033 A 
HETATM   26  C   UNL     1       9.510  30.203  58.536  1.00  0.00     0.044 A 
HETATM   27  C   UNL     1      10.443  30.267  57.511  1.00  0.00     0.116 A 
HETATM   28  F   UNL     1      11.595  30.922  57.704  1.00  0.00    -0.206 F 
HETATM   29  C   UNL     1      10.197  29.665  56.284  1.00  0.00     0.044 A 
HETATM   30  C   UNL     1       8.999  28.976  56.074  1.00  0.00     0.033 A 
ENDBRANCH   2  24
BRANCH   3  31
HETATM   31  C   UNL     1       7.590  25.749  57.467  1.00  0.00     0.315 C 
BRANCH  31  32
HETATM   32  N   UNL     1       7.475  24.562  56.514  1.00  0.00    -0.064 N 
HETATM   33  H   UNL     1       6.479  24.287  56.588  1.00  0.00     0.280 HD
HETATM   34  C   UNL     1       7.695  24.961  55.074  1.00  0.00     0.235 C 
HETATM   35  C   UNL     1       7.351  23.788  54.167  1.00  0.00     0.028 C 
HETATM   36  C   UNL     1       8.145  22.542  54.543  1.00  0.00     0.003 C 
HETATM   37  C   UNL     1       7.972  22.197  56.019  1.00  0.00     0.028 C 
HETATM   38  C   UNL     1       8.303  23.378  56.923  1.00  0.00     0.235 C 
ENDBRANCH  31  32
ENDBRANCH   3  31
TORSDOF 8
ENDMDL
