MODEL 1
REMARK VINA RESULT:      -9.1      0.000      0.000
REMARK  3 active torsions:
REMARK  status: ('A' for Active; 'I' for Inactive)
REMARK    1  A    between atoms: C_9  and  C_10 
REMARK    2  A    between atoms: C_10  and  N_11 
REMARK    3  A    between atoms: C_15  and  N_16 
REMARK       I    between atoms: N_16  and  C_17 
REMARK       I    between atoms: C_17  and  N_18 
ROOT
HETATM    1  N   UNL     1       6.521  27.923  56.780  1.00  0.00    -0.067 N 
HETATM    2  H   UNL     1       6.719  28.178  55.806  1.00  0.00     0.280 HD
HETATM    3  C   UNL     1       5.787  29.064  57.448  1.00  0.00     0.237 C 
HETATM    4  C   UNL     1       6.635  30.327  57.394  1.00  0.00     0.053 C 
HETATM    5  C   UNL     1       7.991  30.128  58.076  1.00  0.00     0.089 C 
HETATM    6  C   UNL     1       8.701  28.918  57.459  1.00  0.00     0.053 C 
HETATM    7  C   UNL     1       7.852  27.655  57.455  1.00  0.00     0.237 C 
ENDROOT
BRANCH   1   8
HETATM    8  C   UNL     1       5.692  26.652  56.751  1.00  0.00     0.271 C 
BRANCH   8   9
HETATM    9  C   UNL     1       6.198  25.562  55.851  1.00  0.00    -0.029 C 
HETATM   10  C   UNL     1       5.886  25.767  54.381  1.00  0.00     0.211 C 
HETATM   11  O   UNL     1       6.697  25.027  53.463  1.00  0.00    -0.346 OA
HETATM   12  C   UNL     1       7.122  23.801  53.891  1.00  0.00     0.079 A 
HETATM   13  C   UNL     1       7.209  23.465  55.245  1.00  0.00    -0.001 A 
HETATM   14  C   UNL     1       7.527  22.900  52.905  1.00  0.00     0.039 A 
HETATM   15  C   UNL     1       7.690  22.202  55.608  1.00  0.00     0.038 A 
HETATM   16  C   UNL     1       6.829  24.447  56.257  1.00  0.00     0.021 C 
HETATM   17  C   UNL     1       8.077  21.296  54.617  1.00  0.00     0.035 A 
HETATM   18  C   UNL     1       8.000  21.640  53.269  1.00  0.00     0.026 A 
HETATM   19 CL   UNL     1       8.666  19.745  55.072  1.00  0.00    -0.084 Cl
ENDBRANCH   8   9
ENDBRANCH   1   8
BRANCH   5  20
HETATM   20  N   UNL     1       7.822  30.154  59.531  1.00  0.00    -0.339 N 
HETATM   21  C   UNL     1       7.904  31.232  60.357  1.00  0.00     0.314 C 
HETATM   22  N   UNL     1       7.595  30.934  61.640  1.00  0.00    -0.352 N 
HETATM   23  O   UNL     1       8.297  32.344  60.041  1.00  0.00    -0.248 OA
HETATM   24  H   UNL     1       6.856  30.272  61.834  1.00  0.00     0.160 HD
HETATM   25  H   UNL     1       7.591  31.738  62.259  1.00  0.00     0.160 HD
HETATM   26  H   UNL     1       7.366  29.351  59.943  1.00  0.00     0.164 HD
ENDBRANCH   5  20
TORSDOF 3
ENDMDL
MODEL 2
REMARK VINA RESULT:      -8.6      2.222      2.684
REMARK  3 active torsions:
REMARK  status: ('A' for Active; 'I' for Inactive)
REMARK    1  A    between atoms: C_9  and  C_10 
REMARK    2  A    between atoms: C_10  and  N_11 
REMARK    3  A    between atoms: C_15  and  N_16 
REMARK       I    between atoms: N_16  and  C_17 
REMARK       I    between atoms: C_17  and  N_18 
ROOT
HETATM    1  N   UNL     1       6.462  28.599  56.234  1.00  0.00    -0.067 N 
HETATM    2  H   UNL     1       6.454  28.779  55.224  1.00  0.00     0.280 HD
HETATM    3  C   UNL     1       5.126  28.019  56.641  1.00  0.00     0.237 C 
HETATM    4  C   UNL     1       4.010  28.991  56.287  1.00  0.00     0.053 C 
HETATM    5  C   UNL     1       4.203  30.348  56.971  1.00  0.00     0.089 C 
HETATM    6  C   UNL     1       5.592  30.899  56.629  1.00  0.00     0.053 C 
HETATM    7  C   UNL     1       6.720  29.923  56.927  1.00  0.00     0.237 C 
ENDROOT
BRANCH   1   8
HETATM    8  C   UNL     1       7.606  27.640  56.508  1.00  0.00     0.271 C 
BRANCH   8   9
HETATM    9  C   UNL     1       7.672  26.430  55.622  1.00  0.00    -0.029 C 
HETATM   10  C   UNL     1       7.377  26.705  54.160  1.00  0.00     0.211 C 
HETATM   11  O   UNL     1       7.847  25.721  53.234  1.00  0.00    -0.346 OA
HETATM   12  C   UNL     1       7.857  24.430  53.682  1.00  0.00     0.079 A 
HETATM   13  C   UNL     1       7.890  24.105  55.041  1.00  0.00    -0.001 A 
HETATM   14  C   UNL     1       7.887  23.430  52.709  1.00  0.00     0.039 A 
HETATM   15  C   UNL     1       7.937  22.760  55.424  1.00  0.00     0.038 A 
HETATM   16  C   UNL     1       7.911  25.173  56.037  1.00  0.00     0.021 C 
HETATM   17  C   UNL     1       7.949  21.761  54.447  1.00  0.00     0.035 A 
HETATM   18  C   UNL     1       7.927  22.090  53.093  1.00  0.00     0.026 A 
HETATM   19 CL   UNL     1       8.004  20.110  54.925  1.00  0.00    -0.084 Cl
ENDBRANCH   8   9
ENDBRANCH   1   8
BRANCH   5  20
HETATM   20  N   UNL     1       3.836  30.247  58.385  1.00  0.00    -0.339 N 
HETATM   21  C   UNL     1       3.282  31.210  59.170  1.00  0.00     0.314 C 
HETATM   22  N   UNL     1       2.969  30.762  60.408  1.00  0.00    -0.352 N 
HETATM   23  O   UNL     1       3.148  32.385  58.868  1.00  0.00    -0.248 OA
HETATM   24  H   UNL     1       2.609  29.825  60.523  1.00  0.00     0.160 HD
HETATM   25  H   UNL     1       2.500  31.451  60.987  1.00  0.00     0.160 HD
HETATM   26  H   UNL     1       3.755  29.311  58.761  1.00  0.00     0.164 HD
ENDBRANCH   5  20
TORSDOF 3
ENDMDL
MODEL 3
REMARK VINA RESULT:      -8.4      4.601      7.531
REMARK  3 active torsions:
REMARK  status: ('A' for Active; 'I' for Inactive)
REMARK    1  A    between atoms: C_9  and  C_10 
REMARK    2  A    between atoms: C_10  and  N_11 
REMARK    3  A    between atoms: C_15  and  N_16 
REMARK       I    between atoms: N_16  and  C_17 
REMARK       I    between atoms: C_17  and  N_18 
ROOT
HETATM    1  N   UNL     1       5.211  27.296  51.942  1.00  0.00    -0.067 N 
HETATM    2  H   UNL     1       6.191  27.575  51.828  1.00  0.00     0.280 HD
HETATM    3  C   UNL     1       4.876  26.241  50.912  1.00  0.00     0.237 C 
HETATM    4  C   UNL     1       5.108  26.792  49.512  1.00  0.00     0.053 C 
HETATM    5  C   UNL     1       4.266  28.043  49.249  1.00  0.00     0.089 C 
HETATM    6  C   UNL     1       4.539  29.083  50.342  1.00  0.00     0.053 C 
HETATM    7  C   UNL     1       4.363  28.539  51.752  1.00  0.00     0.237 C 
ENDROOT
BRANCH   1   8
HETATM    8  C   UNL     1       5.056  26.777  53.360  1.00  0.00     0.271 C 
BRANCH   8   9
HETATM    9  C   UNL     1       6.071  25.762  53.800  1.00  0.00    -0.029 C 
HETATM   10  C   UNL     1       7.053  26.266  54.840  1.00  0.00     0.211 C 
HETATM   11  O   UNL     1       7.729  25.259  55.598  1.00  0.00    -0.346 OA
HETATM   12  C   UNL     1       7.992  24.090  54.943  1.00  0.00     0.079 A 
HETATM   13  C   UNL     1       7.269  23.676  53.821  1.00  0.00    -0.001 A 
HETATM   14  C   UNL     1       8.995  23.283  55.482  1.00  0.00     0.039 A 
HETATM   15  C   UNL     1       7.571  22.446  53.225  1.00  0.00     0.038 A 
HETATM   16  C   UNL     1       6.188  24.515  53.311  1.00  0.00     0.021 C 
HETATM   17  C   UNL     1       8.588  21.650  53.756  1.00  0.00     0.035 A 
HETATM   18  C   UNL     1       9.299  22.061  54.882  1.00  0.00     0.026 A 
HETATM   19 CL   UNL     1       8.956  20.140  53.017  1.00  0.00    -0.084 Cl
ENDBRANCH   8   9
ENDBRANCH   1   8
BRANCH   5  20
HETATM   20  N   UNL     1       2.874  27.660  49.002  1.00  0.00    -0.339 N 
HETATM   21  C   UNL     1       2.371  27.015  47.914  1.00  0.00     0.314 C 
HETATM   22  N   UNL     1       1.057  26.718  48.042  1.00  0.00    -0.352 N 
HETATM   23  O   UNL     1       2.974  26.790  46.877  1.00  0.00    -0.248 OA
HETATM   24  H   UNL     1       0.695  26.434  48.942  1.00  0.00     0.160 HD
HETATM   25  H   UNL     1       0.680  26.184  47.267  1.00  0.00     0.160 HD
HETATM   26  H   UNL     1       2.262  27.651  49.808  1.00  0.00     0.164 HD
ENDBRANCH   5  20
TORSDOF 3
ENDMDL
MODEL 4
REMARK VINA RESULT:      -8.1      2.464      3.056
REMARK  3 active torsions:
REMARK  status: ('A' for Active; 'I' for Inactive)
REMARK    1  A    between atoms: C_9  and  C_10 
REMARK    2  A    between atoms: C_10  and  N_11 
REMARK    3  A    between atoms: C_15  and  N_16 
REMARK       I    between atoms: N_16  and  C_17 
REMARK       I    between atoms: C_17  and  N_18 
ROOT
HETATM    1  N   UNL     1       6.584  27.913  55.353  1.00  0.00    -0.067 N 
HETATM    2  H   UNL     1       6.530  27.081  55.950  1.00  0.00     0.280 HD
HETATM    3  C   UNL     1       7.368  28.986  56.075  1.00  0.00     0.237 C 
HETATM    4  C   UNL     1       6.689  29.325  57.394  1.00  0.00     0.053 C 
HETATM    5  C   UNL     1       5.250  29.804  57.183  1.00  0.00     0.089 C 
HETATM    6  C   UNL     1       4.475  28.756  56.376  1.00  0.00     0.053 C 
HETATM    7  C   UNL     1       5.162  28.363  55.077  1.00  0.00     0.237 C 
ENDROOT
BRANCH   1   8
HETATM    8  C   UNL     1       7.253  27.492  54.058  1.00  0.00     0.271 C 
BRANCH   8   9
HETATM    9  C   UNL     1       7.436  26.015  53.866  1.00  0.00    -0.029 C 
HETATM   10  C   UNL     1       7.391  25.559  52.421  1.00  0.00     0.211 C 
HETATM   11  O   UNL     1       7.985  24.285  52.150  1.00  0.00    -0.346 OA
HETATM   12  C   UNL     1       7.892  23.356  53.146  1.00  0.00     0.079 A 
HETATM   13  C   UNL     1       7.694  23.704  54.485  1.00  0.00    -0.001 A 
HETATM   14  C   UNL     1       8.059  22.021  52.774  1.00  0.00     0.039 A 
HETATM   15  C   UNL     1       7.648  22.698  55.456  1.00  0.00     0.038 A 
HETATM   16  C   UNL     1       7.576  25.112  54.853  1.00  0.00     0.021 C 
HETATM   17  C   UNL     1       7.798  21.361  55.078  1.00  0.00     0.035 A 
HETATM   18  C   UNL     1       8.006  21.019  53.743  1.00  0.00     0.026 A 
HETATM   19 CL   UNL     1       7.737  20.129  56.276  1.00  0.00    -0.084 Cl
ENDBRANCH   8   9
ENDBRANCH   1   8
BRANCH   5  20
HETATM   20  N   UNL     1       5.254  31.182  56.688  1.00  0.00    -0.339 N 
HETATM   21  C   UNL     1       4.254  32.101  56.778  1.00  0.00     0.314 C 
HETATM   22  N   UNL     1       4.616  33.318  56.311  1.00  0.00    -0.352 N 
HETATM   23  O   UNL     1       3.112  31.876  57.146  1.00  0.00    -0.248 OA
HETATM   24  H   UNL     1       5.555  33.656  56.474  1.00  0.00     0.160 HD
HETATM   25  H   UNL     1       3.903  34.030  56.426  1.00  0.00     0.160 HD
HETATM   26  H   UNL     1       6.160  31.579  56.474  1.00  0.00     0.164 HD
ENDBRANCH   5  20
TORSDOF 3
ENDMDL
MODEL 5
REMARK VINA RESULT:      -8.0      6.099      8.748
REMARK  3 active torsions:
REMARK  status: ('A' for Active; 'I' for Inactive)
REMARK    1  A    between atoms: C_9  and  C_10 
REMARK    2  A    between atoms: C_10  and  N_11 
REMARK    3  A    between atoms: C_15  and  N_16 
REMARK       I    between atoms: N_16  and  C_17 
REMARK       I    between atoms: C_17  and  N_18 
ROOT
HETATM    1  N   UNL     1       3.884  27.363  50.033  1.00  0.00    -0.067 N 
HETATM    2  H   UNL     1       3.405  26.710  50.663  1.00  0.00     0.280 HD
HETATM    3  C   UNL     1       3.080  28.641  49.945  1.00  0.00     0.237 C 
HETATM    4  C   UNL     1       1.681  28.337  49.426  1.00  0.00     0.053 C 
HETATM    5  C   UNL     1       1.721  27.666  48.050  1.00  0.00     0.089 C 
HETATM    6  C   UNL     1       2.607  26.417  48.115  1.00  0.00     0.053 C 
HETATM    7  C   UNL     1       3.993  26.687  48.680  1.00  0.00     0.237 C 
ENDROOT
BRANCH   1   8
HETATM    8  C   UNL     1       5.269  27.601  50.605  1.00  0.00     0.271 C 
BRANCH   8   9
HETATM    9  C   UNL     1       5.691  26.672  51.706  1.00  0.00    -0.029 C 
HETATM   10  C   UNL     1       5.273  27.115  53.095  1.00  0.00     0.211 C 
HETATM   11  O   UNL     1       5.251  26.092  54.095  1.00  0.00    -0.346 OA
HETATM   12  C   UNL     1       6.183  25.102  53.962  1.00  0.00     0.079 A 
HETATM   13  C   UNL     1       6.788  24.797  52.740  1.00  0.00    -0.001 A 
HETATM   14  C   UNL     1       6.473  24.357  55.106  1.00  0.00     0.039 A 
HETATM   15  C   UNL     1       7.706  23.743  52.673  1.00  0.00     0.038 A 
HETATM   16  C   UNL     1       6.426  25.558  51.547  1.00  0.00     0.021 C 
HETATM   17  C   UNL     1       8.007  23.012  53.825  1.00  0.00     0.035 A 
HETATM   18  C   UNL     1       7.393  23.312  55.039  1.00  0.00     0.026 A 
HETATM   19 CL   UNL     1       9.140  21.719  53.736  1.00  0.00    -0.084 Cl
ENDBRANCH   8   9
ENDBRANCH   1   8
BRANCH   5  20
HETATM   20  N   UNL     1       2.020  28.664  47.021  1.00  0.00    -0.339 N 
HETATM   21  C   UNL     1       1.196  29.633  46.540  1.00  0.00     0.314 C 
HETATM   22  N   UNL     1       1.814  30.460  45.664  1.00  0.00    -0.352 N 
HETATM   23  O   UNL     1       0.001  29.732  46.771  1.00  0.00    -0.248 OA
HETATM   24  H   UNL     1       2.776  30.724  45.821  1.00  0.00     0.160 HD
HETATM   25  H   UNL     1       1.231  31.225  45.341  1.00  0.00     0.160 HD
HETATM   26  H   UNL     1       2.999  28.813  46.813  1.00  0.00     0.164 HD
ENDBRANCH   5  20
TORSDOF 3
ENDMDL
MODEL 6
REMARK VINA RESULT:      -7.9      3.317      4.177
REMARK  3 active torsions:
REMARK  status: ('A' for Active; 'I' for Inactive)
REMARK    1  A    between atoms: C_9  and  C_10 
REMARK    2  A    between atoms: C_10  and  N_11 
REMARK    3  A    between atoms: C_15  and  N_16 
REMARK       I    between atoms: N_16  and  C_17 
REMARK       I    between atoms: C_17  and  N_18 
ROOT
HETATM    1  N   UNL     1       6.214  27.431  55.763  1.00  0.00    -0.067 N 
HETATM    2  H   UNL     1       5.589  26.618  55.790  1.00  0.00     0.280 HD
HETATM    3  C   UNL     1       5.647  28.518  56.649  1.00  0.00     0.237 C 
HETATM    4  C   UNL     1       4.256  28.905  56.167  1.00  0.00     0.053 C 
HETATM    5  C   UNL     1       4.276  29.392  54.715  1.00  0.00     0.089 C 
HETATM    6  C   UNL     1       4.929  28.328  53.827  1.00  0.00     0.053 C 
HETATM    7  C   UNL     1       6.300  27.887  54.319  1.00  0.00     0.237 C 
ENDROOT
BRANCH   1   8
HETATM    8  C   UNL     1       7.577  26.963  56.238  1.00  0.00     0.271 C 
BRANCH   8   9
HETATM    9  C   UNL     1       7.838  25.489  56.128  1.00  0.00    -0.029 C 
HETATM   10  C   UNL     1       8.416  24.858  57.380  1.00  0.00     0.211 C 
HETATM   11  O   UNL     1       8.269  23.439  57.487  1.00  0.00    -0.346 OA
HETATM   12  C   UNL     1       8.300  22.741  56.313  1.00  0.00     0.079 A 
HETATM   13  C   UNL     1       8.004  23.329  55.080  1.00  0.00    -0.001 A 
HETATM   14  C   UNL     1       8.591  21.379  56.402  1.00  0.00     0.039 A 
HETATM   15  C   UNL     1       8.019  22.541  53.924  1.00  0.00     0.038 A 
HETATM   16  C   UNL     1       7.650  24.744  55.023  1.00  0.00     0.021 C 
HETATM   17  C   UNL     1       8.329  21.182  54.014  1.00  0.00     0.035 A 
HETATM   18  C   UNL     1       8.612  20.597  55.247  1.00  0.00     0.026 A 
HETATM   19 CL   UNL     1       8.348  20.220  52.588  1.00  0.00    -0.084 Cl
ENDBRANCH   8   9
ENDBRANCH   1   8
BRANCH   5  20
HETATM   20  N   UNL     1       4.810  30.755  54.657  1.00  0.00    -0.339 N 
HETATM   21  C   UNL     1       4.214  31.860  54.134  1.00  0.00     0.314 C 
HETATM   22  N   UNL     1       4.934  32.988  54.332  1.00  0.00    -0.352 N 
HETATM   23  O   UNL     1       3.189  31.870  53.471  1.00  0.00    -0.248 OA
HETATM   24  H   UNL     1       5.434  33.114  55.200  1.00  0.00     0.160 HD
HETATM   25  H   UNL     1       4.476  33.831  54.001  1.00  0.00     0.160 HD
HETATM   26  H   UNL     1       5.588  30.957  55.273  1.00  0.00     0.164 HD
ENDBRANCH   5  20
TORSDOF 3
ENDMDL
MODEL 7
REMARK VINA RESULT:      -7.7      5.037      8.703
REMARK  3 active torsions:
REMARK  status: ('A' for Active; 'I' for Inactive)
REMARK    1  A    between atoms: C_9  and  C_10 
REMARK    2  A    between atoms: C_10  and  N_11 
REMARK    3  A    between atoms: C_15  and  N_16 
REMARK       I    between atoms: N_16  and  C_17 
REMARK       I    between atoms: C_17  and  N_18 
ROOT
HETATM    1  N   UNL     1       5.162  27.947  52.829  1.00  0.00    -0.067 N 
HETATM    2  H   UNL     1       6.174  28.086  52.918  1.00  0.00     0.280 HD
HETATM    3  C   UNL     1       4.896  26.515  52.420  1.00  0.00     0.237 C 
HETATM    4  C   UNL     1       5.589  26.217  51.098  1.00  0.00     0.053 C 
HETATM    5  C   UNL     1       5.116  27.159  49.986  1.00  0.00     0.089 C 
HETATM    6  C   UNL     1       5.304  28.613  50.432  1.00  0.00     0.053 C 
HETATM    7  C   UNL     1       4.664  28.920  51.778  1.00  0.00     0.237 C 
ENDROOT
BRANCH   1   8
HETATM    8  C   UNL     1       4.544  28.279  54.174  1.00  0.00     0.271 C 
BRANCH   8   9
HETATM    9  C   UNL     1       5.501  28.718  55.243  1.00  0.00    -0.029 C 
HETATM   10  C   UNL     1       4.848  29.402  56.429  1.00  0.00     0.211 C 
HETATM   11  O   UNL     1       5.621  29.437  57.633  1.00  0.00    -0.346 OA
HETATM   12  C   UNL     1       6.975  29.525  57.474  1.00  0.00     0.079 A 
HETATM   13  C   UNL     1       7.623  29.126  56.302  1.00  0.00    -0.001 A 
HETATM   14  C   UNL     1       7.705  29.986  58.570  1.00  0.00     0.039 A 
HETATM   15  C   UNL     1       9.018  29.210  56.227  1.00  0.00     0.038 A 
HETATM   16  C   UNL     1       6.839  28.597  55.189  1.00  0.00     0.021 C 
HETATM   17  C   UNL     1       9.744  29.690  57.320  1.00  0.00     0.035 A 
HETATM   18  C   UNL     1       9.094  30.075  58.492  1.00  0.00     0.026 A 
HETATM   19 CL   UNL     1      11.458  29.793  57.220  1.00  0.00    -0.084 Cl
ENDBRANCH   8   9
ENDBRANCH   1   8
BRANCH   5  20
HETATM   20  N   UNL     1       3.788  26.751  49.524  1.00  0.00    -0.339 N 
HETATM   21  C   UNL     1       3.441  26.301  48.288  1.00  0.00     0.314 C 
HETATM   22  N   UNL     1       2.147  25.909  48.217  1.00  0.00    -0.352 N 
HETATM   23  O   UNL     1       4.154  26.316  47.298  1.00  0.00    -0.248 OA
HETATM   24  H   UNL     1       1.725  25.436  49.004  1.00  0.00     0.160 HD
HETATM   25  H   UNL     1       1.887  25.514  47.319  1.00  0.00     0.160 HD
HETATM   26  H   UNL     1       3.105  26.550  50.244  1.00  0.00     0.164 HD
ENDBRANCH   5  20
TORSDOF 3
ENDMDL
MODEL 8
REMARK VINA RESULT:      -7.6      1.865      2.319
REMARK  3 active torsions:
REMARK  status: ('A' for Active; 'I' for Inactive)
REMARK    1  A    between atoms: C_9  and  C_10 
REMARK    2  A    between atoms: C_10  and  N_11 
REMARK    3  A    between atoms: C_15  and  N_16 
REMARK       I    between atoms: N_16  and  C_17 
REMARK       I    between atoms: C_17  and  N_18 
ROOT
HETATM    1  N   UNL     1       5.768  27.926  56.172  1.00  0.00    -0.067 N 
HETATM    2  H   UNL     1       4.978  28.201  56.766  1.00  0.00     0.280 HD
HETATM    3  C   UNL     1       6.831  27.283  57.034  1.00  0.00     0.237 C 
HETATM    4  C   UNL     1       7.291  28.262  58.105  1.00  0.00     0.053 C 
HETATM    5  C   UNL     1       7.845  29.551  57.493  1.00  0.00     0.089 C 
HETATM    6  C   UNL     1       6.801  30.161  56.551  1.00  0.00     0.053 C 
HETATM    7  C   UNL     1       6.288  29.183  55.503  1.00  0.00     0.237 C 
ENDROOT
BRANCH   1   8
HETATM    8  C   UNL     1       5.229  26.969  55.125  1.00  0.00     0.271 C 
BRANCH   8   9
HETATM    9  C   UNL     1       6.126  25.821  54.763  1.00  0.00    -0.029 C 
HETATM   10  C   UNL     1       6.745  25.920  53.382  1.00  0.00     0.211 C 
HETATM   11  O   UNL     1       7.913  25.121  53.164  1.00  0.00    -0.346 OA
HETATM   12  C   UNL     1       7.960  23.932  53.834  1.00  0.00     0.079 A 
HETATM   13  C   UNL     1       7.222  23.692  54.997  1.00  0.00    -0.001 A 
HETATM   14  C   UNL     1       8.834  22.966  53.333  1.00  0.00     0.039 A 
HETATM   15  C   UNL     1       7.352  22.462  55.650  1.00  0.00     0.038 A 
HETATM   16  C   UNL     1       6.357  24.741  55.530  1.00  0.00     0.021 C 
HETATM   17  C   UNL     1       8.214  21.490  55.135  1.00  0.00     0.035 A 
HETATM   18  C   UNL     1       8.956  21.737  53.981  1.00  0.00     0.026 A 
HETATM   19 CL   UNL     1       8.366  19.978  55.941  1.00  0.00    -0.084 Cl
ENDBRANCH   8   9
ENDBRANCH   1   8
BRANCH   5  20
HETATM   20  N   UNL     1       9.188  29.310  56.961  1.00  0.00    -0.339 N 
HETATM   21  C   UNL     1      10.335  29.974  57.269  1.00  0.00     0.314 C 
HETATM   22  N   UNL     1      11.428  29.435  56.678  1.00  0.00    -0.352 N 
HETATM   23  O   UNL     1      10.410  31.001  57.924  1.00  0.00    -0.248 OA
HETATM   24  H   UNL     1      11.499  28.432  56.583  1.00  0.00     0.160 HD
HETATM   25  H   UNL     1      12.300  29.881  56.945  1.00  0.00     0.160 HD
HETATM   26  H   UNL     1       9.337  28.417  56.507  1.00  0.00     0.164 HD
ENDBRANCH   5  20
TORSDOF 3
ENDMDL
MODEL 9
REMARK VINA RESULT:      -7.6      4.736      7.120
REMARK  3 active torsions:
REMARK  status: ('A' for Active; 'I' for Inactive)
REMARK    1  A    between atoms: C_9  and  C_10 
REMARK    2  A    between atoms: C_10  and  N_11 
REMARK    3  A    between atoms: C_15  and  N_16 
REMARK       I    between atoms: N_16  and  C_17 
REMARK       I    between atoms: C_17  and  N_18 
ROOT
HETATM    1  N   UNL     1       5.046  27.722  51.943  1.00  0.00    -0.067 N 
HETATM    2  H   UNL     1       4.454  26.944  52.255  1.00  0.00     0.280 HD
HETATM    3  C   UNL     1       4.294  29.020  52.137  1.00  0.00     0.237 C 
HETATM    4  C   UNL     1       2.997  28.991  51.341  1.00  0.00     0.053 C 
HETATM    5  C   UNL     1       3.255  28.771  49.847  1.00  0.00     0.089 C 
HETATM    6  C   UNL     1       4.090  27.501  49.653  1.00  0.00     0.053 C 
HETATM    7  C   UNL     1       5.368  27.485  50.480  1.00  0.00     0.237 C 
ENDROOT
BRANCH   1   8
HETATM    8  C   UNL     1       6.320  27.673  52.766  1.00  0.00     0.271 C 
BRANCH   8   9
HETATM    9  C   UNL     1       6.650  26.345  53.383  1.00  0.00    -0.029 C 
HETATM   10  C   UNL     1       6.761  26.365  54.896  1.00  0.00     0.211 C 
HETATM   11  O   UNL     1       6.631  25.098  55.547  1.00  0.00    -0.346 OA
HETATM   12  C   UNL     1       7.103  24.017  54.858  1.00  0.00     0.079 A 
HETATM   13  C   UNL     1       7.249  24.016  53.468  1.00  0.00    -0.001 A 
HETATM   14  C   UNL     1       7.386  22.874  55.605  1.00  0.00     0.039 A 
HETATM   15  C   UNL     1       7.702  22.858  52.827  1.00  0.00     0.038 A 
HETATM   16  C   UNL     1       6.893  25.209  52.705  1.00  0.00     0.021 C 
HETATM   17  C   UNL     1       8.003  21.721  53.581  1.00  0.00     0.035 A 
HETATM   18  C   UNL     1       7.845  21.722  54.965  1.00  0.00     0.026 A 
HETATM   19 CL   UNL     1       8.563  20.301  52.786  1.00  0.00    -0.084 Cl
ENDBRANCH   8   9
ENDBRANCH   1   8
BRANCH   5  20
HETATM   20  N   UNL     1       3.743  30.011  49.241  1.00  0.00    -0.339 N 
HETATM   21  C   UNL     1       3.650  30.393  47.939  1.00  0.00     0.314 C 
HETATM   22  N   UNL     1       4.112  31.647  47.725  1.00  0.00    -0.352 N 
HETATM   23  O   UNL     1       3.283  29.686  47.014  1.00  0.00    -0.248 OA
HETATM   24  H   UNL     1       3.947  32.364  48.417  1.00  0.00     0.160 HD
HETATM   25  H   UNL     1       3.994  31.970  46.770  1.00  0.00     0.160 HD
HETATM   26  H   UNL     1       3.956  30.768  49.879  1.00  0.00     0.164 HD
ENDBRANCH   5  20
TORSDOF 3
ENDMDL
MODEL 10
REMARK VINA RESULT:      -7.4      3.930      8.425
REMARK  3 active torsions:
REMARK  status: ('A' for Active; 'I' for Inactive)
REMARK    1  A    between atoms: C_9  and  C_10 
REMARK    2  A    between atoms: C_10  and  N_11 
REMARK    3  A    between atoms: C_15  and  N_16 
REMARK       I    between atoms: N_16  and  C_17 
REMARK       I    between atoms: C_17  and  N_18 
ROOT
HETATM    1  N   UNL     1       7.098  27.084  54.876  1.00  0.00    -0.067 N 
HETATM    2  H   UNL     1       6.125  27.385  54.750  1.00  0.00     0.280 HD
HETATM    3  C   UNL     1       7.495  26.204  53.713  1.00  0.00     0.237 C 
HETATM    4  C   UNL     1       6.574  24.995  53.639  1.00  0.00     0.053 C 
HETATM    5  C   UNL     1       6.612  24.175  54.932  1.00  0.00     0.089 C 
HETATM    6  C   UNL     1       6.293  25.084  56.124  1.00  0.00     0.053 C 
HETATM    7  C   UNL     1       7.168  26.327  56.188  1.00  0.00     0.237 C 
ENDROOT
BRANCH   1   8
HETATM    8  C   UNL     1       7.947  28.339  54.958  1.00  0.00     0.271 C 
BRANCH   8   9
HETATM    9  C   UNL     1       7.716  29.208  56.159  1.00  0.00    -0.029 C 
HETATM   10  C   UNL     1       6.420  29.995  56.125  1.00  0.00     0.211 C 
HETATM   11  O   UNL     1       5.947  30.472  57.389  1.00  0.00    -0.346 OA
HETATM   12  C   UNL     1       6.907  30.806  58.301  1.00  0.00     0.079 A 
HETATM   13  C   UNL     1       8.206  30.293  58.251  1.00  0.00    -0.001 A 
HETATM   14  C   UNL     1       6.516  31.654  59.338  1.00  0.00     0.039 A 
HETATM   15  C   UNL     1       9.124  30.651  59.244  1.00  0.00     0.038 A 
HETATM   16  C   UNL     1       8.572  29.365  57.185  1.00  0.00     0.021 C 
HETATM   17  C   UNL     1       8.734  31.515  60.270  1.00  0.00     0.035 A 
HETATM   18  C   UNL     1       7.434  32.016  60.323  1.00  0.00     0.026 A 
HETATM   19 CL   UNL     1       9.869  31.954  61.486  1.00  0.00    -0.084 Cl
ENDBRANCH   8   9
ENDBRANCH   1   8
BRANCH   5  20
HETATM   20  N   UNL     1       7.845  23.387  54.983  1.00  0.00    -0.339 N 
HETATM   21  C   UNL     1       8.210  22.362  54.167  1.00  0.00     0.314 C 
HETATM   22  N   UNL     1       9.462  21.912  54.417  1.00  0.00    -0.352 N 
HETATM   23  O   UNL     1       7.491  21.813  53.347  1.00  0.00    -0.248 OA
HETATM   24  H   UNL     1      10.187  22.570  54.666  1.00  0.00     0.160 HD
HETATM   25  H   UNL     1       9.773  21.188  53.778  1.00  0.00     0.160 HD
HETATM   26  H   UNL     1       8.610  23.786  55.513  1.00  0.00     0.164 HD
ENDBRANCH   5  20
TORSDOF 3
ENDMDL
