MODEL 1
REMARK VINA RESULT:     -11.2      0.000      0.000
REMARK  5 active torsions:
REMARK  status: ('A' for Active; 'I' for Inactive)
REMARK    1  A    between atoms: C_4  and  C_5 
REMARK    2  A    between atoms: C_5  and  C_6 
REMARK    3  A    between atoms: C_12  and  S_13 
REMARK    4  A    between atoms: S_13  and  C_14 
REMARK    5  A    between atoms: C_14  and  C_15 
ROOT
HETATM    1  C   UNL     1       6.358  26.354  53.567  1.00  0.00     0.283 C 
HETATM    2  O   UNL     1       5.750  26.366  54.850  1.00  0.00    -0.303 OA
HETATM    3  C   UNL     1       6.636  26.813  55.798  1.00  0.00     0.201 A 
HETATM    4  C   UNL     1       7.582  25.936  56.301  1.00  0.00     0.144 A 
HETATM    5  N   UNL     1       8.336  26.333  57.343  1.00  0.00    -0.142 NA
HETATM    6  N   UNL     1       8.143  27.590  57.845  1.00  0.00    -0.122 NA
HETATM    7  C   UNL     1       7.207  28.403  57.299  1.00  0.00     0.212 A 
HETATM    8  N   UNL     1       6.409  28.052  56.277  1.00  0.00    -0.195 NA
HETATM    9  C   UNL     1       7.790  24.608  55.732  1.00  0.00     0.020 A 
HETATM   10  C   UNL     1       7.742  24.424  54.330  1.00  0.00     0.023 A 
HETATM   11  N   UNL     1       7.574  25.507  53.441  1.00  0.00    -0.259 NA
HETATM   12  C   UNL     1       8.048  23.500  56.560  1.00  0.00     0.016 A 
HETATM   13  C   UNL     1       8.246  22.231  56.019  1.00  0.00     0.001 A 
HETATM   14  C   UNL     1       8.210  22.053  54.640  1.00  0.00     0.002 A 
HETATM   15  C   UNL     1       7.974  23.144  53.802  1.00  0.00     0.024 A 
HETATM   16  H   UNL     1       7.600  25.169  52.473  1.00  0.00     0.130 HD
ENDROOT
BRANCH   7  17
HETATM   17  S   UNL     1       6.990  30.033  57.968  1.00  0.00    -0.084 SA
BRANCH  17  18
HETATM   18  C   UNL     1       8.552  30.190  58.887  1.00  0.00     0.121 C 
BRANCH  18  19
HETATM   19  C   UNL     1       8.362  30.925  60.193  1.00  0.00    -0.048 A 
HETATM   20  C   UNL     1       9.076  30.537  61.337  1.00  0.00     0.009 A 
HETATM   21  C   UNL     1       8.906  31.221  62.543  1.00  0.00     0.024 A 
HETATM   22  C   UNL     1       8.018  32.290  62.614  1.00  0.00     0.034 A 
HETATM   23 CL   UNL     1       7.812  33.134  64.101  1.00  0.00    -0.084 Cl
HETATM   24  C   UNL     1       7.293  32.681  61.490  1.00  0.00     0.024 A 
HETATM   25  C   UNL     1       7.463  31.999  60.283  1.00  0.00     0.009 A 
ENDBRANCH  18  19
ENDBRANCH  17  18
ENDBRANCH   7  17
BRANCH   1  26
HETATM   26  C   UNL     1       5.348  25.862  52.495  1.00  0.00     0.203 C 
HETATM   27  O   UNL     1       4.676  24.839  52.669  1.00  0.00    -0.288 OA
BRANCH  26  28
HETATM   28  C   UNL     1       5.189  26.609  51.217  1.00  0.00     0.014 A 
HETATM   29  C   UNL     1       5.460  27.986  51.228  1.00  0.00     0.015 A 
HETATM   30  C   UNL     1       5.334  28.738  50.059  1.00  0.00     0.001 A 
HETATM   31  C   UNL     1       4.928  28.121  48.877  1.00  0.00     0.000 A 
HETATM   32  C   UNL     1       4.642  26.755  48.865  1.00  0.00     0.001 A 
HETATM   33  C   UNL     1       4.767  25.997  50.032  1.00  0.00     0.015 A 
ENDBRANCH  26  28
ENDBRANCH   1  26
TORSDOF 5
ENDMDL
MODEL 2
REMARK VINA RESULT:     -11.1      2.087      4.364
REMARK  5 active torsions:
REMARK  status: ('A' for Active; 'I' for Inactive)
REMARK    1  A    between atoms: C_4  and  C_5 
REMARK    2  A    between atoms: C_5  and  C_6 
REMARK    3  A    between atoms: C_12  and  S_13 
REMARK    4  A    between atoms: S_13  and  C_14 
REMARK    5  A    between atoms: C_14  and  C_15 
ROOT
HETATM    1  C   UNL     1       7.390  25.065  57.059  1.00  0.00     0.283 C 
HETATM    2  O   UNL     1       8.236  26.088  56.552  1.00  0.00    -0.303 OA
HETATM    3  C   UNL     1       7.696  27.325  56.800  1.00  0.00     0.201 A 
HETATM    4  C   UNL     1       6.695  27.799  55.970  1.00  0.00     0.144 A 
HETATM    5  N   UNL     1       6.288  29.073  56.118  1.00  0.00    -0.142 NA
HETATM    6  N   UNL     1       6.870  29.834  57.093  1.00  0.00    -0.122 NA
HETATM    7  C   UNL     1       7.838  29.305  57.880  1.00  0.00     0.212 A 
HETATM    8  N   UNL     1       8.302  28.050  57.761  1.00  0.00    -0.195 NA
HETATM    9  C   UNL     1       6.067  26.962  54.952  1.00  0.00     0.020 A 
HETATM   10  C   UNL     1       5.780  25.605  55.232  1.00  0.00     0.023 A 
HETATM   11  N   UNL     1       6.010  25.041  56.505  1.00  0.00    -0.259 NA
HETATM   12  C   UNL     1       5.733  27.486  53.690  1.00  0.00     0.016 A 
HETATM   13  C   UNL     1       5.133  26.688  52.717  1.00  0.00     0.001 A 
HETATM   14  C   UNL     1       4.841  25.358  52.998  1.00  0.00     0.002 A 
HETATM   15  C   UNL     1       5.149  24.825  54.251  1.00  0.00     0.024 A 
HETATM   16  H   UNL     1       5.706  24.062  56.511  1.00  0.00     0.130 HD
ENDROOT
BRANCH   7  17
HETATM   17  S   UNL     1       8.566  30.316  59.144  1.00  0.00    -0.084 SA
BRANCH  17  18
HETATM   18  C   UNL     1       7.186  31.464  59.441  1.00  0.00     0.121 C 
BRANCH  18  19
HETATM   19  C   UNL     1       7.194  31.992  60.856  1.00  0.00    -0.048 A 
HETATM   20  C   UNL     1       8.320  31.814  61.675  1.00  0.00     0.009 A 
HETATM   21  C   UNL     1       8.332  32.308  62.981  1.00  0.00     0.024 A 
HETATM   22  C   UNL     1       7.217  32.977  63.479  1.00  0.00     0.034 A 
HETATM   23 CL   UNL     1       7.234  33.589  65.088  1.00  0.00    -0.084 Cl
HETATM   24  C   UNL     1       6.087  33.153  62.683  1.00  0.00     0.024 A 
HETATM   25  C   UNL     1       6.074  32.660  61.376  1.00  0.00     0.009 A 
ENDBRANCH  18  19
ENDBRANCH  17  18
ENDBRANCH   7  17
BRANCH   1  26
HETATM   26  C   UNL     1       8.013  23.668  56.791  1.00  0.00     0.203 C 
HETATM   27  O   UNL     1       8.539  23.016  57.701  1.00  0.00    -0.288 OA
BRANCH  26  28
HETATM   28  C   UNL     1       8.008  23.097  55.417  1.00  0.00     0.014 A 
HETATM   29  C   UNL     1       7.683  21.739  55.275  1.00  0.00     0.015 A 
HETATM   30  C   UNL     1       7.657  21.150  54.010  1.00  0.00     0.001 A 
HETATM   31  C   UNL     1       7.964  21.910  52.883  1.00  0.00     0.000 A 
HETATM   32  C   UNL     1       8.303  23.257  53.020  1.00  0.00     0.001 A 
HETATM   33  C   UNL     1       8.330  23.852  54.284  1.00  0.00     0.015 A 
ENDBRANCH  26  28
ENDBRANCH   1  26
TORSDOF 5
ENDMDL
MODEL 3
REMARK VINA RESULT:     -11.0      1.413      4.823
REMARK  5 active torsions:
REMARK  status: ('A' for Active; 'I' for Inactive)
REMARK    1  A    between atoms: C_4  and  C_5 
REMARK    2  A    between atoms: C_5  and  C_6 
REMARK    3  A    between atoms: C_12  and  S_13 
REMARK    4  A    between atoms: S_13  and  C_14 
REMARK    5  A    between atoms: C_14  and  C_15 
ROOT
HETATM    1  C   UNL     1       6.891  25.244  53.881  1.00  0.00     0.283 C 
HETATM    2  O   UNL     1       7.768  26.357  53.978  1.00  0.00    -0.303 OA
HETATM    3  C   UNL     1       7.181  27.372  54.691  1.00  0.00     0.201 A 
HETATM    4  C   UNL     1       6.270  28.199  54.056  1.00  0.00     0.144 A 
HETATM    5  N   UNL     1       5.825  29.286  54.712  1.00  0.00    -0.142 NA
HETATM    6  N   UNL     1       6.280  29.514  55.981  1.00  0.00    -0.122 NA
HETATM    7  C   UNL     1       7.164  28.658  56.548  1.00  0.00     0.212 A 
HETATM    8  N   UNL     1       7.662  27.573  55.933  1.00  0.00    -0.195 NA
HETATM    9  C   UNL     1       5.775  27.922  52.711  1.00  0.00     0.020 A 
HETATM   10  C   UNL     1       5.484  26.593  52.324  1.00  0.00     0.023 A 
HETATM   11  N   UNL     1       5.582  25.515  53.229  1.00  0.00    -0.259 NA
HETATM   12  C   UNL     1       5.573  28.964  51.787  1.00  0.00     0.016 A 
HETATM   13  C   UNL     1       5.101  28.702  50.502  1.00  0.00     0.001 A 
HETATM   14  C   UNL     1       4.805  27.396  50.127  1.00  0.00     0.002 A 
HETATM   15  C   UNL     1       4.981  26.352  51.036  1.00  0.00     0.024 A 
HETATM   16  H   UNL     1       5.297  24.645  52.765  1.00  0.00     0.130 HD
ENDROOT
BRANCH   7  17
HETATM   17  S   UNL     1       7.728  28.978  58.201  1.00  0.00    -0.084 SA
BRANCH  17  18
HETATM   18  C   UNL     1       7.462  30.776  58.265  1.00  0.00     0.121 C 
BRANCH  18  19
HETATM   19  C   UNL     1       7.603  31.312  59.671  1.00  0.00    -0.048 A 
HETATM   20  C   UNL     1       8.607  30.822  60.521  1.00  0.00     0.009 A 
HETATM   21  C   UNL     1       8.743  31.321  61.818  1.00  0.00     0.024 A 
HETATM   22  C   UNL     1       7.873  32.307  62.276  1.00  0.00     0.034 A 
HETATM   23 CL   UNL     1       8.043  32.924  63.874  1.00  0.00    -0.084 Cl
HETATM   24  C   UNL     1       6.864  32.796  61.448  1.00  0.00     0.024 A 
HETATM   25  C   UNL     1       6.728  32.299  60.151  1.00  0.00     0.009 A 
ENDBRANCH  18  19
ENDBRANCH  17  18
ENDBRANCH   7  17
BRANCH   1  26
HETATM   26  C   UNL     1       7.566  24.092  53.087  1.00  0.00     0.203 C 
HETATM   27  O   UNL     1       7.936  24.251  51.918  1.00  0.00    -0.288 OA
BRANCH  26  28
HETATM   28  C   UNL     1       7.756  22.759  53.720  1.00  0.00     0.014 A 
HETATM   29  C   UNL     1       7.595  22.667  55.110  1.00  0.00     0.015 A 
HETATM   30  C   UNL     1       7.756  21.441  55.759  1.00  0.00     0.001 A 
HETATM   31  C   UNL     1       8.088  20.305  55.023  1.00  0.00     0.000 A 
HETATM   32  C   UNL     1       8.265  20.394  53.642  1.00  0.00     0.001 A 
HETATM   33  C   UNL     1       8.104  21.619  52.988  1.00  0.00     0.015 A 
ENDBRANCH  26  28
ENDBRANCH   1  26
TORSDOF 5
ENDMDL
MODEL 4
REMARK VINA RESULT:     -10.5      4.404      9.200
REMARK  5 active torsions:
REMARK  status: ('A' for Active; 'I' for Inactive)
REMARK    1  A    between atoms: C_4  and  C_5 
REMARK    2  A    between atoms: C_5  and  C_6 
REMARK    3  A    between atoms: C_12  and  S_13 
REMARK    4  A    between atoms: S_13  and  C_14 
REMARK    5  A    between atoms: C_14  and  C_15 
ROOT
HETATM    1  C   UNL     1       6.951  26.405  55.779  1.00  0.00     0.283 C 
HETATM    2  O   UNL     1       7.596  26.766  54.566  1.00  0.00    -0.303 OA
HETATM    3  C   UNL     1       6.755  26.575  53.499  1.00  0.00     0.201 A 
HETATM    4  C   UNL     1       6.599  25.298  52.987  1.00  0.00     0.144 A 
HETATM    5  N   UNL     1       5.906  25.145  51.844  1.00  0.00    -0.142 NA
HETATM    6  N   UNL     1       5.372  26.256  51.251  1.00  0.00    -0.122 NA
HETATM    7  C   UNL     1       5.553  27.476  51.811  1.00  0.00     0.212 A 
HETATM    8  N   UNL     1       6.257  27.693  52.935  1.00  0.00    -0.195 NA
HETATM    9  C   UNL     1       7.153  24.122  53.650  1.00  0.00     0.020 A 
HETATM   10  C   UNL     1       7.115  24.022  55.061  1.00  0.00     0.023 A 
HETATM   11  N   UNL     1       6.481  24.996  55.860  1.00  0.00    -0.259 NA
HETATM   12  C   UNL     1       7.723  23.074  52.904  1.00  0.00     0.016 A 
HETATM   13  C   UNL     1       8.254  21.949  53.536  1.00  0.00     0.001 A 
HETATM   14  C   UNL     1       8.204  21.847  54.922  1.00  0.00     0.002 A 
HETATM   15  C   UNL     1       7.626  22.869  55.677  1.00  0.00     0.024 A 
HETATM   16  H   UNL     1       6.533  24.723  56.848  1.00  0.00     0.130 HD
ENDROOT
BRANCH   7  17
HETATM   17  S   UNL     1       4.839  28.897  51.021  1.00  0.00    -0.084 SA
BRANCH  17  18
HETATM   18  C   UNL     1       5.213  28.495  49.287  1.00  0.00     0.121 C 
BRANCH  18  19
HETATM   19  C   UNL     1       3.956  28.236  48.490  1.00  0.00    -0.048 A 
HETATM   20  C   UNL     1       3.292  27.003  48.592  1.00  0.00     0.009 A 
HETATM   21  C   UNL     1       2.126  26.765  47.861  1.00  0.00     0.024 A 
HETATM   22  C   UNL     1       1.620  27.754  47.021  1.00  0.00     0.034 A 
HETATM   23 CL   UNL     1       0.181  27.460  46.124  1.00  0.00    -0.084 Cl
HETATM   24  C   UNL     1       2.273  28.979  46.901  1.00  0.00     0.024 A 
HETATM   25  C   UNL     1       3.439  29.219  47.631  1.00  0.00     0.009 A 
ENDBRANCH  18  19
ENDBRANCH  17  18
ENDBRANCH   7  17
BRANCH   1  26
HETATM   26  C   UNL     1       7.901  26.638  56.986  1.00  0.00     0.203 C 
HETATM   27  O   UNL     1       8.319  25.693  57.664  1.00  0.00    -0.288 OA
BRANCH  26  28
HETATM   28  C   UNL     1       8.305  28.020  57.364  1.00  0.00     0.014 A 
HETATM   29  C   UNL     1       7.411  28.772  58.141  1.00  0.00     0.015 A 
HETATM   30  C   UNL     1       7.737  30.072  58.531  1.00  0.00     0.001 A 
HETATM   31  C   UNL     1       8.953  30.629  58.138  1.00  0.00     0.000 A 
HETATM   32  C   UNL     1       9.839  29.891  57.353  1.00  0.00     0.001 A 
HETATM   33  C   UNL     1       9.517  28.589  56.961  1.00  0.00     0.015 A 
ENDBRANCH  26  28
ENDBRANCH   1  26
TORSDOF 5
ENDMDL
MODEL 5
REMARK VINA RESULT:     -10.3      5.040      9.884
REMARK  5 active torsions:
REMARK  status: ('A' for Active; 'I' for Inactive)
REMARK    1  A    between atoms: C_4  and  C_5 
REMARK    2  A    between atoms: C_5  and  C_6 
REMARK    3  A    between atoms: C_12  and  S_13 
REMARK    4  A    between atoms: S_13  and  C_14 
REMARK    5  A    between atoms: C_14  and  C_15 
ROOT
HETATM    1  C   UNL     1       7.051  25.579  54.031  1.00  0.00     0.283 C 
HETATM    2  O   UNL     1       5.699  25.402  53.635  1.00  0.00    -0.303 OA
HETATM    3  C   UNL     1       5.333  26.365  52.728  1.00  0.00     0.201 A 
HETATM    4  C   UNL     1       4.989  27.624  53.188  1.00  0.00     0.144 A 
HETATM    5  N   UNL     1       4.476  28.509  52.313  1.00  0.00    -0.142 NA
HETATM    6  N   UNL     1       4.335  28.128  51.008  1.00  0.00    -0.122 NA
HETATM    7  C   UNL     1       4.701  26.883  50.621  1.00  0.00     0.212 A 
HETATM    8  N   UNL     1       5.194  25.950  51.454  1.00  0.00    -0.195 NA
HETATM    9  C   UNL     1       5.174  28.021  54.580  1.00  0.00     0.020 A 
HETATM   10  C   UNL     1       6.332  27.612  55.284  1.00  0.00     0.023 A 
HETATM   11  N   UNL     1       7.369  26.890  54.657  1.00  0.00    -0.259 NA
HETATM   12  C   UNL     1       4.216  28.814  55.239  1.00  0.00     0.016 A 
HETATM   13  C   UNL     1       4.391  29.193  56.569  1.00  0.00     0.001 A 
HETATM   14  C   UNL     1       5.535  28.801  57.256  1.00  0.00     0.002 A 
HETATM   15  C   UNL     1       6.504  28.029  56.613  1.00  0.00     0.024 A 
HETATM   16  H   UNL     1       8.129  26.722  55.326  1.00  0.00     0.130 HD
ENDROOT
BRANCH   7  17
HETATM   17  S   UNL     1       4.514  26.422  48.917  1.00  0.00    -0.084 SA
BRANCH  17  18
HETATM   18  C   UNL     1       4.246  28.069  48.190  1.00  0.00     0.121 C 
BRANCH  18  19
HETATM   19  C   UNL     1       2.855  28.208  47.619  1.00  0.00    -0.048 A 
HETATM   20  C   UNL     1       2.438  29.423  47.051  1.00  0.00     0.009 A 
HETATM   21  C   UNL     1       1.155  29.551  46.516  1.00  0.00     0.024 A 
HETATM   22  C   UNL     1       0.279  28.470  46.550  1.00  0.00     0.034 A 
HETATM   23 CL   UNL     1      -1.302  28.628  45.887  1.00  0.00    -0.084 Cl
HETATM   24  C   UNL     1       0.673  27.261  47.119  1.00  0.00     0.024 A 
HETATM   25  C   UNL     1       1.956  27.131  47.655  1.00  0.00     0.009 A 
ENDBRANCH  18  19
ENDBRANCH  17  18
ENDBRANCH   7  17
BRANCH   1  26
HETATM   26  C   UNL     1       7.466  24.478  55.045  1.00  0.00     0.203 C 
HETATM   27  O   UNL     1       7.652  24.743  56.238  1.00  0.00    -0.288 OA
BRANCH  26  28
HETATM   28  C   UNL     1       7.673  23.078  54.586  1.00  0.00     0.014 A 
HETATM   29  C   UNL     1       7.657  22.063  55.555  1.00  0.00     0.015 A 
HETATM   30  C   UNL     1       7.840  20.731  55.183  1.00  0.00     0.001 A 
HETATM   31  C   UNL     1       8.051  20.406  53.844  1.00  0.00     0.000 A 
HETATM   32  C   UNL     1       8.083  21.413  52.878  1.00  0.00     0.001 A 
HETATM   33  C   UNL     1       7.899  22.749  53.245  1.00  0.00     0.015 A 
ENDBRANCH  26  28
ENDBRANCH   1  26
TORSDOF 5
ENDMDL
MODEL 6
REMARK VINA RESULT:     -10.1      3.036      6.348
REMARK  5 active torsions:
REMARK  status: ('A' for Active; 'I' for Inactive)
REMARK    1  A    between atoms: C_4  and  C_5 
REMARK    2  A    between atoms: C_5  and  C_6 
REMARK    3  A    between atoms: C_12  and  S_13 
REMARK    4  A    between atoms: S_13  and  C_14 
REMARK    5  A    between atoms: C_14  and  C_15 
ROOT
HETATM    1  C   UNL     1       6.988  26.340  55.861  1.00  0.00     0.283 C 
HETATM    2  O   UNL     1       7.539  26.747  54.617  1.00  0.00    -0.303 OA
HETATM    3  C   UNL     1       6.640  26.537  53.602  1.00  0.00     0.201 A 
HETATM    4  C   UNL     1       6.504  25.263  53.077  1.00  0.00     0.144 A 
HETATM    5  N   UNL     1       5.745  25.099  51.978  1.00  0.00    -0.142 NA
HETATM    6  N   UNL     1       5.131  26.196  51.441  1.00  0.00    -0.122 NA
HETATM    7  C   UNL     1       5.297  27.414  52.010  1.00  0.00     0.212 A 
HETATM    8  N   UNL     1       6.062  27.642  53.091  1.00  0.00    -0.195 NA
HETATM    9  C   UNL     1       7.146  24.101  53.683  1.00  0.00     0.020 A 
HETATM   10  C   UNL     1       7.202  23.977  55.091  1.00  0.00     0.023 A 
HETATM   11  N   UNL     1       6.581  24.912  55.947  1.00  0.00    -0.259 NA
HETATM   12  C   UNL     1       7.710  23.089  52.884  1.00  0.00     0.016 A 
HETATM   13  C   UNL     1       8.324  21.978  53.460  1.00  0.00     0.001 A 
HETATM   14  C   UNL     1       8.368  21.853  54.844  1.00  0.00     0.002 A 
HETATM   15  C   UNL     1       7.798  22.838  55.653  1.00  0.00     0.024 A 
HETATM   16  H   UNL     1       6.707  24.626  56.924  1.00  0.00     0.130 HD
ENDROOT
BRANCH   7  17
HETATM   17  S   UNL     1       4.477  28.816  51.293  1.00  0.00    -0.084 SA
BRANCH  17  18
HETATM   18  C   UNL     1       3.196  29.091  52.555  1.00  0.00     0.121 C 
BRANCH  18  19
HETATM   19  C   UNL     1       3.707  29.941  53.694  1.00  0.00    -0.048 A 
HETATM   20  C   UNL     1       3.991  29.362  54.941  1.00  0.00     0.009 A 
HETATM   21  C   UNL     1       4.470  30.146  55.993  1.00  0.00     0.024 A 
HETATM   22  C   UNL     1       4.663  31.512  55.807  1.00  0.00     0.034 A 
HETATM   23 CL   UNL     1       5.257  32.477  57.104  1.00  0.00    -0.084 Cl
HETATM   24  C   UNL     1       4.376  32.104  54.579  1.00  0.00     0.024 A 
HETATM   25  C   UNL     1       3.897  31.322  53.526  1.00  0.00     0.009 A 
ENDBRANCH  18  19
ENDBRANCH  17  18
ENDBRANCH   7  17
BRANCH   1  26
HETATM   26  C   UNL     1       8.002  26.594  57.010  1.00  0.00     0.203 C 
HETATM   27  O   UNL     1       8.488  25.657  57.655  1.00  0.00    -0.288 OA
BRANCH  26  28
HETATM   28  C   UNL     1       8.390  27.984  57.372  1.00  0.00     0.014 A 
HETATM   29  C   UNL     1       7.472  28.747  58.111  1.00  0.00     0.015 A 
HETATM   30  C   UNL     1       7.783  30.055  58.485  1.00  0.00     0.001 A 
HETATM   31  C   UNL     1       9.006  30.611  58.114  1.00  0.00     0.000 A 
HETATM   32  C   UNL     1       9.915  29.863  57.366  1.00  0.00     0.001 A 
HETATM   33  C   UNL     1       9.610  28.552  56.990  1.00  0.00     0.015 A 
ENDBRANCH  26  28
ENDBRANCH   1  26
TORSDOF 5
ENDMDL
MODEL 7
REMARK VINA RESULT:     -10.1      4.066      9.100
REMARK  5 active torsions:
REMARK  status: ('A' for Active; 'I' for Inactive)
REMARK    1  A    between atoms: C_4  and  C_5 
REMARK    2  A    between atoms: C_5  and  C_6 
REMARK    3  A    between atoms: C_12  and  S_13 
REMARK    4  A    between atoms: S_13  and  C_14 
REMARK    5  A    between atoms: C_14  and  C_15 
ROOT
HETATM    1  C   UNL     1       7.380  28.557  56.688  1.00  0.00     0.283 C 
HETATM    2  O   UNL     1       7.513  28.532  55.274  1.00  0.00    -0.303 OA
HETATM    3  C   UNL     1       6.399  27.976  54.696  1.00  0.00     0.201 A 
HETATM    4  C   UNL     1       6.275  26.598  54.666  1.00  0.00     0.144 A 
HETATM    5  N   UNL     1       5.266  26.060  53.956  1.00  0.00    -0.142 NA
HETATM    6  N   UNL     1       4.402  26.900  53.311  1.00  0.00    -0.122 NA
HETATM    7  C   UNL     1       4.574  28.242  53.390  1.00  0.00     0.212 A 
HETATM    8  N   UNL     1       5.576  28.834  54.061  1.00  0.00    -0.195 NA
HETATM    9  C   UNL     1       7.192  25.719  55.385  1.00  0.00     0.020 A 
HETATM   10  C   UNL     1       7.650  26.077  56.675  1.00  0.00     0.023 A 
HETATM   11  N   UNL     1       7.184  27.233  57.337  1.00  0.00    -0.259 NA
HETATM   12  C   UNL     1       7.627  24.508  54.815  1.00  0.00     0.016 A 
HETATM   13  C   UNL     1       8.504  23.668  55.500  1.00  0.00     0.001 A 
HETATM   14  C   UNL     1       8.944  24.016  56.773  1.00  0.00     0.002 A 
HETATM   15  C   UNL     1       8.508  25.204  57.361  1.00  0.00     0.024 A 
HETATM   16  H   UNL     1       7.609  27.295  58.269  1.00  0.00     0.130 HD
ENDROOT
BRANCH   7  17
HETATM   17  S   UNL     1       3.429  29.305  52.548  1.00  0.00    -0.084 SA
BRANCH  17  18
HETATM   18  C   UNL     1       4.314  29.510  50.972  1.00  0.00     0.121 C 
BRANCH  18  19
HETATM   19  C   UNL     1       3.941  28.435  49.978  1.00  0.00    -0.048 A 
HETATM   20  C   UNL     1       4.870  27.443  49.623  1.00  0.00     0.009 A 
HETATM   21  C   UNL     1       4.524  26.444  48.710  1.00  0.00     0.024 A 
HETATM   22  C   UNL     1       3.253  26.433  48.143  1.00  0.00     0.034 A 
HETATM   23 CL   UNL     1       2.827  25.199  47.021  1.00  0.00    -0.084 Cl
HETATM   24  C   UNL     1       2.323  27.416  48.477  1.00  0.00     0.024 A 
HETATM   25  C   UNL     1       2.667  28.415  49.390  1.00  0.00     0.009 A 
ENDBRANCH  18  19
ENDBRANCH  17  18
ENDBRANCH   7  17
BRANCH   1  26
HETATM   26  C   UNL     1       8.635  29.201  57.337  1.00  0.00     0.203 C 
HETATM   27  O   UNL     1       9.773  28.796  57.072  1.00  0.00    -0.288 OA
BRANCH  26  28
HETATM   28  C   UNL     1       8.484  30.309  58.319  1.00  0.00     0.014 A 
HETATM   29  C   UNL     1       9.642  30.778  58.958  1.00  0.00     0.015 A 
HETATM   30  C   UNL     1       9.564  31.819  59.884  1.00  0.00     0.001 A 
HETATM   31  C   UNL     1       8.329  32.390  60.183  1.00  0.00     0.000 A 
HETATM   32  C   UNL     1       7.172  31.918  59.563  1.00  0.00     0.001 A 
HETATM   33  C   UNL     1       7.245  30.876  58.634  1.00  0.00     0.015 A 
ENDBRANCH  26  28
ENDBRANCH   1  26
TORSDOF 5
ENDMDL
MODEL 8
REMARK VINA RESULT:      -9.8      2.465      2.856
REMARK  5 active torsions:
REMARK  status: ('A' for Active; 'I' for Inactive)
REMARK    1  A    between atoms: C_4  and  C_5 
REMARK    2  A    between atoms: C_5  and  C_6 
REMARK    3  A    between atoms: C_12  and  S_13 
REMARK    4  A    between atoms: S_13  and  C_14 
REMARK    5  A    between atoms: C_14  and  C_15 
ROOT
HETATM    1  C   UNL     1       6.395  25.995  53.083  1.00  0.00     0.283 C 
HETATM    2  O   UNL     1       5.778  25.925  54.360  1.00  0.00    -0.303 OA
HETATM    3  C   UNL     1       6.686  26.211  55.349  1.00  0.00     0.201 A 
HETATM    4  C   UNL     1       7.561  25.223  55.764  1.00  0.00     0.144 A 
HETATM    5  N   UNL     1       8.333  25.459  56.841  1.00  0.00    -0.142 NA
HETATM    6  N   UNL     1       8.226  26.671  57.465  1.00  0.00    -0.122 NA
HETATM    7  C   UNL     1       7.356  27.600  57.001  1.00  0.00     0.212 A 
HETATM    8  N   UNL     1       6.544  27.410  55.948  1.00  0.00    -0.195 NA
HETATM    9  C   UNL     1       7.679  23.946  55.067  1.00  0.00     0.020 A 
HETATM   10  C   UNL     1       7.630  23.904  53.654  1.00  0.00     0.023 A 
HETATM   11  N   UNL     1       7.548  25.079  52.876  1.00  0.00    -0.259 NA
HETATM   12  C   UNL     1       7.849  22.746  55.782  1.00  0.00     0.016 A 
HETATM   13  C   UNL     1       7.961  21.525  55.118  1.00  0.00     0.001 A 
HETATM   14  C   UNL     1       7.924  21.488  53.728  1.00  0.00     0.002 A 
HETATM   15  C   UNL     1       7.775  22.670  53.002  1.00  0.00     0.024 A 
HETATM   16  H   UNL     1       7.559  24.837  51.879  1.00  0.00     0.130 HD
ENDROOT
BRANCH   7  17
HETATM   17  S   UNL     1       7.250  29.167  57.828  1.00  0.00    -0.084 SA
BRANCH  17  18
HETATM   18  C   UNL     1       5.505  29.562  57.498  1.00  0.00     0.121 C 
BRANCH  18  19
HETATM   19  C   UNL     1       5.270  31.053  57.445  1.00  0.00    -0.048 A 
HETATM   20  C   UNL     1       5.303  31.820  58.620  1.00  0.00     0.009 A 
HETATM   21  C   UNL     1       5.093  33.200  58.572  1.00  0.00     0.024 A 
HETATM   22  C   UNL     1       4.843  33.820  57.351  1.00  0.00     0.034 A 
HETATM   23 CL   UNL     1       4.588  35.521  57.292  1.00  0.00    -0.084 Cl
HETATM   24  C   UNL     1       4.796  33.072  56.176  1.00  0.00     0.024 A 
HETATM   25  C   UNL     1       5.006  31.692  56.223  1.00  0.00     0.009 A 
ENDBRANCH  18  19
ENDBRANCH  17  18
ENDBRANCH   7  17
BRANCH   1  26
HETATM   26  C   UNL     1       5.361  25.686  51.966  1.00  0.00     0.203 C 
HETATM   27  O   UNL     1       4.684  24.652  51.989  1.00  0.00    -0.288 OA
BRANCH  26  28
HETATM   28  C   UNL     1       5.187  26.627  50.826  1.00  0.00     0.014 A 
HETATM   29  C   UNL     1       5.526  27.973  51.033  1.00  0.00     0.015 A 
HETATM   30  C   UNL     1       5.389  28.901  49.999  1.00  0.00     0.001 A 
HETATM   31  C   UNL     1       4.904  28.491  48.758  1.00  0.00     0.000 A 
HETATM   32  C   UNL     1       4.551  27.157  48.552  1.00  0.00     0.001 A 
HETATM   33  C   UNL     1       4.687  26.223  49.584  1.00  0.00     0.015 A 
ENDBRANCH  26  28
ENDBRANCH   1  26
TORSDOF 5
ENDMDL
MODEL 9
REMARK VINA RESULT:      -9.6      4.053      7.596
REMARK  5 active torsions:
REMARK  status: ('A' for Active; 'I' for Inactive)
REMARK    1  A    between atoms: C_4  and  C_5 
REMARK    2  A    between atoms: C_5  and  C_6 
REMARK    3  A    between atoms: C_12  and  S_13 
REMARK    4  A    between atoms: S_13  and  C_14 
REMARK    5  A    between atoms: C_14  and  C_15 
ROOT
HETATM    1  C   UNL     1       4.621  28.145  54.791  1.00  0.00     0.283 C 
HETATM    2  O   UNL     1       6.023  28.369  54.765  1.00  0.00    -0.303 OA
HETATM    3  C   UNL     1       6.591  27.998  55.959  1.00  0.00     0.201 A 
HETATM    4  C   UNL     1       6.514  28.863  57.037  1.00  0.00     0.144 A 
HETATM    5  N   UNL     1       7.211  28.567  58.149  1.00  0.00    -0.142 NA
HETATM    6  N   UNL     1       7.950  27.416  58.167  1.00  0.00    -0.122 NA
HETATM    7  C   UNL     1       7.973  26.607  57.081  1.00  0.00     0.212 A 
HETATM    8  N   UNL     1       7.319  26.865  55.936  1.00  0.00    -0.195 NA
HETATM    9  C   UNL     1       5.698  30.073  57.006  1.00  0.00     0.020 A 
HETATM   10  C   UNL     1       4.426  30.052  56.386  1.00  0.00     0.023 A 
HETATM   11  N   UNL     1       3.875  28.867  55.855  1.00  0.00    -0.259 NA
HETATM   12  C   UNL     1       6.153  31.267  57.594  1.00  0.00     0.016 A 
HETATM   13  C   UNL     1       5.375  32.424  57.565  1.00  0.00     0.001 A 
HETATM   14  C   UNL     1       4.121  32.399  56.966  1.00  0.00     0.002 A 
HETATM   15  C   UNL     1       3.645  31.218  56.394  1.00  0.00     0.024 A 
HETATM   16  H   UNL     1       2.937  29.056  55.483  1.00  0.00     0.130 HD
ENDROOT
BRANCH   7  17
HETATM   17  S   UNL     1       8.934  25.116  57.142  1.00  0.00    -0.084 SA
BRANCH  17  18
HETATM   18  C   UNL     1       7.593  23.891  57.029  1.00  0.00     0.121 C 
BRANCH  18  19
HETATM   19  C   UNL     1       7.781  22.964  55.851  1.00  0.00    -0.048 A 
HETATM   20  C   UNL     1       7.705  23.458  54.539  1.00  0.00     0.009 A 
HETATM   21  C   UNL     1       7.886  22.604  53.449  1.00  0.00     0.024 A 
HETATM   22  C   UNL     1       8.136  21.251  53.663  1.00  0.00     0.034 A 
HETATM   23 CL   UNL     1       8.361  20.200  52.319  1.00  0.00    -0.084 Cl
HETATM   24  C   UNL     1       8.203  20.743  54.959  1.00  0.00     0.024 A 
HETATM   25  C   UNL     1       8.024  21.596  56.050  1.00  0.00     0.009 A 
ENDBRANCH  18  19
ENDBRANCH  17  18
ENDBRANCH   7  17
BRANCH   1  26
HETATM   26  C   UNL     1       3.985  28.550  53.433  1.00  0.00     0.203 C 
HETATM   27  O   UNL     1       3.181  29.488  53.357  1.00  0.00    -0.288 OA
BRANCH  26  28
HETATM   28  C   UNL     1       4.316  27.794  52.195  1.00  0.00     0.014 A 
HETATM   29  C   UNL     1       4.817  26.491  52.340  1.00  0.00     0.015 A 
HETATM   30  C   UNL     1       5.140  25.731  51.216  1.00  0.00     0.001 A 
HETATM   31  C   UNL     1       4.974  26.271  49.942  1.00  0.00     0.000 A 
HETATM   32  C   UNL     1       4.491  27.572  49.792  1.00  0.00     0.001 A 
HETATM   33  C   UNL     1       4.165  28.337  50.915  1.00  0.00     0.015 A 
ENDBRANCH  26  28
ENDBRANCH   1  26
TORSDOF 5
ENDMDL
MODEL 10
REMARK VINA RESULT:      -9.6      4.660     10.092
REMARK  5 active torsions:
REMARK  status: ('A' for Active; 'I' for Inactive)
REMARK    1  A    between atoms: C_4  and  C_5 
REMARK    2  A    between atoms: C_5  and  C_6 
REMARK    3  A    between atoms: C_12  and  S_13 
REMARK    4  A    between atoms: S_13  and  C_14 
REMARK    5  A    between atoms: C_14  and  C_15 
ROOT
HETATM    1  C   UNL     1       6.053  31.602  57.931  1.00  0.00     0.283 C 
HETATM    2  O   UNL     1       5.372  30.363  57.802  1.00  0.00    -0.303 OA
HETATM    3  C   UNL     1       5.550  29.846  56.543  1.00  0.00     0.201 A 
HETATM    4  C   UNL     1       4.777  30.332  55.502  1.00  0.00     0.144 A 
HETATM    5  N   UNL     1       4.840  29.709  54.311  1.00  0.00    -0.142 NA
HETATM    6  N   UNL     1       5.677  28.637  54.179  1.00  0.00    -0.122 NA
HETATM    7  C   UNL     1       6.416  28.219  55.235  1.00  0.00     0.212 A 
HETATM    8  N   UNL     1       6.375  28.784  56.454  1.00  0.00    -0.195 NA
HETATM    9  C   UNL     1       3.909  31.495  55.656  1.00  0.00     0.020 A 
HETATM   10  C   UNL     1       4.344  32.606  56.417  1.00  0.00     0.023 A 
HETATM   11  N   UNL     1       5.638  32.665  56.977  1.00  0.00    -0.259 NA
HETATM   12  C   UNL     1       2.640  31.536  55.050  1.00  0.00     0.016 A 
HETATM   13  C   UNL     1       1.810  32.646  55.196  1.00  0.00     0.001 A 
HETATM   14  C   UNL     1       2.244  33.742  55.934  1.00  0.00     0.002 A 
HETATM   15  C   UNL     1       3.507  33.727  56.527  1.00  0.00     0.024 A 
HETATM   16  H   UNL     1       5.768  33.562  57.458  1.00  0.00     0.130 HD
ENDROOT
BRANCH   7  17
HETATM   17  S   UNL     1       7.501  26.829  55.029  1.00  0.00    -0.084 SA
BRANCH  17  18
HETATM   18  C   UNL     1       6.265  25.498  54.925  1.00  0.00     0.121 C 
BRANCH  18  19
HETATM   19  C   UNL     1       6.885  24.194  54.479  1.00  0.00    -0.048 A 
HETATM   20  C   UNL     1       7.197  23.198  55.417  1.00  0.00     0.009 A 
HETATM   21  C   UNL     1       7.763  21.989  55.005  1.00  0.00     0.024 A 
HETATM   22  C   UNL     1       8.025  21.772  53.655  1.00  0.00     0.034 A 
HETATM   23 CL   UNL     1       8.720  20.281  53.148  1.00  0.00    -0.084 Cl
HETATM   24  C   UNL     1       7.731  22.755  52.713  1.00  0.00     0.024 A 
HETATM   25  C   UNL     1       7.165  23.963  53.123  1.00  0.00     0.009 A 
ENDBRANCH  18  19
ENDBRANCH  17  18
ENDBRANCH   7  17
BRANCH   1  26
HETATM   26  C   UNL     1       5.863  32.175  59.362  1.00  0.00     0.203 C 
HETATM   27  O   UNL     1       4.780  32.650  59.724  1.00  0.00    -0.288 OA
BRANCH  26  28
HETATM   28  C   UNL     1       7.001  32.186  60.322  1.00  0.00     0.014 A 
HETATM   29  C   UNL     1       8.296  32.040  59.801  1.00  0.00     0.015 A 
HETATM   30  C   UNL     1       9.402  32.048  60.651  1.00  0.00     0.001 A 
HETATM   31  C   UNL     1       9.220  32.190  62.026  1.00  0.00     0.000 A 
HETATM   32  C   UNL     1       7.934  32.320  62.550  1.00  0.00     0.001 A 
HETATM   33  C   UNL     1       6.823  32.314  61.703  1.00  0.00     0.015 A 
ENDBRANCH  26  28
ENDBRANCH   1  26
TORSDOF 5
ENDMDL
