MODEL 1
REMARK VINA RESULT:      -8.2      0.000      0.000
REMARK  7 active torsions:
REMARK  status: ('A' for Active; 'I' for Inactive)
REMARK    1  A    between atoms: C_2  and  N_3 
REMARK    2  A    between atoms: C_2  and  C_17 
REMARK       I    between atoms: N_3  and  C_4 
REMARK    3  A    between atoms: C_4  and  C_5 
REMARK    4  A    between atoms: C_6  and  N_7 
REMARK    5  A    between atoms: C_17  and  O_18 
REMARK    6  A    between atoms: C_17  and  C_19 
REMARK    7  A    between atoms: C_22  and  O_23 
ROOT
HETATM    1  N   UNL     1       6.090  24.701  53.099  1.00  0.00    -0.350 N 
HETATM    2  C   UNL     1       7.396  24.255  53.074  1.00  0.00     0.255 C 
HETATM    3  O   UNL     1       8.344  24.836  52.567  1.00  0.00    -0.268 OA
HETATM    4  H   UNL     1       5.391  24.133  53.562  1.00  0.00     0.163 HD
ENDROOT
BRANCH   1   5
HETATM    5  C   UNL     1       5.616  25.920  52.418  1.00  0.00     0.114 C 
HETATM    6  C   UNL     1       5.060  25.605  51.025  1.00  0.00     0.035 C 
BRANCH   5   7
HETATM    7  C   UNL     1       4.672  26.783  53.315  1.00  0.00     0.173 C 
BRANCH   7   8
HETATM    8  O   UNL     1       3.822  27.635  52.551  1.00  0.00    -0.389 OA
HETATM    9  H   UNL     1       4.288  28.475  52.413  1.00  0.00     0.210 HD
ENDBRANCH   7   8
BRANCH   7  10
HETATM   10  C   UNL     1       5.414  27.599  54.360  1.00  0.00    -0.028 A 
HETATM   11  C   UNL     1       4.728  28.155  55.447  1.00  0.00     0.012 A 
HETATM   12  C   UNL     1       5.417  28.884  56.420  1.00  0.00     0.037 A 
HETATM   13  C   UNL     1       6.800  29.067  56.334  1.00  0.00     0.068 A 
HETATM   14  C   UNL     1       7.490  28.523  55.253  1.00  0.00     0.037 A 
HETATM   15  C   UNL     1       6.803  27.796  54.276  1.00  0.00     0.012 A 
BRANCH  13  16
HETATM   16  O   UNL     1       7.349  29.791  57.356  1.00  0.00    -0.356 OA
HETATM   17  C   UNL     1       8.560  29.295  57.912  1.00  0.00     0.210 C 
ENDBRANCH  13  16
ENDBRANCH   7  10
ENDBRANCH   5   7
ENDBRANCH   1   5
BRANCH   2  18
HETATM   18  C   UNL     1       7.632  22.969  53.752  1.00  0.00     0.079 A 
HETATM   19  C   UNL     1       7.853  22.829  55.125  1.00  0.00     0.165 A 
HETATM   20  N   UNL     1       8.239  21.622  55.655  1.00  0.00    -0.241 NA
HETATM   21  C   UNL     1       8.391  20.565  54.833  1.00  0.00     0.119 A 
HETATM   22  C   UNL     1       8.178  20.624  53.471  1.00  0.00     0.020 A 
HETATM   23  C   UNL     1       7.804  21.845  52.924  1.00  0.00     0.022 A 
BRANCH  19  24
HETATM   24  N   UNL     1       7.644  23.891  56.075  1.00  0.00    -0.226 N 
HETATM   25  N   UNL     1       6.394  24.429  56.232  1.00  0.00    -0.179 NA
HETATM   26  C   UNL     1       6.531  25.357  57.178  1.00  0.00     0.141 A 
HETATM   27  C   UNL     1       7.858  25.507  57.594  1.00  0.00     0.040 A 
HETATM   28  C   UNL     1       8.557  24.591  56.845  1.00  0.00     0.122 A 
ENDBRANCH  19  24
ENDBRANCH   2  18
TORSDOF 7
ENDMDL
MODEL 2
REMARK VINA RESULT:      -7.3      3.164      5.855
REMARK  7 active torsions:
REMARK  status: ('A' for Active; 'I' for Inactive)
REMARK    1  A    between atoms: C_2  and  N_3 
REMARK    2  A    between atoms: C_2  and  C_17 
REMARK       I    between atoms: N_3  and  C_4 
REMARK    3  A    between atoms: C_4  and  C_5 
REMARK    4  A    between atoms: C_6  and  N_7 
REMARK    5  A    between atoms: C_17  and  O_18 
REMARK    6  A    between atoms: C_17  and  C_19 
REMARK    7  A    between atoms: C_22  and  O_23 
ROOT
HETATM    1  N   UNL     1       6.029  26.500  52.190  1.00  0.00    -0.350 N 
HETATM    2  C   UNL     1       5.644  25.213  52.509  1.00  0.00     0.255 C 
HETATM    3  O   UNL     1       4.612  24.663  52.156  1.00  0.00    -0.268 OA
HETATM    4  H   UNL     1       6.917  26.842  52.534  1.00  0.00     0.163 HD
ENDROOT
BRANCH   1   5
HETATM    5  C   UNL     1       5.189  27.456  51.444  1.00  0.00     0.114 C 
HETATM    6  C   UNL     1       5.407  28.893  51.928  1.00  0.00     0.035 C 
BRANCH   5   7
HETATM    7  C   UNL     1       5.292  27.268  49.896  1.00  0.00     0.173 C 
BRANCH   7   8
HETATM    8  O   UNL     1       6.078  28.282  49.276  1.00  0.00    -0.389 OA
HETATM    9  H   UNL     1       6.424  28.862  49.974  1.00  0.00     0.210 HD
ENDBRANCH   7   8
BRANCH   7  10
HETATM   10  C   UNL     1       3.941  27.171  49.209  1.00  0.00    -0.028 A 
HETATM   11  C   UNL     1       2.976  28.168  49.393  1.00  0.00     0.012 A 
HETATM   12  C   UNL     1       1.743  28.088  48.738  1.00  0.00     0.037 A 
HETATM   13  C   UNL     1       1.452  27.020  47.886  1.00  0.00     0.068 A 
HETATM   14  C   UNL     1       2.404  26.020  47.701  1.00  0.00     0.037 A 
HETATM   15  C   UNL     1       3.636  26.095  48.357  1.00  0.00     0.012 A 
BRANCH  13  16
HETATM   16  O   UNL     1       0.215  27.070  47.304  1.00  0.00    -0.356 OA
HETATM   17  C   UNL     1       0.014  28.073  46.316  1.00  0.00     0.210 C 
ENDBRANCH  13  16
ENDBRANCH   7  10
ENDBRANCH   5   7
ENDBRANCH   1   5
BRANCH   2  18
HETATM   18  C   UNL     1       6.605  24.459  53.332  1.00  0.00     0.079 A 
HETATM   19  C   UNL     1       7.008  24.833  54.617  1.00  0.00     0.165 A 
HETATM   20  N   UNL     1       8.036  24.177  55.250  1.00  0.00    -0.241 NA
HETATM   21  C   UNL     1       8.646  23.154  54.619  1.00  0.00     0.119 A 
HETATM   22  C   UNL     1       8.294  22.719  53.358  1.00  0.00     0.020 A 
HETATM   23  C   UNL     1       7.266  23.388  52.703  1.00  0.00     0.022 A 
BRANCH  19  24
HETATM   24  N   UNL     1       6.362  25.868  55.382  1.00  0.00    -0.226 N 
HETATM   25  N   UNL     1       6.721  27.177  55.196  1.00  0.00    -0.179 NA
HETATM   26  C   UNL     1       5.941  27.872  56.022  1.00  0.00     0.141 A 
HETATM   27  C   UNL     1       5.131  27.051  56.813  1.00  0.00     0.040 A 
HETATM   28  C   UNL     1       5.448  25.774  56.416  1.00  0.00     0.122 A 
ENDBRANCH  19  24
ENDBRANCH   2  18
TORSDOF 7
ENDMDL
MODEL 3
REMARK VINA RESULT:      -7.3      2.973      6.876
REMARK  7 active torsions:
REMARK  status: ('A' for Active; 'I' for Inactive)
REMARK    1  A    between atoms: C_2  and  N_3 
REMARK    2  A    between atoms: C_2  and  C_17 
REMARK       I    between atoms: N_3  and  C_4 
REMARK    3  A    between atoms: C_4  and  C_5 
REMARK    4  A    between atoms: C_6  and  N_7 
REMARK    5  A    between atoms: C_17  and  O_18 
REMARK    6  A    between atoms: C_17  and  C_19 
REMARK    7  A    between atoms: C_22  and  O_23 
ROOT
HETATM    1  N   UNL     1       6.201  27.648  54.875  1.00  0.00    -0.350 N 
HETATM    2  C   UNL     1       5.792  27.629  56.194  1.00  0.00     0.255 C 
HETATM    3  O   UNL     1       5.058  26.797  56.706  1.00  0.00    -0.268 OA
HETATM    4  H   UNL     1       6.822  28.387  54.570  1.00  0.00     0.163 HD
ENDROOT
BRANCH   1   5
HETATM    5  C   UNL     1       5.725  26.705  53.846  1.00  0.00     0.114 C 
HETATM    6  C   UNL     1       4.648  27.338  52.960  1.00  0.00     0.035 C 
BRANCH   5   7
HETATM    7  C   UNL     1       6.896  26.028  53.063  1.00  0.00     0.173 C 
BRANCH   7   8
HETATM    8  O   UNL     1       6.673  26.012  51.655  1.00  0.00    -0.389 OA
HETATM    9  H   UNL     1       7.320  26.608  51.244  1.00  0.00     0.210 HD
ENDBRANCH   7   8
BRANCH   7  10
HETATM   10  C   UNL     1       7.214  24.624  53.549  1.00  0.00    -0.028 A 
HETATM   11  C   UNL     1       7.713  23.660  52.665  1.00  0.00     0.012 A 
HETATM   12  C   UNL     1       8.028  22.377  53.121  1.00  0.00     0.037 A 
HETATM   13  C   UNL     1       7.860  22.033  54.464  1.00  0.00     0.068 A 
HETATM   14  C   UNL     1       7.359  22.983  55.351  1.00  0.00     0.037 A 
HETATM   15  C   UNL     1       7.039  24.266  54.897  1.00  0.00     0.012 A 
BRANCH  13  16
HETATM   16  O   UNL     1       8.215  20.750  54.777  1.00  0.00    -0.356 OA
HETATM   17  C   UNL     1       7.934  20.313  56.101  1.00  0.00     0.210 C 
ENDBRANCH  13  16
ENDBRANCH   7  10
ENDBRANCH   5   7
ENDBRANCH   1   5
BRANCH   2  18
HETATM   18  C   UNL     1       6.329  28.715  57.032  1.00  0.00     0.079 A 
HETATM   19  C   UNL     1       5.873  30.035  57.001  1.00  0.00     0.165 A 
HETATM   20  N   UNL     1       6.539  31.025  57.682  1.00  0.00    -0.241 NA
HETATM   21  C   UNL     1       7.637  30.703  58.395  1.00  0.00     0.119 A 
HETATM   22  C   UNL     1       8.138  29.421  58.483  1.00  0.00     0.020 A 
HETATM   23  C   UNL     1       7.480  28.417  57.784  1.00  0.00     0.022 A 
BRANCH  19  24
HETATM   24  N   UNL     1       4.672  30.444  56.320  1.00  0.00    -0.226 N 
HETATM   25  N   UNL     1       4.660  30.533  54.952  1.00  0.00    -0.179 NA
HETATM   26  C   UNL     1       3.422  30.910  54.639  1.00  0.00     0.141 A 
HETATM   27  C   UNL     1       2.634  31.155  55.767  1.00  0.00     0.040 A 
HETATM   28  C   UNL     1       3.466  30.892  56.829  1.00  0.00     0.122 A 
ENDBRANCH  19  24
ENDBRANCH   2  18
TORSDOF 7
ENDMDL
MODEL 4
REMARK VINA RESULT:      -7.2      2.454      6.511
REMARK  7 active torsions:
REMARK  status: ('A' for Active; 'I' for Inactive)
REMARK    1  A    between atoms: C_2  and  N_3 
REMARK    2  A    between atoms: C_2  and  C_17 
REMARK       I    between atoms: N_3  and  C_4 
REMARK    3  A    between atoms: C_4  and  C_5 
REMARK    4  A    between atoms: C_6  and  N_7 
REMARK    5  A    between atoms: C_17  and  O_18 
REMARK    6  A    between atoms: C_17  and  C_19 
REMARK    7  A    between atoms: C_22  and  O_23 
ROOT
HETATM    1  N   UNL     1       5.075  26.758  54.261  1.00  0.00    -0.350 N 
HETATM    2  C   UNL     1       5.342  27.987  53.692  1.00  0.00     0.255 C 
HETATM    3  O   UNL     1       5.869  28.176  52.606  1.00  0.00    -0.268 OA
HETATM    4  H   UNL     1       4.623  26.730  55.167  1.00  0.00     0.163 HD
ENDROOT
BRANCH   1   5
HETATM    5  C   UNL     1       5.483  25.466  53.677  1.00  0.00     0.114 C 
HETATM    6  C   UNL     1       4.636  25.112  52.451  1.00  0.00     0.035 C 
BRANCH   5   7
HETATM    7  C   UNL     1       7.026  25.368  53.452  1.00  0.00     0.173 C 
BRANCH   7   8
HETATM    8  O   UNL     1       7.405  25.694  52.117  1.00  0.00    -0.389 OA
HETATM    9  H   UNL     1       6.598  25.916  51.624  1.00  0.00     0.210 HD
ENDBRANCH   7   8
BRANCH   7  10
HETATM   10  C   UNL     1       7.607  24.018  53.837  1.00  0.00    -0.028 A 
HETATM   11  C   UNL     1       8.006  23.764  55.155  1.00  0.00     0.012 A 
HETATM   12  C   UNL     1       8.516  22.513  55.511  1.00  0.00     0.037 A 
HETATM   13  C   UNL     1       8.633  21.491  54.565  1.00  0.00     0.068 A 
HETATM   14  C   UNL     1       8.245  21.736  53.250  1.00  0.00     0.037 A 
HETATM   15  C   UNL     1       7.737  22.988  52.890  1.00  0.00     0.012 A 
BRANCH  13  16
HETATM   16  O   UNL     1       9.139  20.316  55.049  1.00  0.00    -0.356 OA
HETATM   17  C   UNL     1       9.211  20.185  56.463  1.00  0.00     0.210 C 
ENDBRANCH  13  16
ENDBRANCH   7  10
ENDBRANCH   5   7
ENDBRANCH   1   5
BRANCH   2  18
HETATM   18  C   UNL     1       4.918  29.151  54.487  1.00  0.00     0.079 A 
HETATM   19  C   UNL     1       5.422  29.470  55.751  1.00  0.00     0.165 A 
HETATM   20  N   UNL     1       4.853  30.468  56.503  1.00  0.00    -0.241 NA
HETATM   21  C   UNL     1       3.804  31.150  56.000  1.00  0.00     0.119 A 
HETATM   22  C   UNL     1       3.262  30.901  54.756  1.00  0.00     0.020 A 
HETATM   23  C   UNL     1       3.821  29.881  53.995  1.00  0.00     0.022 A 
BRANCH  19  24
HETATM   24  N   UNL     1       6.579  28.835  56.327  1.00  0.00    -0.226 N 
HETATM   25  N   UNL     1       6.431  27.699  57.078  1.00  0.00    -0.179 NA
HETATM   26  C   UNL     1       7.665  27.359  57.442  1.00  0.00     0.141 A 
HETATM   27  C   UNL     1       8.624  28.286  57.022  1.00  0.00     0.040 A 
HETATM   28  C   UNL     1       7.902  29.242  56.349  1.00  0.00     0.122 A 
ENDBRANCH  19  24
ENDBRANCH   2  18
TORSDOF 7
ENDMDL
MODEL 5
REMARK VINA RESULT:      -7.2      3.662      7.652
REMARK  7 active torsions:
REMARK  status: ('A' for Active; 'I' for Inactive)
REMARK    1  A    between atoms: C_2  and  N_3 
REMARK    2  A    between atoms: C_2  and  C_17 
REMARK       I    between atoms: N_3  and  C_4 
REMARK    3  A    between atoms: C_4  and  C_5 
REMARK    4  A    between atoms: C_6  and  N_7 
REMARK    5  A    between atoms: C_17  and  O_18 
REMARK    6  A    between atoms: C_17  and  C_19 
REMARK    7  A    between atoms: C_22  and  O_23 
ROOT
HETATM    1  N   UNL     1       5.929  30.200  58.312  1.00  0.00    -0.350 N 
HETATM    2  C   UNL     1       6.431  31.469  58.526  1.00  0.00     0.255 C 
HETATM    3  O   UNL     1       6.151  32.470  57.884  1.00  0.00    -0.268 OA
HETATM    4  H   UNL     1       6.230  29.449  58.920  1.00  0.00     0.163 HD
ENDROOT
BRANCH   1   5
HETATM    5  C   UNL     1       5.040  29.838  57.192  1.00  0.00     0.114 C 
HETATM    6  C   UNL     1       3.771  30.696  57.183  1.00  0.00     0.035 C 
BRANCH   5   7
HETATM    7  C   UNL     1       5.791  29.774  55.824  1.00  0.00     0.173 C 
BRANCH   7   8
HETATM    8  O   UNL     1       5.104  30.477  54.791  1.00  0.00    -0.389 OA
HETATM    9  H   UNL     1       4.176  30.194  54.804  1.00  0.00     0.210 HD
ENDBRANCH   7   8
BRANCH   7  10
HETATM   10  C   UNL     1       6.093  28.356  55.368  1.00  0.00    -0.028 A 
HETATM   11  C   UNL     1       5.349  27.277  55.860  1.00  0.00     0.012 A 
HETATM   12  C   UNL     1       5.613  25.976  55.420  1.00  0.00     0.037 A 
HETATM   13  C   UNL     1       6.615  25.728  54.479  1.00  0.00     0.068 A 
HETATM   14  C   UNL     1       7.365  26.794  53.988  1.00  0.00     0.037 A 
HETATM   15  C   UNL     1       7.105  28.096  54.429  1.00  0.00     0.012 A 
BRANCH  13  16
HETATM   16  O   UNL     1       6.762  24.414  54.129  1.00  0.00    -0.356 OA
HETATM   17  C   UNL     1       7.186  23.523  55.154  1.00  0.00     0.210 C 
ENDBRANCH  13  16
ENDBRANCH   7  10
ENDBRANCH   5   7
ENDBRANCH   1   5
BRANCH   2  18
HETATM   18  C   UNL     1       7.369  31.589  59.655  1.00  0.00     0.079 A 
HETATM   19  C   UNL     1       8.637  31.003  59.694  1.00  0.00     0.165 A 
HETATM   20  N   UNL     1       9.381  31.013  60.849  1.00  0.00    -0.241 NA
HETATM   21  C   UNL     1       8.875  31.608  61.947  1.00  0.00     0.119 A 
HETATM   22  C   UNL     1       7.638  32.218  61.981  1.00  0.00     0.020 A 
HETATM   23  C   UNL     1       6.872  32.198  60.822  1.00  0.00     0.022 A 
BRANCH  19  24
HETATM   24  N   UNL     1       9.273  30.410  58.546  1.00  0.00    -0.226 N 
HETATM   25  N   UNL     1       8.863  29.182  58.099  1.00  0.00    -0.179 NA
HETATM   26  C   UNL     1       9.621  28.929  57.033  1.00  0.00     0.141 A 
HETATM   27  C   UNL     1      10.581  29.921  56.810  1.00  0.00     0.040 A 
HETATM   28  C   UNL     1      10.367  30.835  57.813  1.00  0.00     0.122 A 
ENDBRANCH  19  24
ENDBRANCH   2  18
TORSDOF 7
ENDMDL
MODEL 6
REMARK VINA RESULT:      -7.2      2.063      3.329
REMARK  7 active torsions:
REMARK  status: ('A' for Active; 'I' for Inactive)
REMARK    1  A    between atoms: C_2  and  N_3 
REMARK    2  A    between atoms: C_2  and  C_17 
REMARK       I    between atoms: N_3  and  C_4 
REMARK    3  A    between atoms: C_4  and  C_5 
REMARK    4  A    between atoms: C_6  and  N_7 
REMARK    5  A    between atoms: C_17  and  O_18 
REMARK    6  A    between atoms: C_17  and  C_19 
REMARK    7  A    between atoms: C_22  and  O_23 
ROOT
HETATM    1  N   UNL     1       6.346  24.251  53.797  1.00  0.00    -0.350 N 
HETATM    2  C   UNL     1       7.539  23.586  53.596  1.00  0.00     0.255 C 
HETATM    3  O   UNL     1       8.375  23.852  52.747  1.00  0.00    -0.268 OA
HETATM    4  H   UNL     1       5.737  23.942  54.545  1.00  0.00     0.163 HD
ENDROOT
BRANCH   1   5
HETATM    5  C   UNL     1       5.848  25.341  52.937  1.00  0.00     0.114 C 
HETATM    6  C   UNL     1       4.710  24.865  52.029  1.00  0.00     0.035 C 
BRANCH   5   7
HETATM    7  C   UNL     1       5.539  26.647  53.737  1.00  0.00     0.173 C 
BRANCH   7   8
HETATM    8  O   UNL     1       4.698  26.410  54.863  1.00  0.00    -0.389 OA
HETATM    9  H   UNL     1       3.877  26.912  54.733  1.00  0.00     0.210 HD
ENDBRANCH   7   8
BRANCH   7  10
HETATM   10  C   UNL     1       4.951  27.755  52.879  1.00  0.00    -0.028 A 
HETATM   11  C   UNL     1       3.637  28.193  53.086  1.00  0.00     0.012 A 
HETATM   12  C   UNL     1       3.108  29.230  52.312  1.00  0.00     0.037 A 
HETATM   13  C   UNL     1       3.876  29.852  51.325  1.00  0.00     0.068 A 
HETATM   14  C   UNL     1       5.182  29.419  51.108  1.00  0.00     0.037 A 
HETATM   15  C   UNL     1       5.714  28.379  51.878  1.00  0.00     0.012 A 
BRANCH  13  16
HETATM   16  O   UNL     1       3.240  30.856  50.649  1.00  0.00    -0.356 OA
HETATM   17  C   UNL     1       2.010  30.522  50.017  1.00  0.00     0.210 C 
ENDBRANCH  13  16
ENDBRANCH   7  10
ENDBRANCH   5   7
ENDBRANCH   1   5
BRANCH   2  18
HETATM   18  C   UNL     1       7.800  22.474  54.526  1.00  0.00     0.079 A 
HETATM   19  C   UNL     1       8.059  22.630  55.891  1.00  0.00     0.165 A 
HETATM   20  N   UNL     1       8.465  21.564  56.655  1.00  0.00    -0.241 NA
HETATM   21  C   UNL     1       8.600  20.355  56.074  1.00  0.00     0.119 A 
HETATM   22  C   UNL     1       8.349  20.122  54.737  1.00  0.00     0.020 A 
HETATM   23  C   UNL     1       7.954  21.199  53.953  1.00  0.00     0.022 A 
BRANCH  19  24
HETATM   24  N   UNL     1       7.872  23.871  56.597  1.00  0.00    -0.226 N 
HETATM   25  N   UNL     1       6.622  24.426  56.680  1.00  0.00    -0.179 NA
HETATM   26  C   UNL     1       6.781  25.536  57.399  1.00  0.00     0.141 A 
HETATM   27  C   UNL     1       8.119  25.777  57.725  1.00  0.00     0.040 A 
HETATM   28  C   UNL     1       8.802  24.723  57.165  1.00  0.00     0.122 A 
ENDBRANCH  19  24
ENDBRANCH   2  18
TORSDOF 7
ENDMDL
MODEL 7
REMARK VINA RESULT:      -7.1      2.992      7.581
REMARK  7 active torsions:
REMARK  status: ('A' for Active; 'I' for Inactive)
REMARK    1  A    between atoms: C_2  and  N_3 
REMARK    2  A    between atoms: C_2  and  C_17 
REMARK       I    between atoms: N_3  and  C_4 
REMARK    3  A    between atoms: C_4  and  C_5 
REMARK    4  A    between atoms: C_6  and  N_7 
REMARK    5  A    between atoms: C_17  and  O_18 
REMARK    6  A    between atoms: C_17  and  C_19 
REMARK    7  A    between atoms: C_22  and  O_23 
ROOT
HETATM    1  N   UNL     1       7.586  27.742  57.584  1.00  0.00    -0.350 N 
HETATM    2  C   UNL     1       8.311  28.916  57.572  1.00  0.00     0.255 C 
HETATM    3  O   UNL     1       9.280  29.155  56.868  1.00  0.00    -0.268 OA
HETATM    4  H   UNL     1       6.792  27.667  58.207  1.00  0.00     0.163 HD
ENDROOT
BRANCH   1   5
HETATM    5  C   UNL     1       7.940  26.541  56.805  1.00  0.00     0.114 C 
HETATM    6  C   UNL     1       8.350  25.380  57.716  1.00  0.00     0.035 C 
BRANCH   5   7
HETATM    7  C   UNL     1       6.860  26.177  55.735  1.00  0.00     0.173 C 
BRANCH   7   8
HETATM    8  O   UNL     1       5.559  26.036  56.299  1.00  0.00    -0.389 OA
HETATM    9  H   UNL     1       5.607  26.303  57.232  1.00  0.00     0.210 HD
ENDBRANCH   7   8
BRANCH   7  10
HETATM   10  C   UNL     1       7.207  24.939  54.925  1.00  0.00    -0.028 A 
HETATM   11  C   UNL     1       7.693  25.058  53.618  1.00  0.00     0.012 A 
HETATM   12  C   UNL     1       8.035  23.918  52.884  1.00  0.00     0.037 A 
HETATM   13  C   UNL     1       7.905  22.643  53.439  1.00  0.00     0.068 A 
HETATM   14  C   UNL     1       7.416  22.514  54.737  1.00  0.00     0.037 A 
HETATM   15  C   UNL     1       7.070  23.652  55.472  1.00  0.00     0.012 A 
BRANCH  13  16
HETATM   16  O   UNL     1       8.283  21.617  52.617  1.00  0.00    -0.356 OA
HETATM   17  C   UNL     1       8.219  20.305  53.162  1.00  0.00     0.210 C 
ENDBRANCH  13  16
ENDBRANCH   7  10
ENDBRANCH   5   7
ENDBRANCH   1   5
BRANCH   2  18
HETATM   18  C   UNL     1       7.826  29.961  58.491  1.00  0.00     0.079 A 
HETATM   19  C   UNL     1       6.668  30.715  58.287  1.00  0.00     0.165 A 
HETATM   20  N   UNL     1       6.376  31.788  59.094  1.00  0.00    -0.241 NA
HETATM   21  C   UNL     1       7.219  32.097  60.100  1.00  0.00     0.119 A 
HETATM   22  C   UNL     1       8.372  31.391  60.371  1.00  0.00     0.020 A 
HETATM   23  C   UNL     1       8.684  30.315  59.548  1.00  0.00     0.022 A 
BRANCH  19  24
HETATM   24  N   UNL     1       5.686  30.406  57.280  1.00  0.00    -0.226 N 
HETATM   25  N   UNL     1       5.001  29.220  57.337  1.00  0.00    -0.179 NA
HETATM   26  C   UNL     1       4.172  29.247  56.295  1.00  0.00     0.141 A 
HETATM   27  C   UNL     1       4.347  30.383  55.499  1.00  0.00     0.040 A 
HETATM   28  C   UNL     1       5.349  31.087  56.123  1.00  0.00     0.122 A 
ENDBRANCH  19  24
ENDBRANCH   2  18
TORSDOF 7
ENDMDL
MODEL 8
REMARK VINA RESULT:      -7.0      4.068      7.674
REMARK  7 active torsions:
REMARK  status: ('A' for Active; 'I' for Inactive)
REMARK    1  A    between atoms: C_2  and  N_3 
REMARK    2  A    between atoms: C_2  and  C_17 
REMARK       I    between atoms: N_3  and  C_4 
REMARK    3  A    between atoms: C_4  and  C_5 
REMARK    4  A    between atoms: C_6  and  N_7 
REMARK    5  A    between atoms: C_17  and  O_18 
REMARK    6  A    between atoms: C_17  and  C_19 
REMARK    7  A    between atoms: C_22  and  O_23 
ROOT
HETATM    1  N   UNL     1       4.299  26.471  50.477  1.00  0.00    -0.350 N 
HETATM    2  C   UNL     1       4.505  27.187  49.315  1.00  0.00     0.255 C 
HETATM    3  O   UNL     1       5.583  27.577  48.893  1.00  0.00    -0.268 OA
HETATM    4  H   UNL     1       3.354  26.195  50.717  1.00  0.00     0.163 HD
ENDROOT
BRANCH   1   5
HETATM    5  C   UNL     1       5.358  26.148  51.451  1.00  0.00     0.114 C 
HETATM    6  C   UNL     1       5.845  27.399  52.188  1.00  0.00     0.035 C 
BRANCH   5   7
HETATM    7  C   UNL     1       4.974  24.953  52.383  1.00  0.00     0.173 C 
BRANCH   7   8
HETATM    8  O   UNL     1       3.941  25.290  53.305  1.00  0.00    -0.389 OA
HETATM    9  H   UNL     1       3.195  25.650  52.799  1.00  0.00     0.210 HD
ENDBRANCH   7   8
BRANCH   7  10
HETATM   10  C   UNL     1       6.160  24.366  53.130  1.00  0.00    -0.028 A 
HETATM   11  C   UNL     1       6.237  24.458  54.525  1.00  0.00     0.012 A 
HETATM   12  C   UNL     1       7.317  23.895  55.212  1.00  0.00     0.037 A 
HETATM   13  C   UNL     1       8.333  23.227  54.525  1.00  0.00     0.068 A 
HETATM   14  C   UNL     1       8.268  23.136  53.137  1.00  0.00     0.037 A 
HETATM   15  C   UNL     1       7.191  23.701  52.447  1.00  0.00     0.012 A 
BRANCH  13  16
HETATM   16  O   UNL     1       9.324  22.716  55.318  1.00  0.00    -0.356 OA
HETATM   17  C   UNL     1       9.166  21.372  55.753  1.00  0.00     0.210 C 
ENDBRANCH  13  16
ENDBRANCH   7  10
ENDBRANCH   5   7
ENDBRANCH   1   5
BRANCH   2  18
HETATM   18  C   UNL     1       3.292  27.469  48.530  1.00  0.00     0.079 A 
HETATM   19  C   UNL     1       2.422  28.536  48.774  1.00  0.00     0.165 A 
HETATM   20  N   UNL     1       1.223  28.631  48.112  1.00  0.00    -0.241 NA
HETATM   21  C   UNL     1       0.897  27.684  47.209  1.00  0.00     0.119 A 
HETATM   22  C   UNL     1       1.709  26.611  46.906  1.00  0.00     0.020 A 
HETATM   23  C   UNL     1       2.917  26.498  47.583  1.00  0.00     0.022 A 
BRANCH  19  24
HETATM   24  N   UNL     1       2.730  29.620  49.671  1.00  0.00    -0.226 N 
HETATM   25  N   UNL     1       3.485  30.675  49.231  1.00  0.00    -0.179 NA
HETATM   26  C   UNL     1       3.571  31.500  50.273  1.00  0.00     0.141 A 
HETATM   27  C   UNL     1       2.962  30.981  51.420  1.00  0.00     0.040 A 
HETATM   28  C   UNL     1       2.470  29.760  51.023  1.00  0.00     0.122 A 
ENDBRANCH  19  24
ENDBRANCH   2  18
TORSDOF 7
ENDMDL
MODEL 9
REMARK VINA RESULT:      -7.0      9.600     12.543
REMARK  7 active torsions:
REMARK  status: ('A' for Active; 'I' for Inactive)
REMARK    1  A    between atoms: C_2  and  N_3 
REMARK    2  A    between atoms: C_2  and  C_17 
REMARK       I    between atoms: N_3  and  C_4 
REMARK    3  A    between atoms: C_4  and  C_5 
REMARK    4  A    between atoms: C_6  and  N_7 
REMARK    5  A    between atoms: C_17  and  O_18 
REMARK    6  A    between atoms: C_17  and  C_19 
REMARK    7  A    between atoms: C_22  and  O_23 
ROOT
HETATM    1  N   UNL     1       5.533  33.586  64.187  1.00  0.00    -0.350 N 
HETATM    2  C   UNL     1       5.627  32.448  63.411  1.00  0.00     0.255 C 
HETATM    3  O   UNL     1       4.888  31.477  63.468  1.00  0.00    -0.268 OA
HETATM    4  H   UNL     1       6.202  34.332  64.040  1.00  0.00     0.163 HD
ENDROOT
BRANCH   1   5
HETATM    5  C   UNL     1       4.569  33.761  65.289  1.00  0.00     0.114 C 
HETATM    6  C   UNL     1       5.279  34.034  66.619  1.00  0.00     0.035 C 
BRANCH   5   7
HETATM    7  C   UNL     1       3.432  34.775  64.939  1.00  0.00     0.173 C 
BRANCH   7   8
HETATM    8  O   UNL     1       2.333  34.154  64.277  1.00  0.00    -0.389 OA
HETATM    9  H   UNL     1       1.604  34.794  64.245  1.00  0.00     0.210 HD
ENDBRANCH   7   8
BRANCH   7  10
HETATM   10  C   UNL     1       3.915  35.966  64.129  1.00  0.00    -0.028 A 
HETATM   11  C   UNL     1       3.305  36.292  62.912  1.00  0.00     0.012 A 
HETATM   12  C   UNL     1       3.735  37.404  62.181  1.00  0.00     0.037 A 
HETATM   13  C   UNL     1       4.773  38.213  62.651  1.00  0.00     0.068 A 
HETATM   14  C   UNL     1       5.389  37.893  63.858  1.00  0.00     0.037 A 
HETATM   15  C   UNL     1       4.964  36.779  64.589  1.00  0.00     0.012 A 
BRANCH  13  16
HETATM   16  O   UNL     1       5.087  39.271  61.843  1.00  0.00    -0.356 OA
HETATM   17  C   UNL     1       6.332  39.913  62.087  1.00  0.00     0.210 C 
ENDBRANCH  13  16
ENDBRANCH   7  10
ENDBRANCH   5   7
ENDBRANCH   1   5
BRANCH   2  18
HETATM   18  C   UNL     1       6.718  32.454  62.421  1.00  0.00     0.079 A 
HETATM   19  C   UNL     1       6.532  32.587  61.043  1.00  0.00     0.165 A 
HETATM   20  N   UNL     1       7.579  32.407  60.172  1.00  0.00    -0.241 NA
HETATM   21  C   UNL     1       8.798  32.111  60.666  1.00  0.00     0.119 A 
HETATM   22  C   UNL     1       9.060  31.978  62.014  1.00  0.00     0.020 A 
HETATM   23  C   UNL     1       8.003  32.141  62.901  1.00  0.00     0.022 A 
BRANCH  19  24
HETATM   24  N   UNL     1       5.279  32.968  60.444  1.00  0.00    -0.226 N 
HETATM   25  N   UNL     1       4.577  32.061  59.696  1.00  0.00    -0.179 NA
HETATM   26  C   UNL     1       3.478  32.705  59.308  1.00  0.00     0.141 A 
HETATM   27  C   UNL     1       3.471  34.044  59.710  1.00  0.00     0.040 A 
HETATM   28  C   UNL     1       4.651  34.201  60.397  1.00  0.00     0.122 A 
ENDBRANCH  19  24
ENDBRANCH   2  18
TORSDOF 7
ENDMDL
MODEL 10
REMARK VINA RESULT:      -6.8      3.935      8.051
REMARK  7 active torsions:
REMARK  status: ('A' for Active; 'I' for Inactive)
REMARK    1  A    between atoms: C_2  and  N_3 
REMARK    2  A    between atoms: C_2  and  C_17 
REMARK       I    between atoms: N_3  and  C_4 
REMARK    3  A    between atoms: C_4  and  C_5 
REMARK    4  A    between atoms: C_6  and  N_7 
REMARK    5  A    between atoms: C_17  and  O_18 
REMARK    6  A    between atoms: C_17  and  C_19 
REMARK    7  A    between atoms: C_22  and  O_23 
ROOT
HETATM    1  N   UNL     1       4.469  27.171  51.476  1.00  0.00    -0.350 N 
HETATM    2  C   UNL     1       4.560  28.027  50.397  1.00  0.00     0.255 C 
HETATM    3  O   UNL     1       5.559  28.230  49.723  1.00  0.00    -0.268 OA
HETATM    4  H   UNL     1       3.579  27.079  51.950  1.00  0.00     0.163 HD
ENDROOT
BRANCH   1   5
HETATM    5  C   UNL     1       5.611  26.435  52.050  1.00  0.00     0.114 C 
HETATM    6  C   UNL     1       6.385  27.294  53.055  1.00  0.00     0.035 C 
BRANCH   5   7
HETATM    7  C   UNL     1       5.213  25.019  52.576  1.00  0.00     0.173 C 
BRANCH   7   8
HETATM    8  O   UNL     1       4.042  25.048  53.388  1.00  0.00    -0.389 OA
HETATM    9  H   UNL     1       3.271  25.080  52.799  1.00  0.00     0.210 HD
ENDBRANCH   7   8
BRANCH   7  10
HETATM   10  C   UNL     1       6.336  24.312  53.316  1.00  0.00    -0.028 A 
HETATM   11  C   UNL     1       6.355  24.279  54.715  1.00  0.00     0.012 A 
HETATM   12  C   UNL     1       7.376  23.606  55.393  1.00  0.00     0.037 A 
HETATM   13  C   UNL     1       8.390  22.950  54.691  1.00  0.00     0.068 A 
HETATM   14  C   UNL     1       8.383  22.983  53.299  1.00  0.00     0.037 A 
HETATM   15  C   UNL     1       7.365  23.658  52.618  1.00  0.00     0.012 A 
BRANCH  13  16
HETATM   16  O   UNL     1       9.320  22.325  55.476  1.00  0.00    -0.356 OA
HETATM   17  C   UNL     1       9.196  20.915  55.614  1.00  0.00     0.210 C 
ENDBRANCH  13  16
ENDBRANCH   7  10
ENDBRANCH   5   7
ENDBRANCH   1   5
BRANCH   2  18
HETATM   18  C   UNL     1       3.311  28.722  50.042  1.00  0.00     0.079 A 
HETATM   19  C   UNL     1       2.485  28.367  48.972  1.00  0.00     0.165 A 
HETATM   20  N   UNL     1       1.434  29.168  48.599  1.00  0.00    -0.241 NA
HETATM   21  C   UNL     1       1.198  30.302  49.290  1.00  0.00     0.119 A 
HETATM   22  C   UNL     1       1.961  30.710  50.365  1.00  0.00     0.020 A 
HETATM   23  C   UNL     1       3.037  29.914  50.738  1.00  0.00     0.022 A 
BRANCH  19  24
HETATM   24  N   UNL     1       2.631  27.140  48.231  1.00  0.00    -0.226 N 
HETATM   25  N   UNL     1       2.017  27.003  47.014  1.00  0.00    -0.179 NA
HETATM   26  C   UNL     1       2.356  25.787  46.589  1.00  0.00     0.141 A 
HETATM   27  C   UNL     1       3.111  25.081  47.531  1.00  0.00     0.040 A 
HETATM   28  C   UNL     1       3.237  25.949  48.589  1.00  0.00     0.122 A 
ENDBRANCH  19  24
ENDBRANCH   2  18
TORSDOF 7
ENDMDL
