MODEL 1
REMARK VINA RESULT:      -9.6      0.000      0.000
REMARK  7 active torsions:
REMARK  status: ('A' for Active; 'I' for Inactive)
REMARK    1  A    between atoms: C_3  and  C_4 
REMARK    2  A    between atoms: N_5  and  C_7 
REMARK    3  A    between atoms: N_10  and  C_11 
REMARK    4  A    between atoms: C_14  and  C_15 
REMARK       I    between atoms: C_15  and  N_16 
REMARK    5  A    between atoms: N_16  and  C_17 
REMARK    6  A    between atoms: C_17  and  C_18 
REMARK    7  A    between atoms: C_18  and  N_19 
ROOT
HETATM    1  C   UNL     1       7.207  27.613  55.352  1.00  0.00     0.191 C 
HETATM    2  C   UNL     1       6.025  28.039  56.223  1.00  0.00     0.048 C 
HETATM    3  C   UNL     1       6.416  28.659  57.544  1.00  0.00     0.098 C 
HETATM    4  N   UNL     1       7.377  29.743  57.301  1.00  0.00    -0.283 NA
HETATM    5  C   UNL     1       8.639  29.309  56.708  1.00  0.00     0.098 C 
HETATM    6  C   UNL     1       8.368  28.630  55.358  1.00  0.00     0.048 C 
ENDROOT
BRANCH   4   7
HETATM    7  C   UNL     1       7.416  30.605  58.415  1.00  0.00     0.010 A 
HETATM    8  C   UNL     1       8.347  30.499  59.458  1.00  0.00     0.024 A 
HETATM    9  C   UNL     1       8.193  31.242  60.640  1.00  0.00     0.019 A 
HETATM   10  C   UNL     1       7.106  32.112  60.776  1.00  0.00     0.032 A 
HETATM   11  C   UNL     1       6.223  32.296  59.715  1.00  0.00     0.019 A 
HETATM   12  C   UNL     1       6.393  31.562  58.543  1.00  0.00     0.024 A 
BRANCH  10  13
HETATM   13  C   UNL     1       6.754  32.712  62.080  1.00  0.00     0.251 C 
HETATM   14  N   UNL     1       7.658  32.597  63.105  1.00  0.00    -0.355 N 
HETATM   15  H   UNL     1       8.531  32.115  62.905  1.00  0.00     0.162 HD
HETATM   16  O   UNL     1       5.669  33.274  62.206  1.00  0.00    -0.268 OA
BRANCH  14  17
HETATM   17  C   UNL     1       7.363  32.861  64.515  1.00  0.00     0.150 C 
BRANCH  17  18
HETATM   18  C   UNL     1       7.235  34.338  64.966  1.00  0.00     0.254 C 
BRANCH  18  19
HETATM   19  N   UNL     1       6.245  34.545  66.086  1.00  0.00    -0.066 N 
HETATM   20  H   UNL     1       6.061  35.571  66.098  1.00  0.00     0.280 HD
HETATM   21  C   UNL     1       4.894  33.881  65.905  1.00  0.00     0.261 C 
HETATM   22  C   UNL     1       3.970  34.280  67.063  1.00  0.00     0.195 C 
HETATM   23  O   UNL     1       4.545  33.927  68.325  1.00  0.00    -0.388 OA
HETATM   24  C   UNL     1       5.794  34.597  68.538  1.00  0.00     0.195 C 
HETATM   25  C   UNL     1       6.814  34.219  67.457  1.00  0.00     0.261 C 
ENDBRANCH  18  19
ENDBRANCH  17  18
ENDBRANCH  14  17
ENDBRANCH  10  13
ENDBRANCH   4   7
BRANCH   1  26
HETATM   26  N   UNL     1       7.695  26.149  55.575  1.00  0.00    -0.056 N 
HETATM   27  C   UNL     1       6.722  25.074  55.021  1.00  0.00     0.257 C 
HETATM   28  C   UNL     1       7.362  23.683  55.116  1.00  0.00     0.041 C 
HETATM   29  C   UNL     1       7.795  23.362  56.539  1.00  0.00     0.004 C 
HETATM   30  C   UNL     1       8.753  24.426  57.044  1.00  0.00     0.028 C 
HETATM   31  C   UNL     1       8.134  25.815  56.981  1.00  0.00     0.236 C 
HETATM   32  H   UNL     1       8.531  26.073  54.986  1.00  0.00     0.281 HD
BRANCH  27  33
HETATM   33  C   UNL     1       6.139  25.375  53.662  1.00  0.00     0.136 A 
HETATM   34  N   UNL     1       6.769  25.358  52.435  1.00  0.00    -0.346 N 
HETATM   35  C   UNL     1       8.149  25.075  52.124  1.00  0.00     0.157 C 
HETATM   36  C   UNL     1       5.837  25.682  51.486  1.00  0.00     0.111 A 
HETATM   37  C   UNL     1       4.672  25.909  52.170  1.00  0.00     0.136 A 
HETATM   38  N   UNL     1       4.877  25.743  53.510  1.00  0.00    -0.244 NA
ENDBRANCH  27  33
ENDBRANCH   1  26
TORSDOF 7
ENDMDL
MODEL 2
REMARK VINA RESULT:      -9.2      2.348      3.333
REMARK  7 active torsions:
REMARK  status: ('A' for Active; 'I' for Inactive)
REMARK    1  A    between atoms: C_3  and  C_4 
REMARK    2  A    between atoms: N_5  and  C_7 
REMARK    3  A    between atoms: N_10  and  C_11 
REMARK    4  A    between atoms: C_14  and  C_15 
REMARK       I    between atoms: C_15  and  N_16 
REMARK    5  A    between atoms: N_16  and  C_17 
REMARK    6  A    between atoms: C_17  and  C_18 
REMARK    7  A    between atoms: C_18  and  N_19 
ROOT
HETATM    1  C   UNL     1       8.009  29.046  56.012  1.00  0.00     0.191 C 
HETATM    2  C   UNL     1       6.818  29.862  56.514  1.00  0.00     0.048 C 
HETATM    3  C   UNL     1       6.860  30.182  57.991  1.00  0.00     0.098 C 
HETATM    4  N   UNL     1       8.157  30.791  58.314  1.00  0.00    -0.283 NA
HETATM    5  C   UNL     1       9.305  29.916  58.092  1.00  0.00     0.098 C 
HETATM    6  C   UNL     1       9.356  29.496  56.616  1.00  0.00     0.048 C 
ENDROOT
BRANCH   4   7
HETATM    7  C   UNL     1       8.066  31.488  59.535  1.00  0.00     0.010 A 
HETATM    8  C   UNL     1       9.050  31.455  60.534  1.00  0.00     0.024 A 
HETATM    9  C   UNL     1       8.800  31.986  61.810  1.00  0.00     0.019 A 
HETATM   10  C   UNL     1       7.559  32.568  62.088  1.00  0.00     0.032 A 
HETATM   11  C   UNL     1       6.604  32.688  61.082  1.00  0.00     0.019 A 
HETATM   12  C   UNL     1       6.868  32.169  59.816  1.00  0.00     0.024 A 
BRANCH  10  13
HETATM   13  C   UNL     1       7.153  32.900  63.470  1.00  0.00     0.251 C 
HETATM   14  N   UNL     1       5.814  32.889  63.766  1.00  0.00    -0.355 N 
HETATM   15  H   UNL     1       5.173  32.638  63.017  1.00  0.00     0.162 HD
HETATM   16  O   UNL     1       8.017  33.187  64.294  1.00  0.00    -0.268 OA
BRANCH  14  17
HETATM   17  C   UNL     1       5.218  33.468  64.972  1.00  0.00     0.150 C 
BRANCH  17  18
HETATM   18  C   UNL     1       4.023  34.438  64.798  1.00  0.00     0.254 C 
BRANCH  18  19
HETATM   19  N   UNL     1       3.677  34.721  63.356  1.00  0.00    -0.066 N 
HETATM   20  H   UNL     1       4.506  34.401  62.811  1.00  0.00     0.280 HD
HETATM   21  C   UNL     1       2.491  33.957  62.799  1.00  0.00     0.261 C 
HETATM   22  C   UNL     1       2.343  34.264  61.303  1.00  0.00     0.195 C 
HETATM   23  O   UNL     1       2.193  35.669  61.080  1.00  0.00    -0.388 OA
HETATM   24  C   UNL     1       3.335  36.400  61.544  1.00  0.00     0.195 C 
HETATM   25  C   UNL     1       3.539  36.203  63.051  1.00  0.00     0.261 C 
ENDBRANCH  18  19
ENDBRANCH  17  18
ENDBRANCH  14  17
ENDBRANCH  10  13
ENDBRANCH   4   7
BRANCH   1  26
HETATM   26  N   UNL     1       7.817  27.499  56.066  1.00  0.00    -0.056 N 
HETATM   27  C   UNL     1       6.447  27.020  55.518  1.00  0.00     0.257 C 
HETATM   28  C   UNL     1       6.417  25.489  55.436  1.00  0.00     0.041 C 
HETATM   29  C   UNL     1       6.733  24.850  56.781  1.00  0.00     0.004 C 
HETATM   30  C   UNL     1       8.083  25.333  57.282  1.00  0.00     0.028 C 
HETATM   31  C   UNL     1       8.132  26.849  57.392  1.00  0.00     0.236 C 
HETATM   32  H   UNL     1       8.507  27.140  55.397  1.00  0.00     0.281 HD
BRANCH  27  33
HETATM   33  C   UNL     1       5.991  27.697  54.248  1.00  0.00     0.136 A 
HETATM   34  N   UNL     1       4.874  28.482  54.049  1.00  0.00    -0.346 N 
HETATM   35  C   UNL     1       3.837  28.845  54.983  1.00  0.00     0.157 C 
HETATM   36  C   UNL     1       4.882  28.889  52.742  1.00  0.00     0.111 A 
HETATM   37  C   UNL     1       5.994  28.319  52.180  1.00  0.00     0.136 A 
HETATM   38  N   UNL     1       6.652  27.566  53.110  1.00  0.00    -0.244 NA
ENDBRANCH  27  33
ENDBRANCH   1  26
TORSDOF 7
ENDMDL
MODEL 3
REMARK VINA RESULT:      -9.1      1.861      2.471
REMARK  7 active torsions:
REMARK  status: ('A' for Active; 'I' for Inactive)
REMARK    1  A    between atoms: C_3  and  C_4 
REMARK    2  A    between atoms: N_5  and  C_7 
REMARK    3  A    between atoms: N_10  and  C_11 
REMARK    4  A    between atoms: C_14  and  C_15 
REMARK       I    between atoms: C_15  and  N_16 
REMARK    5  A    between atoms: N_16  and  C_17 
REMARK    6  A    between atoms: C_17  and  C_18 
REMARK    7  A    between atoms: C_18  and  N_19 
ROOT
HETATM    1  C   UNL     1       7.398  27.842  55.580  1.00  0.00     0.191 C 
HETATM    2  C   UNL     1       6.237  28.315  56.456  1.00  0.00     0.048 C 
HETATM    3  C   UNL     1       6.649  28.807  57.824  1.00  0.00     0.098 C 
HETATM    4  N   UNL     1       7.708  29.814  57.674  1.00  0.00    -0.283 NA
HETATM    5  C   UNL     1       8.940  29.307  57.076  1.00  0.00     0.098 C 
HETATM    6  C   UNL     1       8.643  28.748  55.678  1.00  0.00     0.048 C 
ENDROOT
BRANCH   4   7
HETATM    7  C   UNL     1       7.797  30.592  58.845  1.00  0.00     0.010 A 
HETATM    8  C   UNL     1       8.789  30.431  59.822  1.00  0.00     0.024 A 
HETATM    9  C   UNL     1       8.690  31.082  61.063  1.00  0.00     0.019 A 
HETATM   10  C   UNL     1       7.597  31.914  61.326  1.00  0.00     0.032 A 
HETATM   11  C   UNL     1       6.650  32.154  60.334  1.00  0.00     0.019 A 
HETATM   12  C   UNL     1       6.765  31.512  59.102  1.00  0.00     0.024 A 
BRANCH  10  13
HETATM   13  C   UNL     1       7.311  32.408  62.689  1.00  0.00     0.251 C 
HETATM   14  N   UNL     1       5.997  32.536  63.063  1.00  0.00    -0.355 N 
HETATM   15  H   UNL     1       5.290  32.270  62.382  1.00  0.00     0.162 HD
HETATM   16  O   UNL     1       8.247  32.698  63.428  1.00  0.00    -0.268 OA
BRANCH  14  17
HETATM   17  C   UNL     1       5.530  33.274  64.238  1.00  0.00     0.150 C 
BRANCH  17  18
HETATM   18  C   UNL     1       4.156  33.985  64.150  1.00  0.00     0.254 C 
BRANCH  18  19
HETATM   19  N   UNL     1       4.256  35.464  63.866  1.00  0.00    -0.066 N 
HETATM   20  H   UNL     1       3.810  35.928  64.686  1.00  0.00     0.280 HD
HETATM   21  C   UNL     1       5.661  36.026  63.781  1.00  0.00     0.261 C 
HETATM   22  C   UNL     1       5.592  37.549  63.606  1.00  0.00     0.195 C 
HETATM   23  O   UNL     1       4.833  37.899  62.444  1.00  0.00    -0.388 OA
HETATM   24  C   UNL     1       3.483  37.428  62.538  1.00  0.00     0.195 C 
HETATM   25  C   UNL     1       3.440  35.900  62.661  1.00  0.00     0.261 C 
ENDBRANCH  18  19
ENDBRANCH  17  18
ENDBRANCH  14  17
ENDBRANCH  10  13
ENDBRANCH   4   7
BRANCH   1  26
HETATM   26  N   UNL     1       7.748  26.329  55.711  1.00  0.00    -0.056 N 
HETATM   27  C   UNL     1       6.693  25.386  55.074  1.00  0.00     0.257 C 
HETATM   28  C   UNL     1       7.203  23.939  55.084  1.00  0.00     0.041 C 
HETATM   29  C   UNL     1       7.579  23.487  56.487  1.00  0.00     0.004 C 
HETATM   30  C   UNL     1       8.620  24.425  57.074  1.00  0.00     0.028 C 
HETATM   31  C   UNL     1       8.129  25.865  57.096  1.00  0.00     0.236 C 
HETATM   32  H   UNL     1       8.584  26.216  55.128  1.00  0.00     0.281 HD
BRANCH  27  33
HETATM   33  C   UNL     1       6.164  25.826  53.731  1.00  0.00     0.136 A 
HETATM   34  N   UNL     1       6.752  25.690  52.491  1.00  0.00    -0.346 N 
HETATM   35  C   UNL     1       8.031  25.118  52.147  1.00  0.00     0.157 C 
HETATM   36  C   UNL     1       5.896  26.224  51.565  1.00  0.00     0.111 A 
HETATM   37  C   UNL     1       4.821  26.689  52.277  1.00  0.00     0.136 A 
HETATM   38  N   UNL     1       5.010  26.463  53.610  1.00  0.00    -0.244 NA
ENDBRANCH  27  33
ENDBRANCH   1  26
TORSDOF 7
ENDMDL
MODEL 4
REMARK VINA RESULT:      -9.0      4.214     11.743
REMARK  7 active torsions:
REMARK  status: ('A' for Active; 'I' for Inactive)
REMARK    1  A    between atoms: C_3  and  C_4 
REMARK    2  A    between atoms: N_5  and  C_7 
REMARK    3  A    between atoms: N_10  and  C_11 
REMARK    4  A    between atoms: C_14  and  C_15 
REMARK       I    between atoms: C_15  and  N_16 
REMARK    5  A    between atoms: N_16  and  C_17 
REMARK    6  A    between atoms: C_17  and  C_18 
REMARK    7  A    between atoms: C_18  and  N_19 
ROOT
HETATM    1  C   UNL     1       5.122  32.806  59.894  1.00  0.00     0.191 C 
HETATM    2  C   UNL     1       5.929  32.702  58.599  1.00  0.00     0.048 C 
HETATM    3  C   UNL     1       5.827  31.363  57.907  1.00  0.00     0.098 C 
HETATM    4  N   UNL     1       4.411  31.017  57.735  1.00  0.00    -0.283 NA
HETATM    5  C   UNL     1       3.676  30.844  58.985  1.00  0.00     0.098 C 
HETATM    6  C   UNL     1       3.731  32.144  59.800  1.00  0.00     0.048 C 
ENDROOT
BRANCH   4   7
HETATM    7  C   UNL     1       4.276  30.036  56.732  1.00  0.00     0.010 A 
HETATM    8  C   UNL     1       4.658  28.696  56.889  1.00  0.00     0.024 A 
HETATM    9  C   UNL     1       4.707  27.827  55.786  1.00  0.00     0.019 A 
HETATM   10  C   UNL     1       4.358  28.298  54.516  1.00  0.00     0.032 A 
HETATM   11  C   UNL     1       3.893  29.601  54.359  1.00  0.00     0.019 A 
HETATM   12  C   UNL     1       3.837  30.449  55.462  1.00  0.00     0.024 A 
BRANCH  10  13
HETATM   13  C   UNL     1       4.640  27.513  53.296  1.00  0.00     0.251 C 
HETATM   14  N   UNL     1       4.406  26.161  53.333  1.00  0.00    -0.355 N 
HETATM   15  H   UNL     1       4.036  25.776  54.199  1.00  0.00     0.162 HD
HETATM   16  O   UNL     1       5.085  28.086  52.305  1.00  0.00    -0.268 OA
BRANCH  14  17
HETATM   17  C   UNL     1       4.895  25.199  52.344  1.00  0.00     0.150 C 
BRANCH  17  18
HETATM   18  C   UNL     1       6.411  24.877  52.333  1.00  0.00     0.254 C 
BRANCH  18  19
HETATM   19  N   UNL     1       6.802  23.773  53.285  1.00  0.00    -0.066 N 
HETATM   20  H   UNL     1       5.950  23.180  53.377  1.00  0.00     0.280 HD
HETATM   21  C   UNL     1       7.906  22.849  52.807  1.00  0.00     0.261 C 
HETATM   22  C   UNL     1       8.104  21.720  53.828  1.00  0.00     0.195 C 
HETATM   23  O   UNL     1       8.408  22.247  55.124  1.00  0.00    -0.388 OA
HETATM   24  C   UNL     1       7.345  23.073  55.616  1.00  0.00     0.195 C 
HETATM   25  C   UNL     1       7.103  24.270  54.689  1.00  0.00     0.261 C 
ENDBRANCH  18  19
ENDBRANCH  17  18
ENDBRANCH  14  17
ENDBRANCH  10  13
ENDBRANCH   4   7
BRANCH   1  26
HETATM   26  N   UNL     1       5.893  32.395  61.185  1.00  0.00    -0.056 N 
HETATM   27  C   UNL     1       5.787  33.433  62.334  1.00  0.00     0.257 C 
HETATM   28  C   UNL     1       6.412  32.868  63.616  1.00  0.00     0.041 C 
HETATM   29  C   UNL     1       7.852  32.430  63.391  1.00  0.00     0.004 C 
HETATM   30  C   UNL     1       7.916  31.408  62.269  1.00  0.00     0.028 C 
HETATM   31  C   UNL     1       7.322  31.952  60.979  1.00  0.00     0.236 C 
HETATM   32  H   UNL     1       5.383  31.573  61.528  1.00  0.00     0.281 HD
BRANCH  27  33
HETATM   33  C   UNL     1       4.413  34.020  62.545  1.00  0.00     0.136 A 
HETATM   34  N   UNL     1       3.929  35.242  62.126  1.00  0.00    -0.346 N 
HETATM   35  C   UNL     1       4.606  36.291  61.402  1.00  0.00     0.157 C 
HETATM   36  C   UNL     1       2.625  35.334  62.533  1.00  0.00     0.111 A 
HETATM   37  C   UNL     1       2.364  34.170  63.209  1.00  0.00     0.136 A 
HETATM   38  N   UNL     1       3.479  33.383  63.232  1.00  0.00    -0.244 NA
ENDBRANCH  27  33
ENDBRANCH   1  26
TORSDOF 7
ENDMDL
MODEL 5
REMARK VINA RESULT:      -8.6      3.842      6.301
REMARK  7 active torsions:
REMARK  status: ('A' for Active; 'I' for Inactive)
REMARK    1  A    between atoms: C_3  and  C_4 
REMARK    2  A    between atoms: N_5  and  C_7 
REMARK    3  A    between atoms: N_10  and  C_11 
REMARK    4  A    between atoms: C_14  and  C_15 
REMARK       I    between atoms: C_15  and  N_16 
REMARK    5  A    between atoms: N_16  and  C_17 
REMARK    6  A    between atoms: C_17  and  C_18 
REMARK    7  A    between atoms: C_18  and  N_19 
ROOT
HETATM    1  C   UNL     1       3.983  28.516  51.130  1.00  0.00     0.191 C 
HETATM    2  C   UNL     1       5.330  27.855  51.430  1.00  0.00     0.048 C 
HETATM    3  C   UNL     1       6.046  28.420  52.634  1.00  0.00     0.098 C 
HETATM    4  N   UNL     1       5.131  28.417  53.783  1.00  0.00    -0.283 NA
HETATM    5  C   UNL     1       3.956  29.268  53.620  1.00  0.00     0.098 C 
HETATM    6  C   UNL     1       3.151  28.807  52.396  1.00  0.00     0.048 C 
ENDROOT
BRANCH   4   7
HETATM    7  C   UNL     1       5.867  28.507  54.981  1.00  0.00     0.010 A 
HETATM    8  C   UNL     1       5.311  28.852  56.221  1.00  0.00     0.024 A 
HETATM    9  C   UNL     1       6.132  29.142  57.324  1.00  0.00     0.019 A 
HETATM   10  C   UNL     1       7.523  29.073  57.190  1.00  0.00     0.032 A 
HETATM   11  C   UNL     1       8.088  28.646  55.992  1.00  0.00     0.019 A 
HETATM   12  C   UNL     1       7.263  28.349  54.909  1.00  0.00     0.024 A 
BRANCH  10  13
HETATM   13  C   UNL     1       8.427  29.615  58.226  1.00  0.00     0.251 C 
HETATM   14  N   UNL     1       7.885  29.947  59.442  1.00  0.00    -0.355 N 
HETATM   15  H   UNL     1       6.888  29.787  59.568  1.00  0.00     0.162 HD
HETATM   16  O   UNL     1       9.617  29.764  57.962  1.00  0.00    -0.268 OA
BRANCH  14  17
HETATM   17  C   UNL     1       8.552  30.756  60.463  1.00  0.00     0.150 C 
BRANCH  17  18
HETATM   18  C   UNL     1       8.326  32.289  60.437  1.00  0.00     0.254 C 
BRANCH  18  19
HETATM   19  N   UNL     1       7.620  32.818  61.662  1.00  0.00    -0.066 N 
HETATM   20  H   UNL     1       7.803  33.844  61.658  1.00  0.00     0.280 HD
HETATM   21  C   UNL     1       6.111  32.664  61.673  1.00  0.00     0.261 C 
HETATM   22  C   UNL     1       5.537  33.350  62.919  1.00  0.00     0.195 C 
HETATM   23  O   UNL     1       6.112  32.811  64.113  1.00  0.00    -0.388 OA
HETATM   24  C   UNL     1       7.531  33.005  64.147  1.00  0.00     0.195 C 
HETATM   25  C   UNL     1       8.211  32.306  62.964  1.00  0.00     0.261 C 
ENDBRANCH  18  19
ENDBRANCH  17  18
ENDBRANCH  14  17
ENDBRANCH  10  13
ENDBRANCH   4   7
BRANCH   1  26
HETATM   26  N   UNL     1       4.051  29.740  50.166  1.00  0.00    -0.056 N 
HETATM   27  C   UNL     1       3.999  29.356  48.664  1.00  0.00     0.257 C 
HETATM   28  C   UNL     1       3.884  30.618  47.799  1.00  0.00     0.041 C 
HETATM   29  C   UNL     1       5.013  31.598  48.086  1.00  0.00     0.004 C 
HETATM   30  C   UNL     1       5.027  31.959  49.561  1.00  0.00     0.028 C 
HETATM   31  C   UNL     1       5.162  30.725  50.440  1.00  0.00     0.236 C 
HETATM   32  H   UNL     1       3.172  30.241  50.338  1.00  0.00     0.281 HD
BRANCH  27  33
HETATM   33  C   UNL     1       2.992  28.290  48.307  1.00  0.00     0.136 A 
HETATM   34  N   UNL     1       3.222  26.982  47.937  1.00  0.00    -0.346 N 
HETATM   35  C   UNL     1       4.477  26.290  47.767  1.00  0.00     0.157 C 
HETATM   36  C   UNL     1       2.005  26.390  47.725  1.00  0.00     0.111 A 
HETATM   37  C   UNL     1       1.072  27.367  47.953  1.00  0.00     0.136 A 
HETATM   38  N   UNL     1       1.692  28.538  48.283  1.00  0.00    -0.244 NA
ENDBRANCH  27  33
ENDBRANCH   1  26
TORSDOF 7
ENDMDL
MODEL 6
REMARK VINA RESULT:      -8.6      5.344     12.832
REMARK  7 active torsions:
REMARK  status: ('A' for Active; 'I' for Inactive)
REMARK    1  A    between atoms: C_3  and  C_4 
REMARK    2  A    between atoms: N_5  and  C_7 
REMARK    3  A    between atoms: N_10  and  C_11 
REMARK    4  A    between atoms: C_14  and  C_15 
REMARK       I    between atoms: C_15  and  N_16 
REMARK    5  A    between atoms: N_16  and  C_17 
REMARK    6  A    between atoms: C_17  and  C_18 
REMARK    7  A    between atoms: C_18  and  N_19 
ROOT
HETATM    1  C   UNL     1       4.596  32.985  60.594  1.00  0.00     0.191 C 
HETATM    2  C   UNL     1       4.979  33.577  59.237  1.00  0.00     0.048 C 
HETATM    3  C   UNL     1       4.971  32.583  58.099  1.00  0.00     0.098 C 
HETATM    4  N   UNL     1       3.680  31.883  58.081  1.00  0.00    -0.283 NA
HETATM    5  C   UNL     1       3.412  31.083  59.272  1.00  0.00     0.098 C 
HETATM    6  C   UNL     1       3.423  31.986  60.514  1.00  0.00     0.048 C 
ENDROOT
BRANCH   4   7
HETATM    7  C   UNL     1       3.469  31.300  56.816  1.00  0.00     0.010 A 
HETATM    8  C   UNL     1       3.925  30.024  56.453  1.00  0.00     0.024 A 
HETATM    9  C   UNL     1       3.879  29.596  55.116  1.00  0.00     0.019 A 
HETATM   10  C   UNL     1       3.361  30.445  54.132  1.00  0.00     0.032 A 
HETATM   11  C   UNL     1       2.824  31.680  54.489  1.00  0.00     0.019 A 
HETATM   12  C   UNL     1       2.863  32.088  55.821  1.00  0.00     0.024 A 
BRANCH  10  13
HETATM   13  C   UNL     1       3.528  30.155  52.693  1.00  0.00     0.251 C 
HETATM   14  N   UNL     1       2.543  30.573  51.834  1.00  0.00    -0.355 N 
HETATM   15  H   UNL     1       1.755  31.074  52.237  1.00  0.00     0.162 HD
HETATM   16  O   UNL     1       4.525  29.542  52.319  1.00  0.00    -0.268 OA
BRANCH  14  17
HETATM   17  C   UNL     1       2.395  30.125  50.449  1.00  0.00     0.150 C 
BRANCH  17  18
HETATM   18  C   UNL     1       1.581  28.832  50.187  1.00  0.00     0.254 C 
BRANCH  18  19
HETATM   19  N   UNL     1       2.312  27.815  49.345  1.00  0.00    -0.066 N 
HETATM   20  H   UNL     1       2.407  26.976  49.957  1.00  0.00     0.280 HD
HETATM   21  C   UNL     1       1.587  27.345  48.099  1.00  0.00     0.261 C 
HETATM   22  C   UNL     1       2.403  26.235  47.422  1.00  0.00     0.195 C 
HETATM   23  O   UNL     1       3.722  26.691  47.102  1.00  0.00    -0.388 OA
HETATM   24  C   UNL     1       4.443  27.080  48.277  1.00  0.00     0.195 C 
HETATM   25  C   UNL     1       3.733  28.230  49.003  1.00  0.00     0.261 C 
ENDBRANCH  18  19
ENDBRANCH  17  18
ENDBRANCH  14  17
ENDBRANCH  10  13
ENDBRANCH   4   7
BRANCH   1  26
HETATM   26  N   UNL     1       5.790  32.437  61.434  1.00  0.00    -0.056 N 
HETATM   27  C   UNL     1       6.275  33.411  62.540  1.00  0.00     0.257 C 
HETATM   28  C   UNL     1       7.318  32.723  63.429  1.00  0.00     0.041 C 
HETATM   29  C   UNL     1       8.483  32.184  62.612  1.00  0.00     0.004 C 
HETATM   30  C   UNL     1       7.974  31.227  61.548  1.00  0.00     0.028 C 
HETATM   31  C   UNL     1       6.952  31.893  60.637  1.00  0.00     0.236 C 
HETATM   32  H   UNL     1       5.391  31.641  61.943  1.00  0.00     0.281 HD
BRANCH  27  33
HETATM   33  C   UNL     1       5.179  34.094  63.320  1.00  0.00     0.136 A 
HETATM   34  N   UNL     1       4.810  35.423  63.297  1.00  0.00    -0.346 N 
HETATM   35  C   UNL     1       5.384  36.515  62.548  1.00  0.00     0.157 C 
HETATM   36  C   UNL     1       3.756  35.576  64.157  1.00  0.00     0.111 A 
HETATM   37  C   UNL     1       3.530  34.336  64.693  1.00  0.00     0.136 A 
HETATM   38  N   UNL     1       4.429  33.439  64.191  1.00  0.00    -0.244 NA
ENDBRANCH  27  33
ENDBRANCH   1  26
TORSDOF 7
ENDMDL
MODEL 7
REMARK VINA RESULT:      -8.5      4.538     12.702
REMARK  7 active torsions:
REMARK  status: ('A' for Active; 'I' for Inactive)
REMARK    1  A    between atoms: C_3  and  C_4 
REMARK    2  A    between atoms: N_5  and  C_7 
REMARK    3  A    between atoms: N_10  and  C_11 
REMARK    4  A    between atoms: C_14  and  C_15 
REMARK       I    between atoms: C_15  and  N_16 
REMARK    5  A    between atoms: N_16  and  C_17 
REMARK    6  A    between atoms: C_17  and  C_18 
REMARK    7  A    between atoms: C_18  and  N_19 
ROOT
HETATM    1  C   UNL     1       5.007  32.634  59.787  1.00  0.00     0.191 C 
HETATM    2  C   UNL     1       5.886  32.643  58.535  1.00  0.00     0.048 C 
HETATM    3  C   UNL     1       5.952  31.318  57.810  1.00  0.00     0.098 C 
HETATM    4  N   UNL     1       4.587  30.841  57.556  1.00  0.00    -0.283 NA
HETATM    5  C   UNL     1       3.811  30.565  58.762  1.00  0.00     0.098 C 
HETATM    6  C   UNL     1       3.696  31.842  59.605  1.00  0.00     0.048 C 
ENDROOT
BRANCH   4   7
HETATM    7  C   UNL     1       4.601  29.878  56.528  1.00  0.00     0.010 A 
HETATM    8  C   UNL     1       4.912  28.524  56.723  1.00  0.00     0.024 A 
HETATM    9  C   UNL     1       5.127  27.669  55.630  1.00  0.00     0.019 A 
HETATM   10  C   UNL     1       5.017  28.167  54.328  1.00  0.00     0.032 A 
HETATM   11  C   UNL     1       4.622  29.485  54.116  1.00  0.00     0.019 A 
HETATM   12  C   UNL     1       4.400  30.321  55.209  1.00  0.00     0.024 A 
BRANCH  10  13
HETATM   13  C   UNL     1       5.484  27.389  53.161  1.00  0.00     0.251 C 
HETATM   14  N   UNL     1       4.555  27.024  52.219  1.00  0.00    -0.355 N 
HETATM   15  H   UNL     1       3.595  27.323  52.371  1.00  0.00     0.162 HD
HETATM   16  O   UNL     1       6.671  27.085  53.081  1.00  0.00    -0.268 OA
BRANCH  14  17
HETATM   17  C   UNL     1       4.773  26.022  51.174  1.00  0.00     0.150 C 
BRANCH  17  18
HETATM   18  C   UNL     1       4.879  26.513  49.708  1.00  0.00     0.254 C 
BRANCH  18  19
HETATM   19  N   UNL     1       3.554  26.560  48.987  1.00  0.00    -0.066 N 
HETATM   20  H   UNL     1       2.957  25.857  49.473  1.00  0.00     0.280 HD
HETATM   21  C   UNL     1       2.803  27.875  49.069  1.00  0.00     0.261 C 
HETATM   22  C   UNL     1       1.434  27.725  48.392  1.00  0.00     0.195 C 
HETATM   23  O   UNL     1       1.578  27.306  47.031  1.00  0.00    -0.388 OA
HETATM   24  C   UNL     1       2.230  26.033  46.940  1.00  0.00     0.195 C 
HETATM   25  C   UNL     1       3.639  26.091  47.544  1.00  0.00     0.261 C 
ENDBRANCH  18  19
ENDBRANCH  17  18
ENDBRANCH  14  17
ENDBRANCH  10  13
ENDBRANCH   4   7
BRANCH   1  26
HETATM   26  N   UNL     1       5.749  32.267  61.108  1.00  0.00    -0.056 N 
HETATM   27  C   UNL     1       5.621  33.344  62.217  1.00  0.00     0.257 C 
HETATM   28  C   UNL     1       6.216  32.824  63.531  1.00  0.00     0.041 C 
HETATM   29  C   UNL     1       7.659  32.376  63.354  1.00  0.00     0.004 C 
HETATM   30  C   UNL     1       7.745  31.315  62.270  1.00  0.00     0.028 C 
HETATM   31  C   UNL     1       7.181  31.815  60.949  1.00  0.00     0.236 C 
HETATM   32  H   UNL     1       5.229  31.459  61.468  1.00  0.00     0.281 HD
BRANCH  27  33
HETATM   33  C   UNL     1       4.244  33.941  62.377  1.00  0.00     0.136 A 
HETATM   34  N   UNL     1       3.777  35.156  61.919  1.00  0.00    -0.346 N 
HETATM   35  C   UNL     1       4.478  36.186  61.192  1.00  0.00     0.157 C 
HETATM   36  C   UNL     1       2.463  35.261  62.288  1.00  0.00     0.111 A 
HETATM   37  C   UNL     1       2.177  34.113  62.980  1.00  0.00     0.136 A 
HETATM   38  N   UNL     1       3.288  33.322  63.051  1.00  0.00    -0.244 NA
ENDBRANCH  27  33
ENDBRANCH   1  26
TORSDOF 7
ENDMDL
MODEL 8
REMARK VINA RESULT:      -8.3      4.339     11.830
REMARK  7 active torsions:
REMARK  status: ('A' for Active; 'I' for Inactive)
REMARK    1  A    between atoms: C_3  and  C_4 
REMARK    2  A    between atoms: N_5  and  C_7 
REMARK    3  A    between atoms: N_10  and  C_11 
REMARK    4  A    between atoms: C_14  and  C_15 
REMARK       I    between atoms: C_15  and  N_16 
REMARK    5  A    between atoms: N_16  and  C_17 
REMARK    6  A    between atoms: C_17  and  C_18 
REMARK    7  A    between atoms: C_18  and  N_19 
ROOT
HETATM    1  C   UNL     1       4.726  32.944  59.347  1.00  0.00     0.191 C 
HETATM    2  C   UNL     1       6.123  32.640  58.803  1.00  0.00     0.048 C 
HETATM    3  C   UNL     1       6.334  31.200  58.398  1.00  0.00     0.098 C 
HETATM    4  N   UNL     1       5.257  30.794  57.486  1.00  0.00    -0.283 NA
HETATM    5  C   UNL     1       3.923  30.819  58.080  1.00  0.00     0.098 C 
HETATM    6  C   UNL     1       3.600  32.241  58.562  1.00  0.00     0.048 C 
ENDROOT
BRANCH   4   7
HETATM    7  C   UNL     1       5.650  29.652  56.760  1.00  0.00     0.010 A 
HETATM    8  C   UNL     1       5.215  29.360  55.459  1.00  0.00     0.024 A 
HETATM    9  C   UNL     1       5.462  28.103  54.882  1.00  0.00     0.019 A 
HETATM   10  C   UNL     1       6.164  27.134  55.605  1.00  0.00     0.032 A 
HETATM   11  C   UNL     1       6.679  27.438  56.862  1.00  0.00     0.019 A 
HETATM   12  C   UNL     1       6.438  28.692  57.420  1.00  0.00     0.024 A 
BRANCH  10  13
HETATM   13  C   UNL     1       6.223  25.727  55.156  1.00  0.00     0.251 C 
HETATM   14  N   UNL     1       6.687  25.475  53.890  1.00  0.00    -0.355 N 
HETATM   15  H   UNL     1       6.979  26.275  53.333  1.00  0.00     0.162 HD
HETATM   16  O   UNL     1       5.845  24.840  55.917  1.00  0.00    -0.268 OA
BRANCH  14  17
HETATM   17  C   UNL     1       6.540  24.202  53.182  1.00  0.00     0.150 C 
BRANCH  17  18
HETATM   18  C   UNL     1       7.808  23.334  52.979  1.00  0.00     0.254 C 
BRANCH  18  19
HETATM   19  N   UNL     1       7.989  22.271  54.034  1.00  0.00    -0.066 N 
HETATM   20  H   UNL     1       7.022  21.986  54.300  1.00  0.00     0.280 HD
HETATM   21  C   UNL     1       8.688  21.003  53.582  1.00  0.00     0.261 C 
HETATM   22  C   UNL     1       8.690  19.984  54.728  1.00  0.00     0.195 C 
HETATM   23  O   UNL     1       9.320  20.524  55.894  1.00  0.00    -0.388 OA
HETATM   24  C   UNL     1       8.633  21.687  56.372  1.00  0.00     0.195 C 
HETATM   25  C   UNL     1       8.623  22.795  55.311  1.00  0.00     0.261 C 
ENDBRANCH  18  19
ENDBRANCH  17  18
ENDBRANCH  14  17
ENDBRANCH  10  13
ENDBRANCH   4   7
BRANCH   1  26
HETATM   26  N   UNL     1       4.572  32.780  60.890  1.00  0.00    -0.056 N 
HETATM   27  C   UNL     1       4.060  34.059  61.606  1.00  0.00     0.257 C 
HETATM   28  C   UNL     1       3.762  33.755  63.079  1.00  0.00     0.041 C 
HETATM   29  C   UNL     1       4.974  33.167  63.787  1.00  0.00     0.004 C 
HETATM   30  C   UNL     1       5.440  31.914  63.066  1.00  0.00     0.028 C 
HETATM   31  C   UNL     1       5.764  32.193  61.606  1.00  0.00     0.236 C 
HETATM   32  H   UNL     1       3.810  32.101  60.992  1.00  0.00     0.281 HD
BRANCH  27  33
HETATM   33  C   UNL     1       2.938  34.783  60.903  1.00  0.00     0.136 A 
HETATM   34  N   UNL     1       2.991  35.967  60.198  1.00  0.00    -0.346 N 
HETATM   35  C   UNL     1       4.116  36.839  59.964  1.00  0.00     0.157 C 
HETATM   36  C   UNL     1       1.732  36.226  59.726  1.00  0.00     0.111 A 
HETATM   37  C   UNL     1       0.946  35.199  60.180  1.00  0.00     0.136 A 
HETATM   38  N   UNL     1       1.694  34.333  60.925  1.00  0.00    -0.244 NA
ENDBRANCH  27  33
ENDBRANCH   1  26
TORSDOF 7
ENDMDL
MODEL 9
REMARK VINA RESULT:      -8.2      4.041     12.182
REMARK  7 active torsions:
REMARK  status: ('A' for Active; 'I' for Inactive)
REMARK    1  A    between atoms: C_3  and  C_4 
REMARK    2  A    between atoms: N_5  and  C_7 
REMARK    3  A    between atoms: N_10  and  C_11 
REMARK    4  A    between atoms: C_14  and  C_15 
REMARK       I    between atoms: C_15  and  N_16 
REMARK    5  A    between atoms: N_16  and  C_17 
REMARK    6  A    between atoms: C_17  and  C_18 
REMARK    7  A    between atoms: C_18  and  N_19 
ROOT
HETATM    1  C   UNL     1       4.801  32.847  60.012  1.00  0.00     0.191 C 
HETATM    2  C   UNL     1       3.711  31.912  59.484  1.00  0.00     0.048 C 
HETATM    3  C   UNL     1       4.020  31.289  58.143  1.00  0.00     0.098 C 
HETATM    4  N   UNL     1       5.345  30.658  58.200  1.00  0.00    -0.283 NA
HETATM    5  C   UNL     1       6.446  31.588  58.438  1.00  0.00     0.098 C 
HETATM    6  C   UNL     1       6.229  32.313  59.774  1.00  0.00     0.048 C 
ENDROOT
BRANCH   4   7
HETATM    7  C   UNL     1       5.472  29.716  57.160  1.00  0.00     0.010 A 
HETATM    8  C   UNL     1       4.386  29.147  56.480  1.00  0.00     0.024 A 
HETATM    9  C   UNL     1       4.569  28.055  55.615  1.00  0.00     0.019 A 
HETATM   10  C   UNL     1       5.853  27.535  55.416  1.00  0.00     0.032 A 
HETATM   11  C   UNL     1       6.952  28.145  56.015  1.00  0.00     0.019 A 
HETATM   12  C   UNL     1       6.759  29.235  56.861  1.00  0.00     0.024 A 
BRANCH  10  13
HETATM   13  C   UNL     1       6.066  26.242  54.734  1.00  0.00     0.251 C 
HETATM   14  N   UNL     1       6.646  26.260  53.490  1.00  0.00    -0.355 N 
HETATM   15  H   UNL     1       6.910  27.166  53.112  1.00  0.00     0.162 HD
HETATM   16  O   UNL     1       5.707  25.207  55.288  1.00  0.00    -0.268 OA
BRANCH  14  17
HETATM   17  C   UNL     1       6.663  25.131  52.558  1.00  0.00     0.150 C 
BRANCH  17  18
HETATM   18  C   UNL     1       7.887  24.181  52.590  1.00  0.00     0.254 C 
BRANCH  18  19
HETATM   19  N   UNL     1       7.779  23.087  53.624  1.00  0.00    -0.066 N 
HETATM   20  H   UNL     1       6.778  23.088  53.915  1.00  0.00     0.280 HD
HETATM   21  C   UNL     1       8.070  21.683  53.132  1.00  0.00     0.261 C 
HETATM   22  C   UNL     1       7.805  20.680  54.263  1.00  0.00     0.195 C 
HETATM   23  O   UNL     1       8.593  20.988  55.417  1.00  0.00    -0.388 OA
HETATM   24  C   UNL     1       8.284  22.289  55.932  1.00  0.00     0.195 C 
HETATM   25  C   UNL     1       8.569  23.377  54.889  1.00  0.00     0.261 C 
ENDBRANCH  18  19
ENDBRANCH  17  18
ENDBRANCH  14  17
ENDBRANCH  10  13
ENDBRANCH   4   7
BRANCH   1  26
HETATM   26  N   UNL     1       4.645  34.341  59.595  1.00  0.00    -0.056 N 
HETATM   27  C   UNL     1       3.978  35.226  60.681  1.00  0.00     0.257 C 
HETATM   28  C   UNL     1       4.033  36.702  60.267  1.00  0.00     0.041 C 
HETATM   29  C   UNL     1       3.400  36.924  58.901  1.00  0.00     0.004 C 
HETATM   30  C   UNL     1       4.084  36.052  57.863  1.00  0.00     0.028 C 
HETATM   31  C   UNL     1       4.024  34.579  58.240  1.00  0.00     0.236 C 
HETATM   32  H   UNL     1       5.610  34.684  59.535  1.00  0.00     0.281 HD
BRANCH  27  33
HETATM   33  C   UNL     1       4.455  34.981  62.092  1.00  0.00     0.136 A 
HETATM   34  N   UNL     1       3.753  34.450  63.154  1.00  0.00    -0.346 N 
HETATM   35  C   UNL     1       2.379  34.013  63.211  1.00  0.00     0.157 C 
HETATM   36  C   UNL     1       4.600  34.403  64.229  1.00  0.00     0.111 A 
HETATM   37  C   UNL     1       5.787  34.930  63.791  1.00  0.00     0.136 A 
HETATM   38  N   UNL     1       5.676  35.306  62.483  1.00  0.00    -0.244 NA
ENDBRANCH  27  33
ENDBRANCH   1  26
TORSDOF 7
ENDMDL
MODEL 10
REMARK VINA RESULT:      -8.0      3.977     12.526
REMARK  7 active torsions:
REMARK  status: ('A' for Active; 'I' for Inactive)
REMARK    1  A    between atoms: C_3  and  C_4 
REMARK    2  A    between atoms: N_5  and  C_7 
REMARK    3  A    between atoms: N_10  and  C_11 
REMARK    4  A    between atoms: C_14  and  C_15 
REMARK       I    between atoms: C_15  and  N_16 
REMARK    5  A    between atoms: N_16  and  C_17 
REMARK    6  A    between atoms: C_17  and  C_18 
REMARK    7  A    between atoms: C_18  and  N_19 
ROOT
HETATM    1  C   UNL     1       4.212  33.987  61.755  1.00  0.00     0.191 C 
HETATM    2  C   UNL     1       3.084  33.747  60.751  1.00  0.00     0.048 C 
HETATM    3  C   UNL     1       3.547  33.254  59.400  1.00  0.00     0.098 C 
HETATM    4  N   UNL     1       4.415  32.084  59.587  1.00  0.00    -0.283 NA
HETATM    5  C   UNL     1       5.646  32.358  60.322  1.00  0.00     0.098 C 
HETATM    6  C   UNL     1       5.304  32.897  61.718  1.00  0.00     0.048 C 
ENDROOT
BRANCH   4   7
HETATM    7  C   UNL     1       4.496  31.352  58.385  1.00  0.00     0.010 A 
HETATM    8  C   UNL     1       3.390  31.033  57.583  1.00  0.00     0.024 A 
HETATM    9  C   UNL     1       3.508  30.116  56.526  1.00  0.00     0.019 A 
HETATM   10  C   UNL     1       4.745  29.522  56.256  1.00  0.00     0.032 A 
HETATM   11  C   UNL     1       5.871  29.895  56.986  1.00  0.00     0.019 A 
HETATM   12  C   UNL     1       5.745  30.815  58.025  1.00  0.00     0.024 A 
BRANCH  10  13
HETATM   13  C   UNL     1       4.867  28.370  55.339  1.00  0.00     0.251 C 
HETATM   14  N   UNL     1       5.341  27.188  55.850  1.00  0.00    -0.355 N 
HETATM   15  H   UNL     1       5.571  27.168  56.841  1.00  0.00     0.162 HD
HETATM   16  O   UNL     1       4.558  28.511  54.159  1.00  0.00    -0.268 OA
BRANCH  14  17
HETATM   17  C   UNL     1       5.801  26.054  55.047  1.00  0.00     0.150 C 
BRANCH  17  18
HETATM   18  C   UNL     1       7.312  25.712  55.072  1.00  0.00     0.254 C 
BRANCH  18  19
HETATM   19  N   UNL     1       7.614  24.276  54.718  1.00  0.00    -0.066 N 
HETATM   20  H   UNL     1       6.759  23.745  54.990  1.00  0.00     0.280 HD
HETATM   21  C   UNL     1       7.831  23.991  53.244  1.00  0.00     0.261 C 
HETATM   22  C   UNL     1       8.009  22.481  53.037  1.00  0.00     0.195 C 
HETATM   23  O   UNL     1       9.099  21.980  53.818  1.00  0.00    -0.388 OA
HETATM   24  C   UNL     1       8.879  22.186  55.219  1.00  0.00     0.195 C 
HETATM   25  C   UNL     1       8.742  23.679  55.542  1.00  0.00     0.261 C 
ENDBRANCH  18  19
ENDBRANCH  17  18
ENDBRANCH  14  17
ENDBRANCH  10  13
ENDBRANCH   4   7
BRANCH   1  26
HETATM   26  N   UNL     1       4.806  35.429  61.745  1.00  0.00    -0.056 N 
HETATM   27  C   UNL     1       4.904  36.074  63.153  1.00  0.00     0.257 C 
HETATM   28  C   UNL     1       5.665  37.404  63.072  1.00  0.00     0.041 C 
HETATM   29  C   UNL     1       5.028  38.353  62.067  1.00  0.00     0.004 C 
HETATM   30  C   UNL     1       4.959  37.693  60.700  1.00  0.00     0.028 C 
HETATM   31  C   UNL     1       4.190  36.381  60.749  1.00  0.00     0.236 C 
HETATM   32  H   UNL     1       5.780  35.294  61.451  1.00  0.00     0.281 HD
BRANCH  27  33
HETATM   33  C   UNL     1       5.406  35.162  64.245  1.00  0.00     0.136 A 
HETATM   34  N   UNL     1       4.733  34.708  65.360  1.00  0.00    -0.346 N 
HETATM   35  C   UNL     1       3.388  35.000  65.794  1.00  0.00     0.157 C 
HETATM   36  C   UNL     1       5.584  33.892  66.055  1.00  0.00     0.111 A 
HETATM   37  C   UNL     1       6.759  33.893  65.350  1.00  0.00     0.136 A 
HETATM   38  N   UNL     1       6.645  34.699  64.254  1.00  0.00    -0.244 NA
ENDBRANCH  27  33
ENDBRANCH   1  26
TORSDOF 7
ENDMDL
