MODEL 1
REMARK VINA RESULT:      -8.9      0.000      0.000
REMARK  7 active torsions:
REMARK  status: ('A' for Active; 'I' for Inactive)
REMARK    1  A    between atoms: C_2  and  C_3 
REMARK    2  A    between atoms: C_6  and  C_7 
REMARK    3  A    between atoms: C_7  and  N_8 
REMARK    4  A    between atoms: C_7  and  C_25 
REMARK    5  A    between atoms: N_8  and  C_11 
REMARK    6  A    between atoms: C_11  and  C_12 
REMARK       I    between atoms: C_12  and  N_13 
REMARK    7  A    between atoms: N_13  and  C_14 
ROOT
HETATM    1  N   UNL     1       6.867  28.850  55.017  1.00  0.00    -0.054 N 
HETATM    2  H   UNL     1       7.542  29.569  54.709  1.00  0.00     0.278 HD
HETATM    3  H   UNL     1       6.908  28.163  54.258  1.00  0.00     0.278 HD
ENDROOT
BRANCH   1   4
HETATM    4  C   UNL     1       7.364  28.256  56.290  1.00  0.00     0.259 C 
BRANCH   4   5
HETATM    5  C   UNL     1       7.704  26.777  56.192  1.00  0.00    -0.023 A 
HETATM    6  C   UNL     1       8.278  26.055  57.254  1.00  0.00     0.010 A 
HETATM    7  C   UNL     1       8.520  24.683  57.135  1.00  0.00     0.007 A 
HETATM    8  C   UNL     1       8.183  23.999  55.963  1.00  0.00    -0.059 A 
HETATM    9  C   UNL     1       7.603  24.707  54.907  1.00  0.00     0.007 A 
HETATM   10  C   UNL     1       7.367  26.079  55.019  1.00  0.00     0.010 A 
BRANCH   8  11
HETATM   11  C   UNL     1       8.385  22.506  55.864  1.00  0.00     0.034 C 
HETATM   12  C   UNL     1       7.913  21.964  54.523  1.00  0.00     0.010 C 
ENDBRANCH   8  11
ENDBRANCH   4   5
BRANCH   4  13
HETATM   13  C   UNL     1       8.512  29.092  56.807  1.00  0.00     0.017 A 
HETATM   14  S   UNL     1       8.329  29.908  58.312  1.00  0.00    -0.104 SA
HETATM   15  C   UNL     1       9.890  30.588  58.215  1.00  0.00     0.050 A 
HETATM   16  C   UNL     1      10.542  30.219  57.061  1.00  0.00     0.008 A 
HETATM   17  C   UNL     1       9.748  29.361  56.247  1.00  0.00     0.017 A 
ENDBRANCH   4  13
ENDBRANCH   1   4
BRANCH   1  18
HETATM   18  C   UNL     1       5.514  29.521  55.045  1.00  0.00     0.336 C 
BRANCH  18  19
HETATM   19  C   UNL     1       4.447  28.458  55.265  1.00  0.00     0.248 C 
HETATM   20  N   UNL     1       3.979  27.648  54.283  1.00  0.00    -0.326 N 
HETATM   21  H   UNL     1       3.215  27.068  54.627  1.00  0.00     0.169 HD
HETATM   22  O   UNL     1       3.967  28.364  56.403  1.00  0.00    -0.271 OA
BRANCH  20  23
HETATM   23  C   UNL     1       4.317  27.452  52.931  1.00  0.00     0.037 A 
HETATM   24  C   UNL     1       4.171  28.401  51.913  1.00  0.00     0.061 A 
HETATM   25  C   UNL     1       4.566  28.028  50.645  1.00  0.00     0.065 A 
HETATM   26  C   UNL     1       5.097  26.773  50.358  1.00  0.00     0.063 A 
HETATM   27  N   UNL     1       4.540  28.757  49.461  1.00  0.00    -0.306 N 
HETATM   28  N   UNL     1       5.392  26.728  49.002  1.00  0.00    -0.307 N 
HETATM   29  C   UNL     1       5.266  25.822  51.327  1.00  0.00     0.034 A 
HETATM   30  C   UNL     1       5.053  27.960  48.426  1.00  0.00     0.325 A 
HETATM   31  H   UNL     1       5.793  25.962  48.483  1.00  0.00     0.170 HD
HETATM   32  O   UNL     1       5.175  28.282  47.260  1.00  0.00    -0.247 OA
HETATM   33  C   UNL     1       4.873  26.176  52.624  1.00  0.00     0.032 A 
HETATM   34  H   UNL     1       4.225  29.702  49.309  1.00  0.00     0.170 HD
ENDBRANCH  20  23
ENDBRANCH  18  19
ENDBRANCH   1  18
TORSDOF 7
ENDMDL
MODEL 2
REMARK VINA RESULT:      -8.8      1.561      2.396
REMARK  7 active torsions:
REMARK  status: ('A' for Active; 'I' for Inactive)
REMARK    1  A    between atoms: C_2  and  C_3 
REMARK    2  A    between atoms: C_6  and  C_7 
REMARK    3  A    between atoms: C_7  and  N_8 
REMARK    4  A    between atoms: C_7  and  C_25 
REMARK    5  A    between atoms: N_8  and  C_11 
REMARK    6  A    between atoms: C_11  and  C_12 
REMARK       I    between atoms: C_12  and  N_13 
REMARK    7  A    between atoms: N_13  and  C_14 
ROOT
HETATM    1  N   UNL     1       5.275  27.197  54.605  1.00  0.00    -0.054 N 
HETATM    2  H   UNL     1       5.794  27.679  53.852  1.00  0.00     0.278 HD
HETATM    3  H   UNL     1       4.751  26.480  54.093  1.00  0.00     0.278 HD
ENDROOT
BRANCH   1   4
HETATM    4  C   UNL     1       6.263  26.566  55.525  1.00  0.00     0.259 C 
BRANCH   4   5
HETATM    5  C   UNL     1       6.871  25.277  54.993  1.00  0.00    -0.023 A 
HETATM    6  C   UNL     1       6.623  24.797  53.695  1.00  0.00     0.010 A 
HETATM    7  C   UNL     1       7.250  23.637  53.232  1.00  0.00     0.007 A 
HETATM    8  C   UNL     1       8.146  22.937  54.047  1.00  0.00    -0.059 A 
HETATM    9  C   UNL     1       8.406  23.414  55.334  1.00  0.00     0.007 A 
HETATM   10  C   UNL     1       7.776  24.569  55.803  1.00  0.00     0.010 A 
BRANCH   8  11
HETATM   11  C   UNL     1       8.871  21.722  53.519  1.00  0.00     0.034 C 
HETATM   12  C   UNL     1       7.899  20.636  53.081  1.00  0.00     0.010 C 
ENDBRANCH   8  11
ENDBRANCH   4   5
BRANCH   4  13
HETATM   13  C   UNL     1       7.303  27.594  55.909  1.00  0.00     0.017 A 
HETATM   14  S   UNL     1       7.553  27.935  57.578  1.00  0.00    -0.104 SA
HETATM   15  C   UNL     1       8.753  29.098  57.234  1.00  0.00     0.050 A 
HETATM   16  C   UNL     1       8.959  29.242  55.882  1.00  0.00     0.008 A 
HETATM   17  C   UNL     1       8.122  28.379  55.116  1.00  0.00     0.017 A 
ENDBRANCH   4  13
ENDBRANCH   1   4
BRANCH   1  18
HETATM   18  C   UNL     1       4.331  28.219  55.193  1.00  0.00     0.336 C 
BRANCH  18  19
HETATM   19  C   UNL     1       4.787  29.606  54.762  1.00  0.00     0.248 C 
HETATM   20  N   UNL     1       4.875  30.001  53.469  1.00  0.00    -0.326 N 
HETATM   21  H   UNL     1       5.276  30.935  53.402  1.00  0.00     0.169 HD
HETATM   22  O   UNL     1       5.124  30.394  55.657  1.00  0.00    -0.271 OA
BRANCH  20  23
HETATM   23  C   UNL     1       4.540  29.406  52.237  1.00  0.00     0.037 A 
HETATM   24  C   UNL     1       5.430  28.729  51.396  1.00  0.00     0.061 A 
HETATM   25  C   UNL     1       4.914  28.202  50.229  1.00  0.00     0.065 A 
HETATM   26  C   UNL     1       3.572  28.316  49.879  1.00  0.00     0.063 A 
HETATM   27  N   UNL     1       5.556  27.488  49.223  1.00  0.00    -0.306 N 
HETATM   28  N   UNL     1       3.388  27.678  48.659  1.00  0.00    -0.307 N 
HETATM   29  C   UNL     1       2.668  28.961  50.679  1.00  0.00     0.034 A 
HETATM   30  C   UNL     1       4.616  27.153  48.236  1.00  0.00     0.325 A 
HETATM   31  H   UNL     1       2.530  27.579  48.138  1.00  0.00     0.170 HD
HETATM   32  O   UNL     1       4.835  26.529  47.216  1.00  0.00    -0.247 OA
HETATM   33  C   UNL     1       3.167  29.504  51.871  1.00  0.00     0.032 A 
HETATM   34  H   UNL     1       6.525  27.220  49.160  1.00  0.00     0.170 HD
ENDBRANCH  20  23
ENDBRANCH  18  19
ENDBRANCH   1  18
TORSDOF 7
ENDMDL
MODEL 3
REMARK VINA RESULT:      -8.7      3.112      6.797
REMARK  7 active torsions:
REMARK  status: ('A' for Active; 'I' for Inactive)
REMARK    1  A    between atoms: C_2  and  C_3 
REMARK    2  A    between atoms: C_6  and  C_7 
REMARK    3  A    between atoms: C_7  and  N_8 
REMARK    4  A    between atoms: C_7  and  C_25 
REMARK    5  A    between atoms: N_8  and  C_11 
REMARK    6  A    between atoms: C_11  and  C_12 
REMARK       I    between atoms: C_12  and  N_13 
REMARK    7  A    between atoms: N_13  and  C_14 
ROOT
HETATM    1  N   UNL     1       4.715  26.697  54.199  1.00  0.00    -0.054 N 
HETATM    2  H   UNL     1       3.926  27.084  53.653  1.00  0.00     0.278 HD
HETATM    3  H   UNL     1       4.376  25.764  54.452  1.00  0.00     0.278 HD
ENDROOT
BRANCH   1   4
HETATM    4  C   UNL     1       5.900  26.598  53.301  1.00  0.00     0.259 C 
BRANCH   4   5
HETATM    5  C   UNL     1       6.697  25.312  53.466  1.00  0.00    -0.023 A 
HETATM    6  C   UNL     1       6.470  24.406  54.517  1.00  0.00     0.010 A 
HETATM    7  C   UNL     1       7.189  23.209  54.594  1.00  0.00     0.007 A 
HETATM    8  C   UNL     1       8.139  22.885  53.620  1.00  0.00    -0.059 A 
HETATM    9  C   UNL     1       8.363  23.776  52.567  1.00  0.00     0.007 A 
HETATM   10  C   UNL     1       7.651  24.976  52.491  1.00  0.00     0.010 A 
BRANCH   8  11
HETATM   11  C   UNL     1       8.866  21.563  53.671  1.00  0.00     0.034 C 
HETATM   12  C   UNL     1       8.107  20.476  52.924  1.00  0.00     0.010 C 
ENDBRANCH   8  11
ENDBRANCH   4   5
BRANCH   4  13
HETATM   13  C   UNL     1       5.460  26.840  51.876  1.00  0.00     0.017 A 
HETATM   14  S   UNL     1       5.431  28.456  51.282  1.00  0.00    -0.104 SA
HETATM   15  C   UNL     1       4.863  27.959  49.752  1.00  0.00     0.050 A 
HETATM   16  C   UNL     1       4.683  26.597  49.686  1.00  0.00     0.008 A 
HETATM   17  C   UNL     1       5.023  25.951  50.910  1.00  0.00     0.017 A 
ENDBRANCH   4  13
ENDBRANCH   1   4
BRANCH   1  18
HETATM   18  C   UNL     1       4.845  27.562  55.430  1.00  0.00     0.336 C 
BRANCH  18  19
HETATM   19  C   UNL     1       5.148  26.668  56.623  1.00  0.00     0.248 C 
HETATM   20  N   UNL     1       6.242  26.810  57.412  1.00  0.00    -0.326 N 
HETATM   21  H   UNL     1       6.292  26.061  58.100  1.00  0.00     0.169 HD
HETATM   22  O   UNL     1       4.359  25.741  56.852  1.00  0.00    -0.271 OA
BRANCH  20  23
HETATM   23  C   UNL     1       7.289  27.750  57.473  1.00  0.00     0.037 A 
HETATM   24  C   UNL     1       7.278  28.928  58.227  1.00  0.00     0.061 A 
HETATM   25  C   UNL     1       8.404  29.723  58.167  1.00  0.00     0.065 A 
HETATM   26  C   UNL     1       9.521  29.393  57.405  1.00  0.00     0.063 A 
HETATM   27  N   UNL     1       8.668  30.929  58.807  1.00  0.00    -0.306 N 
HETATM   28  N   UNL     1      10.469  30.395  57.571  1.00  0.00    -0.307 N 
HETATM   29  C   UNL     1       9.575  28.245  56.662  1.00  0.00     0.034 A 
HETATM   30  C   UNL     1       9.954  31.362  58.445  1.00  0.00     0.325 A 
HETATM   31  H   UNL     1      11.387  30.450  57.157  1.00  0.00     0.170 HD
HETATM   32  O   UNL     1      10.505  32.378  58.821  1.00  0.00    -0.247 OA
HETATM   33  C   UNL     1       8.444  27.420  56.707  1.00  0.00     0.032 A 
HETATM   34  H   UNL     1       8.082  31.451  59.439  1.00  0.00     0.170 HD
ENDBRANCH  20  23
ENDBRANCH  18  19
ENDBRANCH   1  18
TORSDOF 7
ENDMDL
MODEL 4
REMARK VINA RESULT:      -8.7      2.838      4.040
REMARK  7 active torsions:
REMARK  status: ('A' for Active; 'I' for Inactive)
REMARK    1  A    between atoms: C_2  and  C_3 
REMARK    2  A    between atoms: C_6  and  C_7 
REMARK    3  A    between atoms: C_7  and  N_8 
REMARK    4  A    between atoms: C_7  and  C_25 
REMARK    5  A    between atoms: N_8  and  C_11 
REMARK    6  A    between atoms: C_11  and  C_12 
REMARK       I    between atoms: C_12  and  N_13 
REMARK    7  A    between atoms: N_13  and  C_14 
ROOT
HETATM    1  N   UNL     1       6.189  26.257  52.311  1.00  0.00    -0.054 N 
HETATM    2  H   UNL     1       6.910  26.997  52.278  1.00  0.00     0.278 HD
HETATM    3  H   UNL     1       6.586  25.529  51.709  1.00  0.00     0.278 HD
ENDROOT
BRANCH   1   4
HETATM    4  C   UNL     1       6.080  25.772  53.716  1.00  0.00     0.259 C 
BRANCH   4   5
HETATM    5  C   UNL     1       6.822  24.472  53.982  1.00  0.00    -0.023 A 
HETATM    6  C   UNL     1       6.957  23.922  55.270  1.00  0.00     0.010 A 
HETATM    7  C   UNL     1       7.599  22.694  55.457  1.00  0.00     0.007 A 
HETATM    8  C   UNL     1       8.107  21.982  54.366  1.00  0.00    -0.059 A 
HETATM    9  C   UNL     1       7.968  22.517  53.082  1.00  0.00     0.007 A 
HETATM   10  C   UNL     1       7.333  23.747  52.892  1.00  0.00     0.010 A 
BRANCH   8  11
HETATM   11  C   UNL     1       8.740  20.626  54.565  1.00  0.00     0.034 C 
HETATM   12  C   UNL     1       8.972  20.326  56.039  1.00  0.00     0.010 C 
ENDBRANCH   8  11
ENDBRANCH   4   5
BRANCH   4  13
HETATM   13  C   UNL     1       6.487  26.886  54.653  1.00  0.00     0.017 A 
HETATM   14  S   UNL     1       5.411  27.338  55.919  1.00  0.00    -0.104 SA
HETATM   15  C   UNL     1       6.467  28.555  56.479  1.00  0.00     0.050 A 
HETATM   16  C   UNL     1       7.611  28.634  55.721  1.00  0.00     0.008 A 
HETATM   17  C   UNL     1       7.624  27.676  54.666  1.00  0.00     0.017 A 
ENDBRANCH   4  13
ENDBRANCH   1   4
BRANCH   1  18
HETATM   18  C   UNL     1       4.949  26.844  51.680  1.00  0.00     0.336 C 
BRANCH  18  19
HETATM   19  C   UNL     1       5.305  28.191  51.069  1.00  0.00     0.248 C 
HETATM   20  N   UNL     1       4.819  28.632  49.883  1.00  0.00    -0.326 N 
HETATM   21  H   UNL     1       5.247  29.520  49.624  1.00  0.00     0.169 HD
HETATM   22  O   UNL     1       6.113  28.898  51.688  1.00  0.00    -0.271 OA
BRANCH  20  23
HETATM   23  C   UNL     1       3.877  28.131  48.963  1.00  0.00     0.037 A 
HETATM   24  C   UNL     1       2.619  28.687  48.710  1.00  0.00     0.061 A 
HETATM   25  C   UNL     1       1.833  28.059  47.764  1.00  0.00     0.065 A 
HETATM   26  C   UNL     1       2.248  26.925  47.072  1.00  0.00     0.063 A 
HETATM   27  N   UNL     1       0.560  28.389  47.313  1.00  0.00    -0.306 N 
HETATM   28  N   UNL     1       1.232  26.555  46.201  1.00  0.00    -0.307 N 
HETATM   29  C   UNL     1       3.475  26.357  47.284  1.00  0.00     0.034 A 
HETATM   30  C   UNL     1       0.170  27.459  46.336  1.00  0.00     0.325 A 
HETATM   31  H   UNL     1       1.224  25.779  45.556  1.00  0.00     0.170 HD
HETATM   32  O   UNL     1      -0.884  27.449  45.732  1.00  0.00    -0.247 OA
HETATM   33  C   UNL     1       4.292  26.977  48.239  1.00  0.00     0.032 A 
HETATM   34  H   UNL     1      -0.031  29.155  47.595  1.00  0.00     0.170 HD
ENDBRANCH  20  23
ENDBRANCH  18  19
ENDBRANCH   1  18
TORSDOF 7
ENDMDL
MODEL 5
REMARK VINA RESULT:      -8.4      3.427      6.709
REMARK  7 active torsions:
REMARK  status: ('A' for Active; 'I' for Inactive)
REMARK    1  A    between atoms: C_2  and  C_3 
REMARK    2  A    between atoms: C_6  and  C_7 
REMARK    3  A    between atoms: C_7  and  N_8 
REMARK    4  A    between atoms: C_7  and  C_25 
REMARK    5  A    between atoms: N_8  and  C_11 
REMARK    6  A    between atoms: C_11  and  C_12 
REMARK       I    between atoms: C_12  and  N_13 
REMARK    7  A    between atoms: N_13  and  C_14 
ROOT
HETATM    1  N   UNL     1       6.830  27.007  54.746  1.00  0.00    -0.054 N 
HETATM    2  H   UNL     1       6.009  27.583  54.494  1.00  0.00     0.278 HD
HETATM    3  H   UNL     1       6.447  26.365  55.447  1.00  0.00     0.278 HD
ENDROOT
BRANCH   1   4
HETATM    4  C   UNL     1       7.266  26.259  53.534  1.00  0.00     0.259 C 
BRANCH   4   5
HETATM    5  C   UNL     1       7.441  24.764  53.757  1.00  0.00    -0.023 A 
HETATM    6  C   UNL     1       8.002  23.910  52.791  1.00  0.00     0.010 A 
HETATM    7  C   UNL     1       8.195  22.553  53.065  1.00  0.00     0.007 A 
HETATM    8  C   UNL     1       7.846  22.020  54.311  1.00  0.00    -0.059 A 
HETATM    9  C   UNL     1       7.297  22.865  55.279  1.00  0.00     0.007 A 
HETATM   10  C   UNL     1       7.097  24.220  55.007  1.00  0.00     0.010 A 
BRANCH   8  11
HETATM   11  C   UNL     1       8.117  20.569  54.625  1.00  0.00     0.034 C 
HETATM   12  C   UNL     1       7.975  20.281  56.112  1.00  0.00     0.010 C 
ENDBRANCH   8  11
ENDBRANCH   4   5
BRANCH   4  13
HETATM   13  C   UNL     1       6.327  26.579  52.394  1.00  0.00     0.017 A 
HETATM   14  S   UNL     1       5.713  28.181  52.252  1.00  0.00    -0.104 SA
HETATM   15  C   UNL     1       4.800  27.785  50.866  1.00  0.00     0.050 A 
HETATM   16  C   UNL     1       4.942  26.462  50.516  1.00  0.00     0.008 A 
HETATM   17  C   UNL     1       5.818  25.764  51.397  1.00  0.00     0.017 A 
ENDBRANCH   4  13
ENDBRANCH   1   4
BRANCH   1  18
HETATM   18  C   UNL     1       7.828  27.945  55.381  1.00  0.00     0.336 C 
BRANCH  18  19
HETATM   19  C   UNL     1       7.998  27.558  56.843  1.00  0.00     0.248 C 
HETATM   20  N   UNL     1       7.589  28.331  57.879  1.00  0.00    -0.326 N 
HETATM   21  H   UNL     1       7.871  27.922  58.769  1.00  0.00     0.169 HD
HETATM   22  O   UNL     1       8.576  26.488  57.082  1.00  0.00    -0.271 OA
BRANCH  20  23
HETATM   23  C   UNL     1       6.879  29.543  57.976  1.00  0.00     0.037 A 
HETATM   24  C   UNL     1       5.617  29.789  57.425  1.00  0.00     0.061 A 
HETATM   25  C   UNL     1       5.074  31.040  57.632  1.00  0.00     0.065 A 
HETATM   26  C   UNL     1       5.724  32.034  58.357  1.00  0.00     0.063 A 
HETATM   27  N   UNL     1       3.852  31.553  57.210  1.00  0.00    -0.306 N 
HETATM   28  N   UNL     1       4.908  33.158  58.379  1.00  0.00    -0.307 N 
HETATM   29  C   UNL     1       6.955  31.830  58.920  1.00  0.00     0.034 A 
HETATM   30  C   UNL     1       3.733  32.875  57.669  1.00  0.00     0.325 A 
HETATM   31  H   UNL     1       5.089  34.044  58.826  1.00  0.00     0.170 HD
HETATM   32  O   UNL     1       2.792  33.621  57.482  1.00  0.00    -0.247 OA
HETATM   33  C   UNL     1       7.527  30.566  58.726  1.00  0.00     0.032 A 
HETATM   34  H   UNL     1       3.130  31.103  56.671  1.00  0.00     0.170 HD
ENDBRANCH  20  23
ENDBRANCH  18  19
ENDBRANCH   1  18
TORSDOF 7
ENDMDL
MODEL 6
REMARK VINA RESULT:      -8.3      3.529      6.709
REMARK  7 active torsions:
REMARK  status: ('A' for Active; 'I' for Inactive)
REMARK    1  A    between atoms: C_2  and  C_3 
REMARK    2  A    between atoms: C_6  and  C_7 
REMARK    3  A    between atoms: C_7  and  N_8 
REMARK    4  A    between atoms: C_7  and  C_25 
REMARK    5  A    between atoms: N_8  and  C_11 
REMARK    6  A    between atoms: C_11  and  C_12 
REMARK       I    between atoms: C_12  and  N_13 
REMARK    7  A    between atoms: N_13  and  C_14 
ROOT
HETATM    1  N   UNL     1       4.991  27.487  54.755  1.00  0.00    -0.054 N 
HETATM    2  H   UNL     1       5.550  28.008  54.059  1.00  0.00     0.278 HD
HETATM    3  H   UNL     1       4.391  26.900  54.167  1.00  0.00     0.278 HD
ENDROOT
BRANCH   1   4
HETATM    4  C   UNL     1       5.917  26.645  55.564  1.00  0.00     0.259 C 
BRANCH   4   5
HETATM    5  C   UNL     1       6.391  25.387  54.853  1.00  0.00    -0.023 A 
HETATM    6  C   UNL     1       6.510  25.301  53.455  1.00  0.00     0.010 A 
HETATM    7  C   UNL     1       7.006  24.142  52.851  1.00  0.00     0.007 A 
HETATM    8  C   UNL     1       7.405  23.049  53.627  1.00  0.00    -0.059 A 
HETATM    9  C   UNL     1       7.299  23.130  55.018  1.00  0.00     0.007 A 
HETATM   10  C   UNL     1       6.798  24.284  55.625  1.00  0.00     0.010 A 
BRANCH   8  11
HETATM   11  C   UNL     1       8.000  21.824  52.975  1.00  0.00     0.034 C 
HETATM   12  C   UNL     1       8.348  20.756  54.000  1.00  0.00     0.010 C 
ENDBRANCH   8  11
ENDBRANCH   4   5
BRANCH   4  13
HETATM   13  C   UNL     1       7.055  27.505  56.064  1.00  0.00     0.017 A 
HETATM   14  S   UNL     1       7.888  28.510  54.941  1.00  0.00    -0.104 SA
HETATM   15  C   UNL     1       8.944  29.100  56.143  1.00  0.00     0.050 A 
HETATM   16  C   UNL     1       8.686  28.543  57.375  1.00  0.00     0.008 A 
HETATM   17  C   UNL     1       7.600  27.621  57.330  1.00  0.00     0.017 A 
ENDBRANCH   4  13
ENDBRANCH   1   4
BRANCH   1  18
HETATM   18  C   UNL     1       4.163  28.515  55.490  1.00  0.00     0.336 C 
BRANCH  18  19
HETATM   19  C   UNL     1       4.408  29.878  54.860  1.00  0.00     0.248 C 
HETATM   20  N   UNL     1       4.593  31.016  55.574  1.00  0.00    -0.326 N 
HETATM   21  H   UNL     1       4.659  31.823  54.957  1.00  0.00     0.169 HD
HETATM   22  O   UNL     1       4.401  29.939  53.622  1.00  0.00    -0.271 OA
BRANCH  20  23
HETATM   23  C   UNL     1       4.707  31.301  56.948  1.00  0.00     0.037 A 
HETATM   24  C   UNL     1       3.636  31.503  57.825  1.00  0.00     0.061 A 
HETATM   25  C   UNL     1       3.946  31.766  59.144  1.00  0.00     0.065 A 
HETATM   26  C   UNL     1       5.254  31.828  59.614  1.00  0.00     0.063 A 
HETATM   27  N   UNL     1       3.097  31.999  60.221  1.00  0.00    -0.306 N 
HETATM   28  N   UNL     1       5.212  32.103  60.975  1.00  0.00    -0.307 N 
HETATM   29  C   UNL     1       6.328  31.626  58.790  1.00  0.00     0.034 A 
HETATM   30  C   UNL     1       3.872  32.210  61.371  1.00  0.00     0.325 A 
HETATM   31  H   UNL     1       5.990  32.205  61.608  1.00  0.00     0.170 HD
HETATM   32  O   UNL     1       3.455  32.442  62.489  1.00  0.00    -0.247 OA
HETATM   33  C   UNL     1       6.041  31.357  57.446  1.00  0.00     0.032 A 
HETATM   34  H   UNL     1       2.090  32.019  60.238  1.00  0.00     0.170 HD
ENDBRANCH  20  23
ENDBRANCH  18  19
ENDBRANCH   1  18
TORSDOF 7
ENDMDL
MODEL 7
REMARK VINA RESULT:      -8.2      4.157      8.133
REMARK  7 active torsions:
REMARK  status: ('A' for Active; 'I' for Inactive)
REMARK    1  A    between atoms: C_2  and  C_3 
REMARK    2  A    between atoms: C_6  and  C_7 
REMARK    3  A    between atoms: C_7  and  N_8 
REMARK    4  A    between atoms: C_7  and  C_25 
REMARK    5  A    between atoms: N_8  and  C_11 
REMARK    6  A    between atoms: C_11  and  C_12 
REMARK       I    between atoms: C_12  and  N_13 
REMARK    7  A    between atoms: N_13  and  C_14 
ROOT
HETATM    1  N   UNL     1       7.638  28.994  57.262  1.00  0.00    -0.054 N 
HETATM    2  H   UNL     1       7.466  29.966  57.570  1.00  0.00     0.278 HD
HETATM    3  H   UNL     1       7.125  28.444  57.957  1.00  0.00     0.278 HD
ENDROOT
BRANCH   1   4
HETATM    4  C   UNL     1       7.039  28.820  55.909  1.00  0.00     0.259 C 
BRANCH   4   5
HETATM    5  C   UNL     1       7.043  27.383  55.410  1.00  0.00    -0.023 A 
HETATM    6  C   UNL     1       7.521  27.021  54.137  1.00  0.00     0.010 A 
HETATM    7  C   UNL     1       7.558  25.679  53.745  1.00  0.00     0.007 A 
HETATM    8  C   UNL     1       7.133  24.670  54.616  1.00  0.00    -0.059 A 
HETATM    9  C   UNL     1       6.667  25.022  55.885  1.00  0.00     0.007 A 
HETATM   10  C   UNL     1       6.622  26.361  56.278  1.00  0.00     0.010 A 
BRANCH   8  11
HETATM   11  C   UNL     1       7.236  23.219  54.213  1.00  0.00     0.034 C 
HETATM   12  C   UNL     1       7.986  23.053  52.899  1.00  0.00     0.010 C 
ENDBRANCH   8  11
ENDBRANCH   4   5
BRANCH   4  13
HETATM   13  C   UNL     1       5.662  29.444  55.897  1.00  0.00     0.017 A 
HETATM   14  S   UNL     1       4.958  29.925  57.392  1.00  0.00    -0.104 SA
HETATM   15  C   UNL     1       3.534  30.471  56.628  1.00  0.00     0.050 A 
HETATM   16  C   UNL     1       3.577  30.287  55.266  1.00  0.00     0.008 A 
HETATM   17  C   UNL     1       4.801  29.691  54.842  1.00  0.00     0.017 A 
ENDBRANCH   4  13
ENDBRANCH   1   4
BRANCH   1  18
HETATM   18  C   UNL     1       9.124  28.762  57.399  1.00  0.00     0.336 C 
BRANCH  18  19
HETATM   19  C   UNL     1       9.838  30.102  57.296  1.00  0.00     0.248 C 
HETATM   20  N   UNL     1       9.670  31.115  58.182  1.00  0.00    -0.326 N 
HETATM   21  H   UNL     1      10.177  31.946  57.882  1.00  0.00     0.169 HD
HETATM   22  O   UNL     1      10.586  30.272  56.323  1.00  0.00    -0.271 OA
BRANCH  20  23
HETATM   23  C   UNL     1       8.960  31.251  59.390  1.00  0.00     0.037 A 
HETATM   24  C   UNL     1       7.613  31.612  59.502  1.00  0.00     0.061 A 
HETATM   25  C   UNL     1       7.086  31.686  60.776  1.00  0.00     0.065 A 
HETATM   26  C   UNL     1       7.833  31.414  61.918  1.00  0.00     0.063 A 
HETATM   27  N   UNL     1       5.796  32.011  61.180  1.00  0.00    -0.306 N 
HETATM   28  N   UNL     1       7.008  31.575  63.023  1.00  0.00    -0.307 N 
HETATM   29  C   UNL     1       9.151  31.048  61.850  1.00  0.00     0.034 A 
HETATM   30  C   UNL     1       5.731  31.946  62.581  1.00  0.00     0.325 A 
HETATM   31  H   UNL     1       7.245  31.448  63.995  1.00  0.00     0.170 HD
HETATM   32  O   UNL     1       4.753  32.170  63.268  1.00  0.00    -0.247 OA
HETATM   33  C   UNL     1       9.708  30.964  60.568  1.00  0.00     0.032 A 
HETATM   34  H   UNL     1       4.999  32.254  60.614  1.00  0.00     0.170 HD
ENDBRANCH  20  23
ENDBRANCH  18  19
ENDBRANCH   1  18
TORSDOF 7
ENDMDL
MODEL 8
REMARK VINA RESULT:      -8.1      3.512      6.634
REMARK  7 active torsions:
REMARK  status: ('A' for Active; 'I' for Inactive)
REMARK    1  A    between atoms: C_2  and  C_3 
REMARK    2  A    between atoms: C_6  and  C_7 
REMARK    3  A    between atoms: C_7  and  N_8 
REMARK    4  A    between atoms: C_7  and  C_25 
REMARK    5  A    between atoms: N_8  and  C_11 
REMARK    6  A    between atoms: C_11  and  C_12 
REMARK       I    between atoms: C_12  and  N_13 
REMARK    7  A    between atoms: N_13  and  C_14 
ROOT
HETATM    1  N   UNL     1       7.262  29.363  55.352  1.00  0.00    -0.054 N 
HETATM    2  H   UNL     1       6.678  29.837  54.642  1.00  0.00     0.278 HD
HETATM    3  H   UNL     1       8.112  29.934  55.360  1.00  0.00     0.278 HD
ENDROOT
BRANCH   1   4
HETATM    4  C   UNL     1       6.561  29.445  56.664  1.00  0.00     0.259 C 
BRANCH   4   5
HETATM    5  C   UNL     1       7.346  30.180  57.740  1.00  0.00    -0.023 A 
HETATM    6  C   UNL     1       6.786  31.205  58.524  1.00  0.00     0.010 A 
HETATM    7  C   UNL     1       7.529  31.812  59.540  1.00  0.00     0.007 A 
HETATM    8  C   UNL     1       8.841  31.404  59.806  1.00  0.00    -0.059 A 
HETATM    9  C   UNL     1       9.400  30.379  59.037  1.00  0.00     0.007 A 
HETATM   10  C   UNL     1       8.663  29.775  58.017  1.00  0.00     0.010 A 
BRANCH   8  11
HETATM   11  C   UNL     1       9.617  32.017  60.946  1.00  0.00     0.034 C 
HETATM   12  C   UNL     1       8.804  32.035  62.232  1.00  0.00     0.010 C 
ENDBRANCH   8  11
ENDBRANCH   4   5
BRANCH   4  13
HETATM   13  C   UNL     1       5.178  30.014  56.449  1.00  0.00     0.017 A 
HETATM   14  S   UNL     1       4.980  31.309  55.332  1.00  0.00    -0.104 SA
HETATM   15  C   UNL     1       3.303  31.403  55.628  1.00  0.00     0.050 A 
HETATM   16  C   UNL     1       2.892  30.482  56.563  1.00  0.00     0.008 A 
HETATM   17  C   UNL     1       3.972  29.683  57.041  1.00  0.00     0.017 A 
ENDBRANCH   4  13
ENDBRANCH   1   4
BRANCH   1  18
HETATM   18  C   UNL     1       7.559  27.986  54.807  1.00  0.00     0.336 C 
BRANCH  18  19
HETATM   19  C   UNL     1       6.499  27.633  53.772  1.00  0.00     0.248 C 
HETATM   20  N   UNL     1       6.225  26.365  53.378  1.00  0.00    -0.326 N 
HETATM   21  H   UNL     1       5.542  26.361  52.623  1.00  0.00     0.169 HD
HETATM   22  O   UNL     1       5.886  28.573  53.246  1.00  0.00    -0.271 OA
BRANCH  20  23
HETATM   23  C   UNL     1       6.676  25.095  53.783  1.00  0.00     0.037 A 
HETATM   24  C   UNL     1       7.128  24.085  52.927  1.00  0.00     0.061 A 
HETATM   25  C   UNL     1       7.541  22.904  53.511  1.00  0.00     0.065 A 
HETATM   26  C   UNL     1       7.525  22.697  54.887  1.00  0.00     0.063 A 
HETATM   27  N   UNL     1       8.034  21.749  52.914  1.00  0.00    -0.306 N 
HETATM   28  N   UNL     1       8.004  21.418  55.138  1.00  0.00    -0.307 N 
HETATM   29  C   UNL     1       7.100  23.664  55.758  1.00  0.00     0.034 A 
HETATM   30  C   UNL     1       8.329  20.812  53.917  1.00  0.00     0.325 A 
HETATM   31  H   UNL     1       8.122  20.967  56.032  1.00  0.00     0.170 HD
HETATM   32  O   UNL     1       8.777  19.694  53.749  1.00  0.00    -0.247 OA
HETATM   33  C   UNL     1       6.678  24.872  55.190  1.00  0.00     0.032 A 
HETATM   34  H   UNL     1       8.184  21.558  51.936  1.00  0.00     0.170 HD
ENDBRANCH  20  23
ENDBRANCH  18  19
ENDBRANCH   1  18
TORSDOF 7
ENDMDL
MODEL 9
REMARK VINA RESULT:      -8.1      5.378      9.560
REMARK  7 active torsions:
REMARK  status: ('A' for Active; 'I' for Inactive)
REMARK    1  A    between atoms: C_2  and  C_3 
REMARK    2  A    between atoms: C_6  and  C_7 
REMARK    3  A    between atoms: C_7  and  N_8 
REMARK    4  A    between atoms: C_7  and  C_25 
REMARK    5  A    between atoms: N_8  and  C_11 
REMARK    6  A    between atoms: C_11  and  C_12 
REMARK       I    between atoms: C_12  and  N_13 
REMARK    7  A    between atoms: N_13  and  C_14 
ROOT
HETATM    1  N   UNL     1       6.207  30.333  58.704  1.00  0.00    -0.054 N 
HETATM    2  H   UNL     1       5.282  30.774  58.842  1.00  0.00     0.278 HD
HETATM    3  H   UNL     1       6.181  29.547  59.362  1.00  0.00     0.278 HD
ENDROOT
BRANCH   1   4
HETATM    4  C   UNL     1       6.285  29.838  57.301  1.00  0.00     0.259 C 
BRANCH   4   5
HETATM    5  C   UNL     1       6.498  28.336  57.184  1.00  0.00    -0.023 A 
HETATM    6  C   UNL     1       5.479  27.451  56.791  1.00  0.00     0.010 A 
HETATM    7  C   UNL     1       5.738  26.086  56.642  1.00  0.00     0.007 A 
HETATM    8  C   UNL     1       7.021  25.575  56.869  1.00  0.00    -0.059 A 
HETATM    9  C   UNL     1       8.041  26.450  57.250  1.00  0.00     0.007 A 
HETATM   10  C   UNL     1       7.784  27.814  57.406  1.00  0.00     0.010 A 
BRANCH   8  11
HETATM   11  C   UNL     1       7.312  24.111  56.644  1.00  0.00     0.034 C 
HETATM   12  C   UNL     1       8.803  23.817  56.724  1.00  0.00     0.010 C 
ENDBRANCH   8  11
ENDBRANCH   4   5
BRANCH   4  13
HETATM   13  C   UNL     1       5.072  30.323  56.540  1.00  0.00     0.017 A 
HETATM   14  S   UNL     1       3.658  30.751  57.423  1.00  0.00    -0.104 SA
HETATM   15  C   UNL     1       2.802  31.144  56.000  1.00  0.00     0.050 A 
HETATM   16  C   UNL     1       3.562  30.947  54.871  1.00  0.00     0.008 A 
HETATM   17  C   UNL     1       4.869  30.470  55.179  1.00  0.00     0.017 A 
ENDBRANCH   4  13
ENDBRANCH   1   4
BRANCH   1  18
HETATM   18  C   UNL     1       7.233  31.351  59.141  1.00  0.00     0.336 C 
BRANCH  18  19
HETATM   19  C   UNL     1       8.215  30.676  60.089  1.00  0.00     0.248 C 
HETATM   20  N   UNL     1       8.265  30.922  61.421  1.00  0.00    -0.326 N 
HETATM   21  H   UNL     1       9.044  30.427  61.851  1.00  0.00     0.169 HD
HETATM   22  O   UNL     1       9.030  29.886  59.592  1.00  0.00    -0.271 OA
BRANCH  20  23
HETATM   23  C   UNL     1       7.487  31.696  62.304  1.00  0.00     0.037 A 
HETATM   24  C   UNL     1       6.096  31.830  62.253  1.00  0.00     0.061 A 
HETATM   25  C   UNL     1       5.506  32.628  63.212  1.00  0.00     0.065 A 
HETATM   26  C   UNL     1       6.234  33.281  64.202  1.00  0.00     0.063 A 
HETATM   27  N   UNL     1       4.162  32.933  63.402  1.00  0.00    -0.306 N 
HETATM   28  N   UNL     1       5.343  33.989  64.998  1.00  0.00    -0.307 N 
HETATM   29  C   UNL     1       7.595  33.167  64.292  1.00  0.00     0.034 A 
HETATM   30  C   UNL     1       4.044  33.782  64.514  1.00  0.00     0.325 A 
HETATM   31  H   UNL     1       5.553  34.560  65.803  1.00  0.00     0.170 HD
HETATM   32  O   UNL     1       3.013  34.242  64.963  1.00  0.00    -0.247 OA
HETATM   33  C   UNL     1       8.217  32.361  63.331  1.00  0.00     0.032 A 
HETATM   34  H   UNL     1       3.363  32.625  62.872  1.00  0.00     0.170 HD
ENDBRANCH  20  23
ENDBRANCH  18  19
ENDBRANCH   1  18
TORSDOF 7
ENDMDL
MODEL 10
REMARK VINA RESULT:      -8.0      1.810      4.640
REMARK  7 active torsions:
REMARK  status: ('A' for Active; 'I' for Inactive)
REMARK    1  A    between atoms: C_2  and  C_3 
REMARK    2  A    between atoms: C_6  and  C_7 
REMARK    3  A    between atoms: C_7  and  N_8 
REMARK    4  A    between atoms: C_7  and  C_25 
REMARK    5  A    between atoms: N_8  and  C_11 
REMARK    6  A    between atoms: C_11  and  C_12 
REMARK       I    between atoms: C_12  and  N_13 
REMARK    7  A    between atoms: N_13  and  C_14 
ROOT
HETATM    1  N   UNL     1       5.896  27.539  56.279  1.00  0.00    -0.054 N 
HETATM    2  H   UNL     1       5.589  26.638  56.681  1.00  0.00     0.278 HD
HETATM    3  H   UNL     1       5.646  28.209  57.014  1.00  0.00     0.278 HD
ENDROOT
BRANCH   1   4
HETATM    4  C   UNL     1       7.374  27.490  56.096  1.00  0.00     0.259 C 
BRANCH   4   5
HETATM    5  C   UNL     1       8.134  28.532  56.904  1.00  0.00    -0.023 A 
HETATM    6  C   UNL     1       9.369  29.062  56.492  1.00  0.00     0.010 A 
HETATM    7  C   UNL     1      10.002  30.059  57.239  1.00  0.00     0.007 A 
HETATM    8  C   UNL     1       9.412  30.559  58.405  1.00  0.00    -0.059 A 
HETATM    9  C   UNL     1       8.179  30.044  58.816  1.00  0.00     0.007 A 
HETATM   10  C   UNL     1       7.547  29.042  58.075  1.00  0.00     0.010 A 
BRANCH   8  11
HETATM   11  C   UNL     1      10.066  31.681  59.174  1.00  0.00     0.034 C 
HETATM   12  C   UNL     1       9.458  31.843  60.559  1.00  0.00     0.010 C 
ENDBRANCH   8  11
ENDBRANCH   4   5
BRANCH   4  13
HETATM   13  C   UNL     1       7.855  26.080  56.350  1.00  0.00     0.017 A 
HETATM   14  S   UNL     1       7.598  24.887  55.136  1.00  0.00    -0.104 SA
HETATM   15  C   UNL     1       8.330  23.668  56.079  1.00  0.00     0.050 A 
HETATM   16  C   UNL     1       8.753  24.143  57.298  1.00  0.00     0.008 A 
HETATM   17  C   UNL     1       8.477  25.532  57.458  1.00  0.00     0.017 A 
ENDBRANCH   4  13
ENDBRANCH   1   4
BRANCH   1  18
HETATM   18  C   UNL     1       5.049  27.767  55.050  1.00  0.00     0.336 C 
BRANCH  18  19
HETATM   19  C   UNL     1       4.973  29.264  54.782  1.00  0.00     0.248 C 
HETATM   20  N   UNL     1       4.761  29.799  53.554  1.00  0.00    -0.326 N 
HETATM   21  H   UNL     1       4.827  30.815  53.587  1.00  0.00     0.169 HD
HETATM   22  O   UNL     1       5.151  30.021  55.746  1.00  0.00    -0.271 OA
BRANCH  20  23
HETATM   23  C   UNL     1       4.479  29.258  52.285  1.00  0.00     0.037 A 
HETATM   24  C   UNL     1       5.388  28.559  51.483  1.00  0.00     0.061 A 
HETATM   25  C   UNL     1       4.926  28.094  50.269  1.00  0.00     0.065 A 
HETATM   26  C   UNL     1       3.618  28.290  49.834  1.00  0.00     0.063 A 
HETATM   27  N   UNL     1       5.596  27.375  49.285  1.00  0.00    -0.306 N 
HETATM   28  N   UNL     1       3.484  27.697  48.585  1.00  0.00    -0.307 N 
HETATM   29  C   UNL     1       2.697  28.959  50.594  1.00  0.00     0.034 A 
HETATM   30  C   UNL     1       4.709  27.119  48.227  1.00  0.00     0.325 A 
HETATM   31  H   UNL     1       2.659  27.659  48.006  1.00  0.00     0.170 HD
HETATM   32  O   UNL     1       4.963  26.514  47.204  1.00  0.00    -0.247 OA
HETATM   33  C   UNL     1       3.141  29.440  51.832  1.00  0.00     0.032 A 
HETATM   34  H   UNL     1       6.552  27.057  49.276  1.00  0.00     0.170 HD
ENDBRANCH  20  23
ENDBRANCH  18  19
ENDBRANCH   1  18
TORSDOF 7
ENDMDL
