MODEL 1
REMARK VINA RESULT:     -10.3      0.000      0.000
REMARK  8 active torsions:
REMARK  status: ('A' for Active; 'I' for Inactive)
REMARK    1  A    between atoms: C_2  and  C_3 
REMARK    2  A    between atoms: C_3  and  N_4 
REMARK    3  A    between atoms: N_7  and  C_8 
REMARK    4  A    between atoms: C_8  and  C_9 
REMARK       I    between atoms: C_9  and  N_10 
REMARK    5  A    between atoms: N_10  and  C_11 
REMARK    6  A    between atoms: C_24  and  C_25 
REMARK       I    between atoms: C_25  and  N_26 
REMARK    7  A    between atoms: N_26  and  C_27 
REMARK    8  A    between atoms: C_27  and  C_28 
ROOT
HETATM    1  N   UNL     1       5.238  33.389  63.736  1.00  0.00    -0.262 N 
HETATM    2  C   UNL     1       4.510  33.411  62.555  1.00  0.00     0.332 C 
HETATM    3  O   UNL     1       3.293  33.604  62.530  1.00  0.00    -0.246 OA
HETATM    4  N   UNL     1       5.217  33.198  61.376  1.00  0.00    -0.290 N 
HETATM    5  C   UNL     1       6.580  32.788  61.376  1.00  0.00     0.056 A 
HETATM    6  C   UNL     1       7.260  32.674  62.587  1.00  0.00     0.059 A 
HETATM    7  C   UNL     1       6.569  33.010  63.841  1.00  0.00     0.264 C 
HETATM    8  O   UNL     1       7.185  32.932  64.900  1.00  0.00    -0.267 OA
HETATM    9  C   UNL     1       7.265  32.454  60.194  1.00  0.00     0.048 A 
HETATM   10  C   UNL     1       8.597  32.007  60.220  1.00  0.00     0.034 A 
HETATM   11  C   UNL     1       9.261  31.921  61.448  1.00  0.00     0.018 A 
HETATM   12  C   UNL     1       8.599  32.258  62.627  1.00  0.00     0.020 A 
ENDROOT
BRANCH  10  13
HETATM   13  C   UNL     1       9.313  31.527  58.997  1.00  0.00     0.252 C 
HETATM   14  N   UNL     1       8.945  30.304  58.482  1.00  0.00    -0.353 N 
HETATM   15  H   UNL     1       8.102  29.837  58.779  1.00  0.00     0.163 HD
HETATM   16  O   UNL     1      10.202  32.217  58.510  1.00  0.00    -0.268 OA
BRANCH  14  17
HETATM   17  C   UNL     1       9.646  29.704  57.370  1.00  0.00     0.161 C 
BRANCH  17  18
HETATM   18  C   UNL     1       8.781  28.688  56.670  1.00  0.00    -0.038 A 
HETATM   19  C   UNL     1       8.279  27.579  57.370  1.00  0.00     0.048 A 
HETATM   20  C   UNL     1       7.499  26.678  56.678  1.00  0.00     0.105 A 
HETATM   21  C   UNL     1       7.200  26.846  55.346  1.00  0.00     0.105 A 
HETATM   22  O   UNL     1       6.946  25.547  57.195  1.00  0.00    -0.323 OA
HETATM   23  O   UNL     1       6.426  25.841  54.858  1.00  0.00    -0.323 OA
HETATM   24  C   UNL     1       7.659  27.931  54.632  1.00  0.00     0.040 A 
HETATM   25  C   UNL     1       6.284  25.013  56.030  1.00  0.00     0.352 A 
HETATM   26  C   UNL     1       8.454  28.863  55.306  1.00  0.00     0.012 A 
ENDBRANCH  17  18
ENDBRANCH  14  17
ENDBRANCH  10  13
BRANCH   4  27
HETATM   27  C   UNL     1       4.554  33.571  60.119  1.00  0.00     0.237 C 
BRANCH  27  28
HETATM   28  C   UNL     1       4.081  32.426  59.223  1.00  0.00     0.240 C 
HETATM   29  N   UNL     1       4.864  32.203  58.106  1.00  0.00    -0.326 N 
HETATM   30  H   UNL     1       5.685  32.792  58.005  1.00  0.00     0.169 HD
HETATM   31  O   UNL     1       3.109  31.759  59.572  1.00  0.00    -0.271 OA
BRANCH  29  32
HETATM   32  C   UNL     1       4.655  31.226  57.107  1.00  0.00     0.034 A 
HETATM   33  C   UNL     1       4.725  29.848  57.337  1.00  0.00     0.031 A 
HETATM   34  C   UNL     1       4.505  28.936  56.299  1.00  0.00     0.021 A 
HETATM   35  C   UNL     1       4.211  29.398  55.022  1.00  0.00     0.011 A 
HETATM   36 BR   UNL     1       3.916  28.166  53.620  1.00  0.00    -0.051 Br
HETATM   37  C   UNL     1       4.133  30.767  54.774  1.00  0.00     0.021 A 
HETATM   38  C   UNL     1       4.355  31.676  55.816  1.00  0.00     0.031 A 
ENDBRANCH  29  32
ENDBRANCH  27  28
ENDBRANCH   4  27
BRANCH   1  39
HETATM   39  C   UNL     1       4.559  33.794  64.958  1.00  0.00     0.163 C 
BRANCH  39  40
HETATM   40  C   UNL     1       4.726  35.269  65.242  1.00  0.00    -0.017 C 
HETATM   41  C   UNL     1       4.252  35.985  66.273  1.00  0.00     0.008 C 
ENDBRANCH  39  40
ENDBRANCH   1  39
TORSDOF 8
ENDMDL
MODEL 2
REMARK VINA RESULT:     -10.1      4.696     10.499
REMARK  8 active torsions:
REMARK  status: ('A' for Active; 'I' for Inactive)
REMARK    1  A    between atoms: C_2  and  C_3 
REMARK    2  A    between atoms: C_3  and  N_4 
REMARK    3  A    between atoms: N_7  and  C_8 
REMARK    4  A    between atoms: C_8  and  C_9 
REMARK       I    between atoms: C_9  and  N_10 
REMARK    5  A    between atoms: N_10  and  C_11 
REMARK    6  A    between atoms: C_24  and  C_25 
REMARK       I    between atoms: C_25  and  N_26 
REMARK    7  A    between atoms: N_26  and  C_27 
REMARK    8  A    between atoms: C_27  and  C_28 
ROOT
HETATM    1  N   UNL     1       3.006  28.540  49.713  1.00  0.00    -0.262 N 
HETATM    2  C   UNL     1       3.842  27.435  49.773  1.00  0.00     0.332 C 
HETATM    3  O   UNL     1       3.880  26.583  48.884  1.00  0.00    -0.246 OA
HETATM    4  N   UNL     1       4.651  27.318  50.899  1.00  0.00    -0.290 N 
HETATM    5  C   UNL     1       4.504  28.174  52.026  1.00  0.00     0.056 A 
HETATM    6  C   UNL     1       3.581  29.217  51.978  1.00  0.00     0.059 A 
HETATM    7  C   UNL     1       2.798  29.435  50.753  1.00  0.00     0.264 C 
HETATM    8  O   UNL     1       2.006  30.373  50.711  1.00  0.00    -0.267 OA
HETATM    9  C   UNL     1       5.234  27.986  53.214  1.00  0.00     0.048 A 
HETATM   10  C   UNL     1       5.040  28.814  54.333  1.00  0.00     0.034 A 
HETATM   11  C   UNL     1       4.121  29.865  54.249  1.00  0.00     0.018 A 
HETATM   12  C   UNL     1       3.398  30.070  53.076  1.00  0.00     0.020 A 
ENDROOT
BRANCH  10  13
HETATM   13  C   UNL     1       5.708  28.565  55.648  1.00  0.00     0.252 C 
HETATM   14  N   UNL     1       6.993  28.071  55.627  1.00  0.00    -0.353 N 
HETATM   15  H   UNL     1       7.544  28.064  54.782  1.00  0.00     0.163 HD
HETATM   16  O   UNL     1       5.094  28.787  56.686  1.00  0.00    -0.268 OA
BRANCH  14  17
HETATM   17  C   UNL     1       7.685  27.698  56.840  1.00  0.00     0.161 C 
BRANCH  17  18
HETATM   18  C   UNL     1       8.429  28.872  57.420  1.00  0.00    -0.038 A 
HETATM   19  C   UNL     1       7.932  29.542  58.549  1.00  0.00     0.048 A 
HETATM   20  C   UNL     1       8.651  30.614  59.033  1.00  0.00     0.105 A 
HETATM   21  C   UNL     1       9.827  31.024  58.451  1.00  0.00     0.105 A 
HETATM   22  O   UNL     1       8.307  31.380  60.104  1.00  0.00    -0.323 OA
HETATM   23  O   UNL     1      10.369  32.101  59.079  1.00  0.00    -0.323 OA
HETATM   24  C   UNL     1      10.356  30.379  57.355  1.00  0.00     0.040 A 
HETATM   25  C   UNL     1       9.391  32.332  60.114  1.00  0.00     0.352 A 
HETATM   26  C   UNL     1       9.649  29.289  56.839  1.00  0.00     0.012 A 
ENDBRANCH  17  18
ENDBRANCH  14  17
ENDBRANCH  10  13
BRANCH   4  27
HETATM   27  C   UNL     1       5.780  26.381  50.821  1.00  0.00     0.237 C 
BRANCH  27  28
HETATM   28  C   UNL     1       5.773  25.210  51.803  1.00  0.00     0.240 C 
HETATM   29  N   UNL     1       6.997  24.930  52.379  1.00  0.00    -0.326 N 
HETATM   30  H   UNL     1       7.767  25.540  52.124  1.00  0.00     0.169 HD
HETATM   31  O   UNL     1       4.707  24.653  52.059  1.00  0.00    -0.271 OA
BRANCH  29  32
HETATM   32  C   UNL     1       7.281  23.902  53.306  1.00  0.00     0.034 A 
HETATM   33  C   UNL     1       7.058  24.008  54.683  1.00  0.00     0.031 A 
HETATM   34  C   UNL     1       7.363  22.948  55.543  1.00  0.00     0.021 A 
HETATM   35  C   UNL     1       7.891  21.769  55.029  1.00  0.00     0.011 A 
HETATM   36 BR   UNL     1       8.304  20.338  56.191  1.00  0.00    -0.051 Br
HETATM   37  C   UNL     1       8.117  21.643  53.660  1.00  0.00     0.021 A 
HETATM   38  C   UNL     1       7.812  22.708  52.803  1.00  0.00     0.031 A 
ENDBRANCH  29  32
ENDBRANCH  27  28
ENDBRANCH   4  27
BRANCH   1  39
HETATM   39  C   UNL     1       2.294  28.784  48.467  1.00  0.00     0.163 C 
BRANCH  39  40
HETATM   40  C   UNL     1       1.189  27.779  48.234  1.00  0.00    -0.017 C 
HETATM   41  C   UNL     1       0.570  27.462  47.086  1.00  0.00     0.008 C 
ENDBRANCH  39  40
ENDBRANCH   1  39
TORSDOF 8
ENDMDL
MODEL 3
REMARK VINA RESULT:     -10.1      2.653      8.332
REMARK  8 active torsions:
REMARK  status: ('A' for Active; 'I' for Inactive)
REMARK    1  A    between atoms: C_2  and  C_3 
REMARK    2  A    between atoms: C_3  and  N_4 
REMARK    3  A    between atoms: N_7  and  C_8 
REMARK    4  A    between atoms: C_8  and  C_9 
REMARK       I    between atoms: C_9  and  N_10 
REMARK    5  A    between atoms: N_10  and  C_11 
REMARK    6  A    between atoms: C_24  and  C_25 
REMARK       I    between atoms: C_25  and  N_26 
REMARK    7  A    between atoms: N_26  and  C_27 
REMARK    8  A    between atoms: C_27  and  C_28 
ROOT
HETATM    1  N   UNL     1       6.128  28.155  54.588  1.00  0.00    -0.262 N 
HETATM    2  C   UNL     1       5.138  28.627  55.439  1.00  0.00     0.332 C 
HETATM    3  O   UNL     1       3.938  28.539  55.174  1.00  0.00    -0.246 OA
HETATM    4  N   UNL     1       5.559  29.220  56.625  1.00  0.00    -0.290 N 
HETATM    5  C   UNL     1       6.929  29.507  56.882  1.00  0.00     0.056 A 
HETATM    6  C   UNL     1       7.895  29.112  55.959  1.00  0.00     0.059 A 
HETATM    7  C   UNL     1       7.488  28.377  54.752  1.00  0.00     0.264 C 
HETATM    8  O   UNL     1       8.350  28.010  53.958  1.00  0.00    -0.267 OA
HETATM    9  C   UNL     1       7.348  30.215  58.024  1.00  0.00     0.048 A 
HETATM   10  C   UNL     1       8.701  30.529  58.235  1.00  0.00     0.034 A 
HETATM   11  C   UNL     1       9.651  30.103  57.302  1.00  0.00     0.018 A 
HETATM   12  C   UNL     1       9.253  29.393  56.171  1.00  0.00     0.020 A 
ENDROOT
BRANCH  10  13
HETATM   13  C   UNL     1       9.164  31.384  59.372  1.00  0.00     0.252 C 
HETATM   14  N   UNL     1       8.852  30.971  60.648  1.00  0.00    -0.353 N 
HETATM   15  H   UNL     1       8.510  30.041  60.834  1.00  0.00     0.163 HD
HETATM   16  O   UNL     1       9.779  32.418  59.136  1.00  0.00    -0.268 OA
BRANCH  14  17
HETATM   17  C   UNL     1       9.160  31.778  61.806  1.00  0.00     0.161 C 
BRANCH  17  18
HETATM   18  C   UNL     1       7.913  32.109  62.583  1.00  0.00    -0.038 A 
HETATM   19  C   UNL     1       7.986  32.879  63.755  1.00  0.00     0.048 A 
HETATM   20  C   UNL     1       6.814  33.145  64.428  1.00  0.00     0.105 A 
HETATM   21  C   UNL     1       5.597  32.689  63.978  1.00  0.00     0.105 A 
HETATM   22  O   UNL     1       6.706  33.859  65.581  1.00  0.00    -0.323 OA
HETATM   23  O   UNL     1       4.572  33.057  64.793  1.00  0.00    -0.323 OA
HETATM   24  C   UNL     1       5.483  31.948  62.824  1.00  0.00     0.040 A 
HETATM   25  C   UNL     1       5.285  33.783  65.816  1.00  0.00     0.352 A 
HETATM   26  C   UNL     1       6.655  31.661  62.118  1.00  0.00     0.012 A 
ENDBRANCH  17  18
ENDBRANCH  14  17
ENDBRANCH  10  13
BRANCH   4  27
HETATM   27  C   UNL     1       4.554  29.391  57.683  1.00  0.00     0.237 C 
BRANCH  27  28
HETATM   28  C   UNL     1       3.907  30.771  57.803  1.00  0.00     0.240 C 
HETATM   29  N   UNL     1       4.377  31.542  58.848  1.00  0.00    -0.326 N 
HETATM   30  H   UNL     1       5.119  31.138  59.410  1.00  0.00     0.169 HD
HETATM   31  O   UNL     1       3.088  31.121  56.955  1.00  0.00    -0.271 OA
BRANCH  29  32
HETATM   32  C   UNL     1       3.952  32.843  59.199  1.00  0.00     0.034 A 
HETATM   33  C   UNL     1       3.070  33.120  60.249  1.00  0.00     0.031 A 
HETATM   34  C   UNL     1       2.692  34.435  60.541  1.00  0.00     0.021 A 
HETATM   35  C   UNL     1       3.198  35.485  59.783  1.00  0.00     0.011 A 
HETATM   36 BR   UNL     1       2.686  37.260  60.177  1.00  0.00    -0.051 Br
HETATM   37  C   UNL     1       4.079  35.230  58.736  1.00  0.00     0.021 A 
HETATM   38  C   UNL     1       4.453  33.912  58.446  1.00  0.00     0.031 A 
ENDBRANCH  29  32
ENDBRANCH  27  28
ENDBRANCH   4  27
BRANCH   1  39
HETATM   39  C   UNL     1       5.712  27.367  53.437  1.00  0.00     0.163 C 
BRANCH  39  40
HETATM   40  C   UNL     1       5.423  25.929  53.803  1.00  0.00    -0.017 C 
HETATM   41  C   UNL     1       6.114  25.113  54.615  1.00  0.00     0.008 C 
ENDBRANCH  39  40
ENDBRANCH   1  39
TORSDOF 8
ENDMDL
MODEL 4
REMARK VINA RESULT:      -9.7      2.872      8.929
REMARK  8 active torsions:
REMARK  status: ('A' for Active; 'I' for Inactive)
REMARK    1  A    between atoms: C_2  and  C_3 
REMARK    2  A    between atoms: C_3  and  N_4 
REMARK    3  A    between atoms: N_7  and  C_8 
REMARK    4  A    between atoms: C_8  and  C_9 
REMARK       I    between atoms: C_9  and  N_10 
REMARK    5  A    between atoms: N_10  and  C_11 
REMARK    6  A    between atoms: C_24  and  C_25 
REMARK       I    between atoms: C_25  and  N_26 
REMARK    7  A    between atoms: N_26  and  C_27 
REMARK    8  A    between atoms: C_27  and  C_28 
ROOT
HETATM    1  N   UNL     1       4.177  30.092  54.431  1.00  0.00    -0.262 N 
HETATM    2  C   UNL     1       5.210  29.165  54.447  1.00  0.00     0.332 C 
HETATM    3  O   UNL     1       5.284  28.241  53.636  1.00  0.00    -0.246 OA
HETATM    4  N   UNL     1       6.176  29.318  55.435  1.00  0.00    -0.290 N 
HETATM    5  C   UNL     1       6.028  30.253  56.498  1.00  0.00     0.056 A 
HETATM    6  C   UNL     1       4.925  31.104  56.512  1.00  0.00     0.059 A 
HETATM    7  C   UNL     1       3.949  31.044  55.414  1.00  0.00     0.264 C 
HETATM    8  O   UNL     1       2.994  31.817  55.422  1.00  0.00    -0.267 OA
HETATM    9  C   UNL     1       6.942  30.329  57.566  1.00  0.00     0.048 A 
HETATM   10  C   UNL     1       6.753  31.228  58.629  1.00  0.00     0.034 A 
HETATM   11  C   UNL     1       5.646  32.083  58.607  1.00  0.00     0.018 A 
HETATM   12  C   UNL     1       4.738  32.027  57.552  1.00  0.00     0.020 A 
ENDROOT
BRANCH  10  13
HETATM   13  C   UNL     1       7.635  31.247  59.838  1.00  0.00     0.252 C 
HETATM   14  N   UNL     1       7.025  31.211  61.072  1.00  0.00    -0.353 N 
HETATM   15  H   UNL     1       6.050  30.977  61.174  1.00  0.00     0.163 HD
HETATM   16  O   UNL     1       8.851  31.314  59.694  1.00  0.00    -0.268 OA
BRANCH  14  17
HETATM   17  C   UNL     1       7.781  31.333  62.298  1.00  0.00     0.161 C 
BRANCH  17  18
HETATM   18  C   UNL     1       7.094  32.258  63.267  1.00  0.00    -0.038 A 
HETATM   19  C   UNL     1       5.694  32.358  63.285  1.00  0.00     0.048 A 
HETATM   20  C   UNL     1       5.119  33.226  64.189  1.00  0.00     0.105 A 
HETATM   21  C   UNL     1       5.875  33.972  65.062  1.00  0.00     0.105 A 
HETATM   22  O   UNL     1       3.786  33.455  64.330  1.00  0.00    -0.323 OA
HETATM   23  O   UNL     1       5.112  34.767  65.860  1.00  0.00    -0.323 OA
HETATM   24  C   UNL     1       7.249  33.887  65.086  1.00  0.00     0.040 A 
HETATM   25  C   UNL     1       3.791  34.446  65.378  1.00  0.00     0.352 A 
HETATM   26  C   UNL     1       7.862  33.016  64.181  1.00  0.00     0.012 A 
ENDBRANCH  17  18
ENDBRANCH  14  17
ENDBRANCH  10  13
BRANCH   4  27
HETATM   27  C   UNL     1       7.442  28.594  55.255  1.00  0.00     0.237 C 
BRANCH  27  28
HETATM   28  C   UNL     1       7.383  27.069  55.351  1.00  0.00     0.240 C 
HETATM   29  N   UNL     1       7.882  26.399  54.251  1.00  0.00    -0.326 N 
HETATM   30  H   UNL     1       8.264  26.975  53.507  1.00  0.00     0.169 HD
HETATM   31  O   UNL     1       6.971  26.553  56.389  1.00  0.00    -0.271 OA
BRANCH  29  32
HETATM   32  C   UNL     1       7.940  25.000  54.066  1.00  0.00     0.034 A 
HETATM   33  C   UNL     1       8.242  24.090  55.085  1.00  0.00     0.031 A 
HETATM   34  C   UNL     1       8.281  22.715  54.830  1.00  0.00     0.021 A 
HETATM   35  C   UNL     1       8.014  22.240  53.551  1.00  0.00     0.011 A 
HETATM   36 BR   UNL     1       8.068  20.383  53.208  1.00  0.00    -0.051 Br
HETATM   37  C   UNL     1       7.708  23.130  52.525  1.00  0.00     0.021 A 
HETATM   38  C   UNL     1       7.672  24.506  52.784  1.00  0.00     0.031 A 
ENDBRANCH  29  32
ENDBRANCH  27  28
ENDBRANCH   4  27
BRANCH   1  39
HETATM   39  C   UNL     1       3.262  30.067  53.298  1.00  0.00     0.163 C 
BRANCH  39  40
HETATM   40  C   UNL     1       3.786  30.858  52.123  1.00  0.00    -0.017 C 
HETATM   41  C   UNL     1       3.789  32.187  51.938  1.00  0.00     0.008 C 
ENDBRANCH  39  40
ENDBRANCH   1  39
TORSDOF 8
ENDMDL
MODEL 5
REMARK VINA RESULT:      -9.6      3.957      9.781
REMARK  8 active torsions:
REMARK  status: ('A' for Active; 'I' for Inactive)
REMARK    1  A    between atoms: C_2  and  C_3 
REMARK    2  A    between atoms: C_3  and  N_4 
REMARK    3  A    between atoms: N_7  and  C_8 
REMARK    4  A    between atoms: C_8  and  C_9 
REMARK       I    between atoms: C_9  and  N_10 
REMARK    5  A    between atoms: N_10  and  C_11 
REMARK    6  A    between atoms: C_24  and  C_25 
REMARK       I    between atoms: C_25  and  N_26 
REMARK    7  A    between atoms: N_26  and  C_27 
REMARK    8  A    between atoms: C_27  and  C_28 
ROOT
HETATM    1  N   UNL     1       7.307  23.514  55.074  1.00  0.00    -0.262 N 
HETATM    2  C   UNL     1       6.521  24.159  54.130  1.00  0.00     0.332 C 
HETATM    3  O   UNL     1       6.205  23.634  53.061  1.00  0.00    -0.246 OA
HETATM    4  N   UNL     1       6.098  25.447  54.438  1.00  0.00    -0.290 N 
HETATM    5  C   UNL     1       6.591  26.154  55.570  1.00  0.00     0.056 A 
HETATM    6  C   UNL     1       7.463  25.515  56.449  1.00  0.00     0.059 A 
HETATM    7  C   UNL     1       7.832  24.112  56.211  1.00  0.00     0.264 C 
HETATM    8  O   UNL     1       8.580  23.549  57.007  1.00  0.00    -0.267 OA
HETATM    9  C   UNL     1       6.261  27.499  55.820  1.00  0.00     0.048 A 
HETATM   10  C   UNL     1       6.796  28.193  56.918  1.00  0.00     0.034 A 
HETATM   11  C   UNL     1       7.653  27.520  57.795  1.00  0.00     0.018 A 
HETATM   12  C   UNL     1       7.982  26.185  57.566  1.00  0.00     0.020 A 
ENDROOT
BRANCH  10  13
HETATM   13  C   UNL     1       6.564  29.654  57.142  1.00  0.00     0.252 C 
HETATM   14  N   UNL     1       7.071  30.210  58.295  1.00  0.00    -0.353 N 
HETATM   15  H   UNL     1       7.740  29.720  58.869  1.00  0.00     0.163 HD
HETATM   16  O   UNL     1       5.924  30.296  56.316  1.00  0.00    -0.268 OA
BRANCH  14  17
HETATM   17  C   UNL     1       6.810  31.585  58.655  1.00  0.00     0.161 C 
BRANCH  17  18
HETATM   18  C   UNL     1       7.162  31.843  60.097  1.00  0.00    -0.038 A 
HETATM   19  C   UNL     1       6.372  32.699  60.881  1.00  0.00     0.048 A 
HETATM   20  C   UNL     1       6.746  32.904  62.192  1.00  0.00     0.105 A 
HETATM   21  C   UNL     1       7.848  32.289  62.739  1.00  0.00     0.105 A 
HETATM   22  O   UNL     1       6.105  33.708  63.082  1.00  0.00    -0.323 OA
HETATM   23  O   UNL     1       8.040  32.633  64.040  1.00  0.00    -0.323 OA
HETATM   24  C   UNL     1       8.635  31.429  62.007  1.00  0.00     0.040 A 
HETATM   25  C   UNL     1       6.943  33.546  64.245  1.00  0.00     0.352 A 
HETATM   26  C   UNL     1       8.283  31.201  60.673  1.00  0.00     0.012 A 
ENDBRANCH  17  18
ENDBRANCH  14  17
ENDBRANCH  10  13
BRANCH   4  27
HETATM   27  C   UNL     1       4.992  25.999  53.642  1.00  0.00     0.237 C 
BRANCH  27  28
HETATM   28  C   UNL     1       5.372  26.853  52.433  1.00  0.00     0.240 C 
HETATM   29  N   UNL     1       4.327  27.140  51.576  1.00  0.00    -0.326 N 
HETATM   30  H   UNL     1       3.413  26.789  51.843  1.00  0.00     0.169 HD
HETATM   31  O   UNL     1       6.525  27.269  52.336  1.00  0.00    -0.271 OA
BRANCH  29  32
HETATM   32  C   UNL     1       4.394  27.893  50.382  1.00  0.00     0.034 A 
HETATM   33  C   UNL     1       4.721  27.351  49.135  1.00  0.00     0.031 A 
HETATM   34  C   UNL     1       4.767  28.157  47.992  1.00  0.00     0.021 A 
HETATM   35  C   UNL     1       4.483  29.514  48.090  1.00  0.00     0.011 A 
HETATM   36 BR   UNL     1       4.547  30.602  46.547  1.00  0.00    -0.051 Br
HETATM   37  C   UNL     1       4.152  30.071  49.322  1.00  0.00     0.021 A 
HETATM   38  C   UNL     1       4.108  29.261  50.464  1.00  0.00     0.031 A 
ENDBRANCH  29  32
ENDBRANCH  27  28
ENDBRANCH   4  27
BRANCH   1  39
HETATM   39  C   UNL     1       7.603  22.104  54.862  1.00  0.00     0.163 C 
BRANCH  39  40
HETATM   40  C   UNL     1       8.620  21.893  53.764  1.00  0.00    -0.017 C 
HETATM   41  C   UNL     1       8.731  20.866  52.908  1.00  0.00     0.008 C 
ENDBRANCH  39  40
ENDBRANCH   1  39
TORSDOF 8
ENDMDL
MODEL 6
REMARK VINA RESULT:      -9.4      3.562      5.022
REMARK  8 active torsions:
REMARK  status: ('A' for Active; 'I' for Inactive)
REMARK    1  A    between atoms: C_2  and  C_3 
REMARK    2  A    between atoms: C_3  and  N_4 
REMARK    3  A    between atoms: N_7  and  C_8 
REMARK    4  A    between atoms: C_8  and  C_9 
REMARK       I    between atoms: C_9  and  N_10 
REMARK    5  A    between atoms: N_10  and  C_11 
REMARK    6  A    between atoms: C_24  and  C_25 
REMARK       I    between atoms: C_25  and  N_26 
REMARK    7  A    between atoms: N_26  and  C_27 
REMARK    8  A    between atoms: C_27  and  C_28 
ROOT
HETATM    1  N   UNL     1       4.820  33.782  64.832  1.00  0.00    -0.262 N 
HETATM    2  C   UNL     1       3.973  33.727  63.734  1.00  0.00     0.332 C 
HETATM    3  O   UNL     1       2.758  33.905  63.825  1.00  0.00    -0.246 OA
HETATM    4  N   UNL     1       4.558  33.453  62.502  1.00  0.00    -0.290 N 
HETATM    5  C   UNL     1       5.920  33.059  62.383  1.00  0.00     0.056 A 
HETATM    6  C   UNL     1       6.724  33.024  63.520  1.00  0.00     0.059 A 
HETATM    7  C   UNL     1       6.161  33.425  64.818  1.00  0.00     0.264 C 
HETATM    8  O   UNL     1       6.885  33.415  65.811  1.00  0.00    -0.267 OA
HETATM    9  C   UNL     1       6.485  32.664  61.156  1.00  0.00     0.048 A 
HETATM   10  C   UNL     1       7.819  32.234  61.068  1.00  0.00     0.034 A 
HETATM   11  C   UNL     1       8.608  32.228  62.223  1.00  0.00     0.018 A 
HETATM   12  C   UNL     1       8.067  32.625  63.444  1.00  0.00     0.020 A 
ENDROOT
BRANCH  10  13
HETATM   13  C   UNL     1       8.412  31.692  59.806  1.00  0.00     0.252 C 
HETATM   14  N   UNL     1       8.001  30.444  59.394  1.00  0.00    -0.353 N 
HETATM   15  H   UNL     1       7.194  29.993  59.797  1.00  0.00     0.163 HD
HETATM   16  O   UNL     1       9.246  32.355  59.199  1.00  0.00    -0.268 OA
BRANCH  14  17
HETATM   17  C   UNL     1       8.591  29.787  58.250  1.00  0.00     0.161 C 
BRANCH  17  18
HETATM   18  C   UNL     1       7.684  28.709  57.719  1.00  0.00    -0.038 A 
HETATM   19  C   UNL     1       8.196  27.440  57.401  1.00  0.00     0.048 A 
HETATM   20  C   UNL     1       7.321  26.494  56.912  1.00  0.00     0.105 A 
HETATM   21  C   UNL     1       5.982  26.759  56.744  1.00  0.00     0.105 A 
HETATM   22  O   UNL     1       7.650  25.226  56.544  1.00  0.00    -0.323 OA
HETATM   23  O   UNL     1       5.302  25.693  56.244  1.00  0.00    -0.323 OA
HETATM   24  C   UNL     1       5.441  27.984  57.061  1.00  0.00     0.040 A 
HETATM   25  C   UNL     1       6.368  24.731  56.103  1.00  0.00     0.352 A 
HETATM   26  C   UNL     1       6.302  28.966  57.559  1.00  0.00     0.012 A 
ENDBRANCH  17  18
ENDBRANCH  14  17
ENDBRANCH  10  13
BRANCH   4  27
HETATM   27  C   UNL     1       3.762  33.745  61.302  1.00  0.00     0.237 C 
BRANCH  27  28
HETATM   28  C   UNL     1       3.908  35.143  60.701  1.00  0.00     0.240 C 
HETATM   29  N   UNL     1       3.996  36.165  61.626  1.00  0.00    -0.326 N 
HETATM   30  H   UNL     1       3.988  35.892  62.603  1.00  0.00     0.169 HD
HETATM   31  O   UNL     1       4.001  35.260  59.480  1.00  0.00    -0.271 OA
BRANCH  29  32
HETATM   32  C   UNL     1       4.124  37.545  61.353  1.00  0.00     0.034 A 
HETATM   33  C   UNL     1       3.038  38.411  61.184  1.00  0.00     0.031 A 
HETATM   34  C   UNL     1       3.239  39.770  60.916  1.00  0.00     0.021 A 
HETATM   35  C   UNL     1       4.531  40.273  60.820  1.00  0.00     0.011 A 
HETATM   36 BR   UNL     1       4.801  42.107  60.457  1.00  0.00    -0.051 Br
HETATM   37  C   UNL     1       5.625  39.427  60.988  1.00  0.00     0.021 A 
HETATM   38  C   UNL     1       5.419  38.068  61.254  1.00  0.00     0.031 A 
ENDBRANCH  29  32
ENDBRANCH  27  28
ENDBRANCH   4  27
BRANCH   1  39
HETATM   39  C   UNL     1       4.265  34.251  66.093  1.00  0.00     0.163 C 
BRANCH  39  40
HETATM   40  C   UNL     1       4.277  35.758  66.198  1.00  0.00    -0.017 C 
HETATM   41  C   UNL     1       4.737  36.658  65.316  1.00  0.00     0.008 C 
ENDBRANCH  39  40
ENDBRANCH   1  39
TORSDOF 8
ENDMDL
MODEL 7
REMARK VINA RESULT:      -9.4      3.631      5.784
REMARK  8 active torsions:
REMARK  status: ('A' for Active; 'I' for Inactive)
REMARK    1  A    between atoms: C_2  and  C_3 
REMARK    2  A    between atoms: C_3  and  N_4 
REMARK    3  A    between atoms: N_7  and  C_8 
REMARK    4  A    between atoms: C_8  and  C_9 
REMARK       I    between atoms: C_9  and  N_10 
REMARK    5  A    between atoms: N_10  and  C_11 
REMARK    6  A    between atoms: C_24  and  C_25 
REMARK       I    between atoms: C_25  and  N_26 
REMARK    7  A    between atoms: N_26  and  C_27 
REMARK    8  A    between atoms: C_27  and  C_28 
ROOT
HETATM    1  N   UNL     1       7.776  31.666  59.717  1.00  0.00    -0.262 N 
HETATM    2  C   UNL     1       6.408  31.738  59.495  1.00  0.00     0.332 C 
HETATM    3  O   UNL     1       5.663  32.442  60.178  1.00  0.00    -0.246 OA
HETATM    4  N   UNL     1       5.898  30.969  58.455  1.00  0.00    -0.290 N 
HETATM    5  C   UNL     1       6.691  30.007  57.768  1.00  0.00     0.056 A 
HETATM    6  C   UNL     1       8.042  29.883  58.083  1.00  0.00     0.059 A 
HETATM    7  C   UNL     1       8.634  30.769  59.096  1.00  0.00     0.264 C 
HETATM    8  O   UNL     1       9.833  30.670  59.348  1.00  0.00    -0.267 OA
HETATM    9  C   UNL     1       6.151  29.141  56.799  1.00  0.00     0.048 A 
HETATM   10  C   UNL     1       6.941  28.167  56.165  1.00  0.00     0.034 A 
HETATM   11  C   UNL     1       8.299  28.079  56.487  1.00  0.00     0.018 A 
HETATM   12  C   UNL     1       8.851  28.936  57.438  1.00  0.00     0.020 A 
ENDROOT
BRANCH  10  13
HETATM   13  C   UNL     1       6.372  27.152  55.224  1.00  0.00     0.252 C 
HETATM   14  N   UNL     1       7.249  26.268  54.635  1.00  0.00    -0.353 N 
HETATM   15  H   UNL     1       8.196  26.163  54.965  1.00  0.00     0.163 HD
HETATM   16  O   UNL     1       5.168  27.152  54.995  1.00  0.00    -0.268 OA
BRANCH  14  17
HETATM   17  C   UNL     1       6.816  25.321  53.634  1.00  0.00     0.161 C 
BRANCH  17  18
HETATM   18  C   UNL     1       7.328  23.938  53.940  1.00  0.00    -0.038 A 
HETATM   19  C   UNL     1       7.575  23.548  55.266  1.00  0.00     0.048 A 
HETATM   20  C   UNL     1       8.050  22.273  55.487  1.00  0.00     0.105 A 
HETATM   21  C   UNL     1       8.271  21.390  54.456  1.00  0.00     0.105 A 
HETATM   22  O   UNL     1       8.354  21.740  56.701  1.00  0.00    -0.323 OA
HETATM   23  O   UNL     1       8.745  20.193  54.892  1.00  0.00    -0.323 OA
HETATM   24  C   UNL     1       8.022  21.730  53.145  1.00  0.00     0.040 A 
HETATM   25  C   UNL     1       8.812  20.428  56.314  1.00  0.00     0.352 A 
HETATM   26  C   UNL     1       7.541  23.017  52.888  1.00  0.00     0.012 A 
ENDBRANCH  17  18
ENDBRANCH  14  17
ENDBRANCH  10  13
BRANCH   4  27
HETATM   27  C   UNL     1       4.549  31.298  57.975  1.00  0.00     0.237 C 
BRANCH  27  28
HETATM   28  C   UNL     1       4.384  32.632  57.246  1.00  0.00     0.240 C 
HETATM   29  N   UNL     1       3.636  33.574  57.925  1.00  0.00    -0.326 N 
HETATM   30  H   UNL     1       3.298  33.306  58.844  1.00  0.00     0.169 HD
HETATM   31  O   UNL     1       4.959  32.800  56.172  1.00  0.00    -0.271 OA
BRANCH  29  32
HETATM   32  C   UNL     1       3.315  34.878  57.486  1.00  0.00     0.034 A 
HETATM   33  C   UNL     1       2.138  35.204  56.804  1.00  0.00     0.031 A 
HETATM   34  C   UNL     1       1.884  36.519  56.399  1.00  0.00     0.021 A 
HETATM   35  C   UNL     1       2.809  37.519  56.676  1.00  0.00     0.011 A 
HETATM   36 BR   UNL     1       2.467  39.294  56.127  1.00  0.00    -0.051 Br
HETATM   37  C   UNL     1       3.985  37.215  57.356  1.00  0.00     0.021 A 
HETATM   38  C   UNL     1       4.235  35.897  57.758  1.00  0.00     0.031 A 
ENDBRANCH  29  32
ENDBRANCH  27  28
ENDBRANCH   4  27
BRANCH   1  39
HETATM   39  C   UNL     1       8.359  32.600  60.670  1.00  0.00     0.163 C 
BRANCH  39  40
HETATM   40  C   UNL     1       8.495  31.999  62.049  1.00  0.00    -0.017 C 
HETATM   41  C   UNL     1       8.045  32.473  63.221  1.00  0.00     0.008 C 
ENDBRANCH  39  40
ENDBRANCH   1  39
TORSDOF 8
ENDMDL
MODEL 8
REMARK VINA RESULT:      -9.3      3.660      6.771
REMARK  8 active torsions:
REMARK  status: ('A' for Active; 'I' for Inactive)
REMARK    1  A    between atoms: C_2  and  C_3 
REMARK    2  A    between atoms: C_3  and  N_4 
REMARK    3  A    between atoms: N_7  and  C_8 
REMARK    4  A    between atoms: C_8  and  C_9 
REMARK       I    between atoms: C_9  and  N_10 
REMARK    5  A    between atoms: N_10  and  C_11 
REMARK    6  A    between atoms: C_24  and  C_25 
REMARK       I    between atoms: C_25  and  N_26 
REMARK    7  A    between atoms: N_26  and  C_27 
REMARK    8  A    between atoms: C_27  and  C_28 
ROOT
HETATM    1  N   UNL     1       4.147  32.345  57.855  1.00  0.00    -0.262 N 
HETATM    2  C   UNL     1       5.399  32.715  58.326  1.00  0.00     0.332 C 
HETATM    3  O   UNL     1       5.678  33.877  58.623  1.00  0.00    -0.246 OA
HETATM    4  N   UNL     1       6.348  31.705  58.448  1.00  0.00    -0.290 N 
HETATM    5  C   UNL     1       6.125  30.394  57.943  1.00  0.00     0.056 A 
HETATM    6  C   UNL     1       4.891  30.078  57.380  1.00  0.00     0.059 A 
HETATM    7  C   UNL     1       3.828  31.094  57.347  1.00  0.00     0.264 C 
HETATM    8  O   UNL     1       2.735  30.797  56.873  1.00  0.00    -0.267 OA
HETATM    9  C   UNL     1       7.125  29.403  57.955  1.00  0.00     0.048 A 
HETATM   10  C   UNL     1       6.900  28.129  57.409  1.00  0.00     0.034 A 
HETATM   11  C   UNL     1       5.644  27.833  56.868  1.00  0.00     0.018 A 
HETATM   12  C   UNL     1       4.641  28.800  56.858  1.00  0.00     0.020 A 
ENDROOT
BRANCH  10  13
HETATM   13  C   UNL     1       7.977  27.096  57.294  1.00  0.00     0.252 C 
HETATM   14  N   UNL     1       7.589  25.778  57.208  1.00  0.00    -0.353 N 
HETATM   15  H   UNL     1       6.632  25.519  57.024  1.00  0.00     0.163 HD
HETATM   16  O   UNL     1       9.152  27.449  57.300  1.00  0.00    -0.268 OA
BRANCH  14  17
HETATM   17  C   UNL     1       8.553  24.701  57.200  1.00  0.00     0.161 C 
BRANCH  17  18
HETATM   18  C   UNL     1       8.391  23.839  55.975  1.00  0.00    -0.038 A 
HETATM   19  C   UNL     1       8.750  22.482  56.006  1.00  0.00     0.048 A 
HETATM   20  C   UNL     1       8.587  21.744  54.854  1.00  0.00     0.105 A 
HETATM   21  C   UNL     1       8.079  22.296  53.702  1.00  0.00     0.105 A 
HETATM   22  O   UNL     1       8.896  20.427  54.706  1.00  0.00    -0.323 OA
HETATM   23  O   UNL     1       8.009  21.398  52.684  1.00  0.00    -0.323 OA
HETATM   24  C   UNL     1       7.699  23.618  53.638  1.00  0.00     0.040 A 
HETATM   25  C   UNL     1       8.544  20.220  53.322  1.00  0.00     0.352 A 
HETATM   26  C   UNL     1       7.853  24.394  54.791  1.00  0.00     0.012 A 
ENDBRANCH  17  18
ENDBRANCH  14  17
ENDBRANCH  10  13
BRANCH   4  27
HETATM   27  C   UNL     1       7.533  31.993  59.269  1.00  0.00     0.237 C 
BRANCH  27  28
HETATM   28  C   UNL     1       7.346  31.957  60.786  1.00  0.00     0.240 C 
HETATM   29  N   UNL     1       6.811  33.107  61.332  1.00  0.00    -0.326 N 
HETATM   30  H   UNL     1       6.566  33.845  60.680  1.00  0.00     0.169 HD
HETATM   31  O   UNL     1       7.613  30.921  61.394  1.00  0.00    -0.271 OA
BRANCH  29  32
HETATM   32  C   UNL     1       6.544  33.352  62.698  1.00  0.00     0.034 A 
HETATM   33  C   UNL     1       7.501  33.239  63.712  1.00  0.00     0.031 A 
HETATM   34  C   UNL     1       7.167  33.498  65.046  1.00  0.00     0.021 A 
HETATM   35  C   UNL     1       5.870  33.875  65.374  1.00  0.00     0.011 A 
HETATM   36 BR   UNL     1       5.419  34.223  67.175  1.00  0.00    -0.051 Br
HETATM   37  C   UNL     1       4.904  33.996  64.378  1.00  0.00     0.021 A 
HETATM   38  C   UNL     1       5.243  33.735  63.044  1.00  0.00     0.031 A 
ENDBRANCH  29  32
ENDBRANCH  27  28
ENDBRANCH   4  27
BRANCH   1  39
HETATM   39  C   UNL     1       3.086  33.341  57.897  1.00  0.00     0.163 C 
BRANCH  39  40
HETATM   40  C   UNL     1       3.122  34.265  56.702  1.00  0.00    -0.017 C 
HETATM   41  C   UNL     1       3.162  35.606  56.678  1.00  0.00     0.008 C 
ENDBRANCH  39  40
ENDBRANCH   1  39
TORSDOF 8
ENDMDL
MODEL 9
REMARK VINA RESULT:      -9.1      3.420      9.468
REMARK  8 active torsions:
REMARK  status: ('A' for Active; 'I' for Inactive)
REMARK    1  A    between atoms: C_2  and  C_3 
REMARK    2  A    between atoms: C_3  and  N_4 
REMARK    3  A    between atoms: N_7  and  C_8 
REMARK    4  A    between atoms: C_8  and  C_9 
REMARK       I    between atoms: C_9  and  N_10 
REMARK    5  A    between atoms: N_10  and  C_11 
REMARK    6  A    between atoms: C_24  and  C_25 
REMARK       I    between atoms: C_25  and  N_26 
REMARK    7  A    between atoms: N_26  and  C_27 
REMARK    8  A    between atoms: C_27  and  C_28 
ROOT
HETATM    1  N   UNL     1       6.657  25.192  55.012  1.00  0.00    -0.262 N 
HETATM    2  C   UNL     1       7.405  26.048  55.808  1.00  0.00     0.332 C 
HETATM    3  O   UNL     1       8.260  25.643  56.596  1.00  0.00    -0.246 OA
HETATM    4  N   UNL     1       7.145  27.409  55.684  1.00  0.00    -0.290 N 
HETATM    5  C   UNL     1       6.045  27.902  54.928  1.00  0.00     0.056 A 
HETATM    6  C   UNL     1       5.246  27.008  54.219  1.00  0.00     0.059 A 
HETATM    7  C   UNL     1       5.571  25.574  54.237  1.00  0.00     0.264 C 
HETATM    8  O   UNL     1       4.876  24.797  53.588  1.00  0.00    -0.267 OA
HETATM    9  C   UNL     1       5.705  29.268  54.897  1.00  0.00     0.048 A 
HETATM   10  C   UNL     1       4.587  29.728  54.182  1.00  0.00     0.034 A 
HETATM   11  C   UNL     1       3.814  28.810  53.464  1.00  0.00     0.018 A 
HETATM   12  C   UNL     1       4.144  27.456  53.477  1.00  0.00     0.020 A 
ENDROOT
BRANCH  10  13
HETATM   13  C   UNL     1       4.127  31.152  54.230  1.00  0.00     0.252 C 
HETATM   14  N   UNL     1       4.969  32.074  54.810  1.00  0.00    -0.353 N 
HETATM   15  H   UNL     1       5.933  31.857  55.012  1.00  0.00     0.163 HD
HETATM   16  O   UNL     1       3.026  31.444  53.776  1.00  0.00    -0.268 OA
BRANCH  14  17
HETATM   17  C   UNL     1       4.574  33.451  54.999  1.00  0.00     0.161 C 
BRANCH  17  18
HETATM   18  C   UNL     1       4.138  33.697  56.420  1.00  0.00    -0.038 A 
HETATM   19  C   UNL     1       4.186  32.663  57.369  1.00  0.00     0.048 A 
HETATM   20  C   UNL     1       3.768  32.944  58.652  1.00  0.00     0.105 A 
HETATM   21  C   UNL     1       3.325  34.194  59.016  1.00  0.00     0.105 A 
HETATM   22  O   UNL     1       3.735  32.060  59.686  1.00  0.00    -0.323 OA
HETATM   23  O   UNL     1       2.954  34.252  60.323  1.00  0.00    -0.323 OA
HETATM   24  C   UNL     1       3.281  35.237  58.118  1.00  0.00     0.040 A 
HETATM   25  C   UNL     1       3.200  32.892  60.736  1.00  0.00     0.352 A 
HETATM   26  C   UNL     1       3.698  34.984  56.808  1.00  0.00     0.012 A 
ENDBRANCH  17  18
ENDBRANCH  14  17
ENDBRANCH  10  13
BRANCH   4  27
HETATM   27  C   UNL     1       8.148  28.336  56.227  1.00  0.00     0.237 C 
BRANCH  27  28
HETATM   28  C   UNL     1       8.009  28.714  57.702  1.00  0.00     0.240 C 
HETATM   29  N   UNL     1       8.289  30.036  57.990  1.00  0.00    -0.326 N 
HETATM   30  H   UNL     1       8.526  30.630  57.201  1.00  0.00     0.169 HD
HETATM   31  O   UNL     1       7.610  27.867  58.499  1.00  0.00    -0.271 OA
BRANCH  29  32
HETATM   32  C   UNL     1       8.254  30.651  59.261  1.00  0.00     0.034 A 
HETATM   33  C   UNL     1       9.262  30.515  60.222  1.00  0.00     0.031 A 
HETATM   34  C   UNL     1       9.161  31.155  61.462  1.00  0.00     0.021 A 
HETATM   35  C   UNL     1       8.051  31.940  61.748  1.00  0.00     0.011 A 
HETATM   36 BR   UNL     1       7.915  32.803  63.424  1.00  0.00    -0.051 Br
HETATM   37  C   UNL     1       7.039  32.091  60.803  1.00  0.00     0.021 A 
HETATM   38  C   UNL     1       7.143  31.447  59.564  1.00  0.00     0.031 A 
ENDBRANCH  29  32
ENDBRANCH  27  28
ENDBRANCH   4  27
BRANCH   1  39
HETATM   39  C   UNL     1       7.038  23.787  54.984  1.00  0.00     0.163 C 
BRANCH  39  40
HETATM   40  C   UNL     1       8.067  23.495  53.917  1.00  0.00    -0.017 C 
HETATM   41  C   UNL     1       7.876  23.068  52.660  1.00  0.00     0.008 C 
ENDBRANCH  39  40
ENDBRANCH   1  39
TORSDOF 8
ENDMDL
MODEL 10
REMARK VINA RESULT:      -8.9      5.467     10.340
REMARK  8 active torsions:
REMARK  status: ('A' for Active; 'I' for Inactive)
REMARK    1  A    between atoms: C_2  and  C_3 
REMARK    2  A    between atoms: C_3  and  N_4 
REMARK    3  A    between atoms: N_7  and  C_8 
REMARK    4  A    between atoms: C_8  and  C_9 
REMARK       I    between atoms: C_9  and  N_10 
REMARK    5  A    between atoms: N_10  and  C_11 
REMARK    6  A    between atoms: C_24  and  C_25 
REMARK       I    between atoms: C_25  and  N_26 
REMARK    7  A    between atoms: N_26  and  C_27 
REMARK    8  A    between atoms: C_27  and  C_28 
ROOT
HETATM    1  N   UNL     1       8.008  24.548  55.914  1.00  0.00    -0.262 N 
HETATM    2  C   UNL     1       8.042  25.860  56.365  1.00  0.00     0.332 C 
HETATM    3  O   UNL     1       8.670  26.199  57.370  1.00  0.00    -0.246 OA
HETATM    4  N   UNL     1       7.324  26.797  55.630  1.00  0.00    -0.290 N 
HETATM    5  C   UNL     1       6.442  26.418  54.580  1.00  0.00     0.056 A 
HETATM    6  C   UNL     1       6.349  25.077  54.214  1.00  0.00     0.059 A 
HETATM    7  C   UNL     1       7.188  24.081  54.896  1.00  0.00     0.264 C 
HETATM    8  O   UNL     1       7.119  22.905  54.549  1.00  0.00    -0.267 OA
HETATM    9  C   UNL     1       5.622  27.348  53.914  1.00  0.00     0.048 A 
HETATM   10  C   UNL     1       4.723  26.947  52.911  1.00  0.00     0.034 A 
HETATM   11  C   UNL     1       4.666  25.596  52.551  1.00  0.00     0.018 A 
HETATM   12  C   UNL     1       5.478  24.665  53.195  1.00  0.00     0.020 A 
ENDROOT
BRANCH  10  13
HETATM   13  C   UNL     1       3.752  27.889  52.272  1.00  0.00     0.252 C 
HETATM   14  N   UNL     1       3.838  28.063  50.909  1.00  0.00    -0.353 N 
HETATM   15  H   UNL     1       4.383  27.444  50.329  1.00  0.00     0.163 HD
HETATM   16  O   UNL     1       2.938  28.480  52.972  1.00  0.00    -0.268 OA
BRANCH  14  17
HETATM   17  C   UNL     1       3.018  29.028  50.212  1.00  0.00     0.161 C 
BRANCH  17  18
HETATM   18  C   UNL     1       2.349  28.405  49.015  1.00  0.00    -0.038 A 
HETATM   19  C   UNL     1       1.289  29.062  48.370  1.00  0.00     0.048 A 
HETATM   20  C   UNL     1       0.709  28.442  47.283  1.00  0.00     0.105 A 
HETATM   21  C   UNL     1       1.148  27.223  46.822  1.00  0.00     0.105 A 
HETATM   22  O   UNL     1      -0.331  28.929  46.554  1.00  0.00    -0.323 OA
HETATM   23  O   UNL     1       0.437  26.789  45.748  1.00  0.00    -0.323 OA
HETATM   24  C   UNL     1       2.197  26.558  47.417  1.00  0.00     0.040 A 
HETATM   25  C   UNL     1      -0.510  27.866  45.595  1.00  0.00     0.352 A 
HETATM   26  C   UNL     1       2.805  27.161  48.522  1.00  0.00     0.012 A 
ENDBRANCH  17  18
ENDBRANCH  14  17
ENDBRANCH  10  13
BRANCH   4  27
HETATM   27  C   UNL     1       7.633  28.215  55.865  1.00  0.00     0.237 C 
BRANCH  27  28
HETATM   28  C   UNL     1       7.142  28.818  57.181  1.00  0.00     0.240 C 
HETATM   29  N   UNL     1       7.928  29.840  57.678  1.00  0.00    -0.326 N 
HETATM   30  H   UNL     1       8.728  30.110  57.115  1.00  0.00     0.169 HD
HETATM   31  O   UNL     1       6.084  28.417  57.662  1.00  0.00    -0.271 OA
BRANCH  29  32
HETATM   32  C   UNL     1       7.719  30.563  58.874  1.00  0.00     0.034 A 
HETATM   33  C   UNL     1       6.742  31.553  59.027  1.00  0.00     0.031 A 
HETATM   34  C   UNL     1       6.591  32.229  60.242  1.00  0.00     0.021 A 
HETATM   35  C   UNL     1       7.416  31.917  61.316  1.00  0.00     0.011 A 
HETATM   36 BR   UNL     1       7.212  32.832  62.956  1.00  0.00    -0.051 Br
HETATM   37  C   UNL     1       8.392  30.932  61.184  1.00  0.00     0.021 A 
HETATM   38  C   UNL     1       8.541  30.259  59.965  1.00  0.00     0.031 A 
ENDBRANCH  29  32
ENDBRANCH  27  28
ENDBRANCH   4  27
BRANCH   1  39
HETATM   39  C   UNL     1       8.898  23.589  56.550  1.00  0.00     0.163 C 
BRANCH  39  40
HETATM   40  C   UNL     1       8.157  22.378  57.069  1.00  0.00    -0.017 C 
HETATM   41  C   UNL     1       8.579  21.107  57.154  1.00  0.00     0.008 C 
ENDBRANCH  39  40
ENDBRANCH   1  39
TORSDOF 8
ENDMDL
