MODEL 1
REMARK VINA RESULT:     -10.2      0.000      0.000
REMARK  5 active torsions:
REMARK  status: ('A' for Active; 'I' for Inactive)
REMARK    1  A    between atoms: C_4  and  C_5 
REMARK       I    between atoms: C_5  and  N_6 
REMARK    2  A    between atoms: C_9  and  C_10 
REMARK    3  A    between atoms: C_10  and  C_11 
REMARK    4  A    between atoms: N_20  and  C_21 
REMARK    5  A    between atoms: C_21  and  C_22 
ROOT
HETATM    1  C   UNL     1       5.336  26.780  52.899  1.00  0.00     0.148 A 
HETATM    2  N   UNL     1       6.771  27.036  52.815  1.00  0.00    -0.320 N 
HETATM    3  C   UNL     1       7.519  25.901  52.624  1.00  0.00     0.326 A 
HETATM    4  O   UNL     1       8.723  25.907  52.444  1.00  0.00    -0.247 OA
HETATM    5  N   UNL     1       6.699  24.828  52.711  1.00  0.00    -0.263 N 
HETATM    6  C   UNL     1       5.410  25.228  52.904  1.00  0.00     0.262 A 
HETATM    7  O   UNL     1       4.463  24.468  53.059  1.00  0.00    -0.270 OA
HETATM    8  H   UNL     1       7.200  27.937  52.644  1.00  0.00     0.166 HD
ENDROOT
BRANCH   1   9
HETATM    9  C   UNL     1       4.766  27.415  54.215  1.00  0.00     0.031 C 
HETATM   10  C   UNL     1       4.963  26.605  55.512  1.00  0.00     0.028 C 
HETATM   11  C   UNL     1       6.300  26.807  56.216  1.00  0.00     0.126 C 
HETATM   12  N   UNL     1       6.708  28.211  56.336  1.00  0.00    -0.350 N 
HETATM   13  C   UNL     1       7.697  28.468  57.286  1.00  0.00     0.251 C 
HETATM   14  C   UNL     1       6.523  29.050  55.153  1.00  0.00     0.126 C 
HETATM   15  O   UNL     1       8.123  27.602  58.060  1.00  0.00    -0.271 OA
HETATM   16  C   UNL     1       5.165  28.877  54.488  1.00  0.00     0.028 C 
BRANCH  13  17
HETATM   17  C   UNL     1       8.272  29.901  57.434  1.00  0.00     0.279 C 
HETATM   18  N   UNL     1       7.618  30.614  58.648  1.00  0.00    -0.062 N 
HETATM   19  C   UNL     1       6.126  30.786  58.479  1.00  0.00     0.270 C 
HETATM   20  H   UNL     1       7.723  29.943  59.427  1.00  0.00     0.280 HD
HETATM   21  C   UNL     1       8.257  31.923  59.017  1.00  0.00     0.235 C 
HETATM   22  C   UNL     1       9.745  31.746  59.246  1.00  0.00     0.028 C 
HETATM   23  C   UNL     1      10.417  31.140  58.025  1.00  0.00     0.004 C 
HETATM   24  C   UNL     1       9.783  29.803  57.675  1.00  0.00     0.043 C 
ENDBRANCH  13  17
ENDBRANCH   1   9
BRANCH   1  25
HETATM   25  C   UNL     1       4.668  27.354  51.650  1.00  0.00    -0.003 A 
HETATM   26  C   UNL     1       3.830  28.468  51.681  1.00  0.00     0.126 A 
HETATM   27  N   UNL     1       3.244  29.015  50.591  1.00  0.00    -0.272 NA
HETATM   28  C   UNL     1       3.484  28.430  49.400  1.00  0.00     0.116 A 
HETATM   29  C   UNL     1       4.301  27.328  49.246  1.00  0.00     0.020 A 
HETATM   30  C   UNL     1       4.902  26.791  50.382  1.00  0.00     0.013 A 
ENDBRANCH   1  25
BRANCH   5  31
HETATM   31  C   UNL     1       7.128  23.454  52.570  1.00  0.00     0.175 C 
BRANCH  31  32
HETATM   32  C   UNL     1       7.504  22.845  53.899  1.00  0.00    -0.040 A 
HETATM   33  C   UNL     1       7.648  21.455  54.025  1.00  0.00     0.012 A 
HETATM   34  C   UNL     1       7.982  20.891  55.258  1.00  0.00     0.043 A 
HETATM   35  C   UNL     1       8.158  21.712  56.364  1.00  0.00     0.116 A 
HETATM   36  F   UNL     1       8.479  21.169  57.546  1.00  0.00    -0.206 F 
HETATM   37  C   UNL     1       8.005  23.089  56.264  1.00  0.00     0.043 A 
HETATM   38  C   UNL     1       7.675  23.657  55.032  1.00  0.00     0.012 A 
ENDBRANCH  31  32
ENDBRANCH   5  31
TORSDOF 5
ENDMDL
MODEL 2
REMARK VINA RESULT:     -10.1      3.054      5.304
REMARK  5 active torsions:
REMARK  status: ('A' for Active; 'I' for Inactive)
REMARK    1  A    between atoms: C_4  and  C_5 
REMARK       I    between atoms: C_5  and  N_6 
REMARK    2  A    between atoms: C_9  and  C_10 
REMARK    3  A    between atoms: C_10  and  C_11 
REMARK    4  A    between atoms: N_20  and  C_21 
REMARK    5  A    between atoms: C_21  and  C_22 
ROOT
HETATM    1  C   UNL     1       5.946  28.600  56.044  1.00  0.00     0.148 A 
HETATM    2  N   UNL     1       5.290  27.776  57.056  1.00  0.00    -0.320 N 
HETATM    3  C   UNL     1       5.068  26.484  56.649  1.00  0.00     0.326 A 
HETATM    4  O   UNL     1       4.611  25.617  57.371  1.00  0.00    -0.247 OA
HETATM    5  N   UNL     1       5.403  26.382  55.342  1.00  0.00    -0.263 N 
HETATM    6  C   UNL     1       5.894  27.568  54.883  1.00  0.00     0.262 A 
HETATM    7  O   UNL     1       6.238  27.777  53.726  1.00  0.00    -0.270 OA
HETATM    8  H   UNL     1       5.225  27.994  58.042  1.00  0.00     0.166 HD
ENDROOT
BRANCH   1   9
HETATM    9  C   UNL     1       5.106  29.902  55.803  1.00  0.00     0.031 C 
HETATM   10  C   UNL     1       3.654  29.891  56.319  1.00  0.00     0.028 C 
HETATM   11  C   UNL     1       3.474  30.272  57.784  1.00  0.00     0.126 C 
HETATM   12  N   UNL     1       4.230  31.461  58.192  1.00  0.00    -0.350 N 
HETATM   13  C   UNL     1       3.808  32.061  59.378  1.00  0.00     0.251 C 
HETATM   14  C   UNL     1       5.609  31.555  57.715  1.00  0.00     0.126 C 
HETATM   15  O   UNL     1       2.796  31.697  59.990  1.00  0.00    -0.271 OA
HETATM   16  C   UNL     1       5.768  31.224  56.238  1.00  0.00     0.028 C 
BRANCH  13  17
HETATM   17  C   UNL     1       4.592  33.270  59.953  1.00  0.00     0.279 C 
HETATM   18  N   UNL     1       3.619  34.441  60.257  1.00  0.00    -0.062 N 
HETATM   19  C   UNL     1       2.931  34.953  59.013  1.00  0.00     0.270 C 
HETATM   20  H   UNL     1       2.867  34.010  60.821  1.00  0.00     0.280 HD
HETATM   21  C   UNL     1       4.236  35.578  61.020  1.00  0.00     0.235 C 
HETATM   22  C   UNL     1       4.877  35.078  62.300  1.00  0.00     0.028 C 
HETATM   23  C   UNL     1       5.907  34.000  62.009  1.00  0.00     0.004 C 
HETATM   24  C   UNL     1       5.269  32.840  61.261  1.00  0.00     0.043 C 
ENDBRANCH  13  17
ENDBRANCH   1   9
BRANCH   1  25
HETATM   25  C   UNL     1       7.364  28.912  56.519  1.00  0.00    -0.003 A 
HETATM   26  C   UNL     1       7.707  29.021  57.867  1.00  0.00     0.126 A 
HETATM   27  N   UNL     1       8.957  29.272  58.319  1.00  0.00    -0.272 NA
HETATM   28  C   UNL     1       9.928  29.437  57.399  1.00  0.00     0.116 A 
HETATM   29  C   UNL     1       9.708  29.347  56.039  1.00  0.00     0.020 A 
HETATM   30  C   UNL     1       8.415  29.076  55.598  1.00  0.00     0.013 A 
ENDBRANCH   1  25
BRANCH   5  31
HETATM   31  C   UNL     1       5.299  25.171  54.560  1.00  0.00     0.175 C 
BRANCH  31  32
HETATM   32  C   UNL     1       6.570  24.358  54.616  1.00  0.00    -0.040 A 
HETATM   33  C   UNL     1       7.056  23.723  53.462  1.00  0.00     0.012 A 
HETATM   34  C   UNL     1       8.223  22.959  53.517  1.00  0.00     0.043 A 
HETATM   35  C   UNL     1       8.896  22.819  54.723  1.00  0.00     0.116 A 
HETATM   36  F   UNL     1      10.016  22.087  54.774  1.00  0.00    -0.206 F 
HETATM   37  C   UNL     1       8.424  23.426  55.880  1.00  0.00     0.043 A 
HETATM   38  C   UNL     1       7.260  24.195  55.828  1.00  0.00     0.012 A 
ENDBRANCH  31  32
ENDBRANCH   5  31
TORSDOF 5
ENDMDL
MODEL 3
REMARK VINA RESULT:      -9.8      2.792      7.754
REMARK  5 active torsions:
REMARK  status: ('A' for Active; 'I' for Inactive)
REMARK    1  A    between atoms: C_4  and  C_5 
REMARK       I    between atoms: C_5  and  N_6 
REMARK    2  A    between atoms: C_9  and  C_10 
REMARK    3  A    between atoms: C_10  and  C_11 
REMARK    4  A    between atoms: N_20  and  C_21 
REMARK    5  A    between atoms: C_21  and  C_22 
ROOT
HETATM    1  C   UNL     1       6.692  26.447  54.901  1.00  0.00     0.148 A 
HETATM    2  N   UNL     1       7.485  27.424  54.161  1.00  0.00    -0.320 N 
HETATM    3  C   UNL     1       8.336  28.151  54.956  1.00  0.00     0.326 A 
HETATM    4  O   UNL     1       9.143  28.955  54.525  1.00  0.00    -0.247 OA
HETATM    5  N   UNL     1       8.086  27.841  56.249  1.00  0.00    -0.263 N 
HETATM    6  C   UNL     1       7.120  26.883  56.330  1.00  0.00     0.262 A 
HETATM    7  O   UNL     1       6.665  26.441  57.378  1.00  0.00    -0.270 OA
HETATM    8  H   UNL     1       7.631  27.428  53.160  1.00  0.00     0.166 HD
ENDROOT
BRANCH   1   9
HETATM    9  C   UNL     1       5.170  26.656  54.579  1.00  0.00     0.031 C 
HETATM   10  C   UNL     1       4.610  28.076  54.793  1.00  0.00     0.028 C 
HETATM   11  C   UNL     1       4.796  29.038  53.625  1.00  0.00     0.126 C 
HETATM   12  N   UNL     1       4.458  28.466  52.317  1.00  0.00    -0.350 N 
HETATM   13  C   UNL     1       4.242  29.393  51.296  1.00  0.00     0.251 C 
HETATM   14  C   UNL     1       4.932  27.109  52.054  1.00  0.00     0.126 C 
HETATM   15  O   UNL     1       4.218  30.613  51.494  1.00  0.00    -0.271 OA
HETATM   16  C   UNL     1       4.693  26.144  53.207  1.00  0.00     0.028 C 
BRANCH  13  17
HETATM   17  C   UNL     1       3.969  28.899  49.851  1.00  0.00     0.279 C 
HETATM   18  N   UNL     1       2.651  29.521  49.316  1.00  0.00    -0.062 N 
HETATM   19  C   UNL     1       1.447  29.102  50.127  1.00  0.00     0.270 C 
HETATM   20  H   UNL     1       2.754  30.534  49.494  1.00  0.00     0.280 HD
HETATM   21  C   UNL     1       2.404  29.287  47.852  1.00  0.00     0.235 C 
HETATM   22  C   UNL     1       3.586  29.761  47.028  1.00  0.00     0.028 C 
HETATM   23  C   UNL     1       4.870  29.083  47.476  1.00  0.00     0.004 C 
HETATM   24  C   UNL     1       5.127  29.348  48.951  1.00  0.00     0.043 C 
ENDBRANCH  13  17
ENDBRANCH   1   9
BRANCH   1  25
HETATM   25  C   UNL     1       7.170  25.047  54.521  1.00  0.00    -0.003 A 
HETATM   26  C   UNL     1       6.967  23.929  55.331  1.00  0.00     0.126 A 
HETATM   27  N   UNL     1       7.357  22.674  55.011  1.00  0.00    -0.272 NA
HETATM   28  C   UNL     1       7.992  22.502  53.835  1.00  0.00     0.116 A 
HETATM   29  C   UNL     1       8.243  23.532  52.950  1.00  0.00     0.020 A 
HETATM   30  C   UNL     1       7.822  24.813  53.296  1.00  0.00     0.013 A 
ENDBRANCH   1  25
BRANCH   5  31
HETATM   31  C   UNL     1       8.781  28.414  57.380  1.00  0.00     0.175 C 
BRANCH  31  32
HETATM   32  C   UNL     1       8.034  29.591  57.959  1.00  0.00    -0.040 A 
HETATM   33  C   UNL     1       8.454  30.172  59.166  1.00  0.00     0.012 A 
HETATM   34  C   UNL     1       7.755  31.251  59.710  1.00  0.00     0.043 A 
HETATM   35  C   UNL     1       6.632  31.741  59.056  1.00  0.00     0.116 A 
HETATM   36  F   UNL     1       5.963  32.776  59.578  1.00  0.00    -0.206 F 
HETATM   37  C   UNL     1       6.190  31.170  57.869  1.00  0.00     0.043 A 
HETATM   38  C   UNL     1       6.889  30.094  57.320  1.00  0.00     0.012 A 
ENDBRANCH  31  32
ENDBRANCH   5  31
TORSDOF 5
ENDMDL
MODEL 4
REMARK VINA RESULT:      -9.6      2.679      7.664
REMARK  5 active torsions:
REMARK  status: ('A' for Active; 'I' for Inactive)
REMARK    1  A    between atoms: C_4  and  C_5 
REMARK       I    between atoms: C_5  and  N_6 
REMARK    2  A    between atoms: C_9  and  C_10 
REMARK    3  A    between atoms: C_10  and  C_11 
REMARK    4  A    between atoms: N_20  and  C_21 
REMARK    5  A    between atoms: C_21  and  C_22 
ROOT
HETATM    1  C   UNL     1       5.240  27.955  53.159  1.00  0.00     0.148 A 
HETATM    2  N   UNL     1       4.394  26.850  52.718  1.00  0.00    -0.320 N 
HETATM    3  C   UNL     1       5.097  25.714  52.406  1.00  0.00     0.326 A 
HETATM    4  O   UNL     1       4.575  24.657  52.099  1.00  0.00    -0.247 OA
HETATM    5  N   UNL     1       6.420  25.997  52.464  1.00  0.00    -0.263 N 
HETATM    6  C   UNL     1       6.612  27.287  52.861  1.00  0.00     0.262 A 
HETATM    7  O   UNL     1       7.706  27.828  52.961  1.00  0.00    -0.270 OA
HETATM    8  H   UNL     1       3.394  26.780  52.859  1.00  0.00     0.166 HD
ENDROOT
BRANCH   1   9
HETATM    9  C   UNL     1       4.930  29.229  52.299  1.00  0.00     0.031 C 
HETATM   10  C   UNL     1       5.766  29.417  51.018  1.00  0.00     0.028 C 
HETATM   11  C   UNL     1       5.250  28.687  49.784  1.00  0.00     0.126 C 
HETATM   12  N   UNL     1       3.806  28.827  49.564  1.00  0.00    -0.350 N 
HETATM   13  C   UNL     1       3.363  28.518  48.278  1.00  0.00     0.251 C 
HETATM   14  C   UNL     1       2.949  28.690  50.741  1.00  0.00     0.126 C 
HETATM   15  O   UNL     1       4.136  28.257  47.348  1.00  0.00    -0.271 OA
HETATM   16  C   UNL     1       3.447  29.465  51.952  1.00  0.00     0.028 C 
BRANCH  13  17
HETATM   17  C   UNL     1       1.845  28.541  47.958  1.00  0.00     0.279 C 
HETATM   18  N   UNL     1       1.470  29.873  47.254  1.00  0.00    -0.062 N 
HETATM   19  C   UNL     1       1.723  31.078  48.130  1.00  0.00     0.270 C 
HETATM   20  H   UNL     1       2.152  29.956  46.481  1.00  0.00     0.280 HD
HETATM   21  C   UNL     1       0.073  29.910  46.702  1.00  0.00     0.235 C 
HETATM   22  C   UNL     1      -0.168  28.735  45.774  1.00  0.00     0.028 C 
HETATM   23  C   UNL     1       0.099  27.418  46.482  1.00  0.00     0.004 C 
HETATM   24  C   UNL     1       1.523  27.376  47.013  1.00  0.00     0.043 C 
ENDBRANCH  13  17
ENDBRANCH   1   9
BRANCH   1  25
HETATM   25  C   UNL     1       4.989  28.193  54.647  1.00  0.00    -0.003 A 
HETATM   26  C   UNL     1       5.424  27.316  55.641  1.00  0.00     0.126 A 
HETATM   27  N   UNL     1       5.239  27.512  56.967  1.00  0.00    -0.272 NA
HETATM   28  C   UNL     1       4.580  28.626  57.343  1.00  0.00     0.116 A 
HETATM   29  C   UNL     1       4.108  29.568  56.450  1.00  0.00     0.020 A 
HETATM   30  C   UNL     1       4.322  29.349  55.091  1.00  0.00     0.013 A 
ENDBRANCH   1  25
BRANCH   5  31
HETATM   31  C   UNL     1       7.476  25.049  52.191  1.00  0.00     0.175 C 
BRANCH  31  32
HETATM   32  C   UNL     1       7.538  23.963  53.238  1.00  0.00    -0.040 A 
HETATM   33  C   UNL     1       7.395  24.282  54.598  1.00  0.00     0.012 A 
HETATM   34  C   UNL     1       7.467  23.280  55.567  1.00  0.00     0.043 A 
HETATM   35  C   UNL     1       7.694  21.965  55.181  1.00  0.00     0.116 A 
HETATM   36  F   UNL     1       7.762  21.005  56.112  1.00  0.00    -0.206 F 
HETATM   37  C   UNL     1       7.854  21.631  53.842  1.00  0.00     0.043 A 
HETATM   38  C   UNL     1       7.778  22.629  52.869  1.00  0.00     0.012 A 
ENDBRANCH  31  32
ENDBRANCH   5  31
TORSDOF 5
ENDMDL
MODEL 5
REMARK VINA RESULT:      -9.3      3.035      7.494
REMARK  5 active torsions:
REMARK  status: ('A' for Active; 'I' for Inactive)
REMARK    1  A    between atoms: C_4  and  C_5 
REMARK       I    between atoms: C_5  and  N_6 
REMARK    2  A    between atoms: C_9  and  C_10 
REMARK    3  A    between atoms: C_10  and  C_11 
REMARK    4  A    between atoms: N_20  and  C_21 
REMARK    5  A    between atoms: C_21  and  C_22 
ROOT
HETATM    1  C   UNL     1       6.669  25.371  54.121  1.00  0.00     0.148 A 
HETATM    2  N   UNL     1       7.539  26.522  53.901  1.00  0.00    -0.320 N 
HETATM    3  C   UNL     1       7.645  27.344  54.995  1.00  0.00     0.326 A 
HETATM    4  O   UNL     1       8.385  28.309  55.047  1.00  0.00    -0.247 OA
HETATM    5  N   UNL     1       6.777  26.914  55.941  1.00  0.00    -0.263 N 
HETATM    6  C   UNL     1       6.133  25.789  55.519  1.00  0.00     0.262 A 
HETATM    7  O   UNL     1       5.263  25.207  56.154  1.00  0.00    -0.270 OA
HETATM    8  H   UNL     1       8.216  26.616  53.155  1.00  0.00     0.166 HD
ENDROOT
BRANCH   1   9
HETATM    9  C   UNL     1       5.581  25.313  52.992  1.00  0.00     0.031 C 
HETATM   10  C   UNL     1       4.222  25.967  53.310  1.00  0.00     0.028 C 
HETATM   11  C   UNL     1       4.139  27.467  53.053  1.00  0.00     0.126 C 
HETATM   12  N   UNL     1       4.703  27.888  51.765  1.00  0.00    -0.350 N 
HETATM   13  C   UNL     1       4.312  29.152  51.324  1.00  0.00     0.251 C 
HETATM   14  C   UNL     1       5.979  27.285  51.382  1.00  0.00     0.126 C 
HETATM   15  O   UNL     1       3.459  29.831  51.909  1.00  0.00    -0.271 OA
HETATM   16  C   UNL     1       6.032  25.779  51.594  1.00  0.00     0.028 C 
BRANCH  13  17
HETATM   17  C   UNL     1       4.918  29.737  50.022  1.00  0.00     0.279 C 
HETATM   18  N   UNL     1       3.808  29.920  48.953  1.00  0.00    -0.062 N 
HETATM   19  C   UNL     1       3.170  28.609  48.555  1.00  0.00     0.270 C 
HETATM   20  H   UNL     1       3.062  30.442  49.444  1.00  0.00     0.280 HD
HETATM   21  C   UNL     1       4.241  30.683  47.733  1.00  0.00     0.235 C 
HETATM   22  C   UNL     1       4.827  32.026  48.122  1.00  0.00     0.028 C 
HETATM   23  C   UNL     1       5.983  31.856  49.093  1.00  0.00     0.004 C 
HETATM   24  C   UNL     1       5.531  31.108  50.337  1.00  0.00     0.043 C 
ENDBRANCH  13  17
ENDBRANCH   1   9
BRANCH   1  25
HETATM   25  C   UNL     1       7.531  24.111  54.151  1.00  0.00    -0.003 A 
HETATM   26  C   UNL     1       7.546  23.175  53.116  1.00  0.00     0.126 A 
HETATM   27  N   UNL     1       8.316  22.063  53.102  1.00  0.00    -0.272 NA
HETATM   28  C   UNL     1       9.113  21.847  54.168  1.00  0.00     0.116 A 
HETATM   29  C   UNL     1       9.187  22.706  55.247  1.00  0.00     0.020 A 
HETATM   30  C   UNL     1       8.392  23.850  55.232  1.00  0.00     0.013 A 
ENDBRANCH   1  25
BRANCH   5  31
HETATM   31  C   UNL     1       6.598  27.534  57.234  1.00  0.00     0.175 C 
BRANCH  31  32
HETATM   32  C   UNL     1       5.790  28.806  57.138  1.00  0.00    -0.040 A 
HETATM   33  C   UNL     1       4.531  28.799  56.518  1.00  0.00     0.012 A 
HETATM   34  C   UNL     1       3.790  29.978  56.417  1.00  0.00     0.043 A 
HETATM   35  C   UNL     1       4.310  31.163  56.921  1.00  0.00     0.116 A 
HETATM   36  F   UNL     1       3.598  32.292  56.824  1.00  0.00    -0.206 F 
HETATM   37  C   UNL     1       5.561  31.194  57.525  1.00  0.00     0.043 A 
HETATM   38  C   UNL     1       6.304  30.017  57.632  1.00  0.00     0.012 A 
ENDBRANCH  31  32
ENDBRANCH   5  31
TORSDOF 5
ENDMDL
MODEL 6
REMARK VINA RESULT:      -9.2      2.602      3.811
REMARK  5 active torsions:
REMARK  status: ('A' for Active; 'I' for Inactive)
REMARK    1  A    between atoms: C_4  and  C_5 
REMARK       I    between atoms: C_5  and  N_6 
REMARK    2  A    between atoms: C_9  and  C_10 
REMARK    3  A    between atoms: C_10  and  C_11 
REMARK    4  A    between atoms: N_20  and  C_21 
REMARK    5  A    between atoms: C_21  and  C_22 
ROOT
HETATM    1  C   UNL     1       7.142  27.135  55.599  1.00  0.00     0.148 A 
HETATM    2  N   UNL     1       7.876  27.261  54.343  1.00  0.00    -0.320 N 
HETATM    3  C   UNL     1       7.611  26.252  53.452  1.00  0.00     0.326 A 
HETATM    4  O   UNL     1       8.055  26.217  52.319  1.00  0.00    -0.247 OA
HETATM    5  N   UNL     1       6.833  25.330  54.066  1.00  0.00    -0.263 N 
HETATM    6  C   UNL     1       6.529  25.732  55.333  1.00  0.00     0.262 A 
HETATM    7  O   UNL     1       5.873  25.075  56.131  1.00  0.00    -0.270 OA
HETATM    8  H   UNL     1       8.329  28.101  54.007  1.00  0.00     0.166 HD
ENDROOT
BRANCH   1   9
HETATM    9  C   UNL     1       8.147  27.195  56.802  1.00  0.00     0.031 C 
HETATM   10  C   UNL     1       9.339  28.161  56.658  1.00  0.00     0.028 C 
HETATM   11  C   UNL     1       9.064  29.606  57.059  1.00  0.00     0.126 C 
HETATM   12  N   UNL     1       8.346  29.750  58.330  1.00  0.00    -0.350 N 
HETATM   13  C   UNL     1       8.415  31.014  58.917  1.00  0.00     0.251 C 
HETATM   14  C   UNL     1       7.220  28.845  58.551  1.00  0.00     0.126 C 
HETATM   15  O   UNL     1       9.124  31.923  58.469  1.00  0.00    -0.271 OA
HETATM   16  C   UNL     1       7.522  27.396  58.196  1.00  0.00     0.028 C 
BRANCH  13  17
HETATM   17  C   UNL     1       7.617  31.307  60.214  1.00  0.00     0.279 C 
HETATM   18  N   UNL     1       8.592  31.637  61.376  1.00  0.00    -0.062 N 
HETATM   19  C   UNL     1       9.504  30.480  61.709  1.00  0.00     0.270 C 
HETATM   20  H   UNL     1       9.214  32.367  60.989  1.00  0.00     0.280 HD
HETATM   21  C   UNL     1       7.923  32.151  62.620  1.00  0.00     0.235 C 
HETATM   22  C   UNL     1       7.052  33.351  62.303  1.00  0.00     0.028 C 
HETATM   23  C   UNL     1       6.024  33.012  61.237  1.00  0.00     0.004 C 
HETATM   24  C   UNL     1       6.709  32.520  59.971  1.00  0.00     0.043 C 
ENDBRANCH  13  17
ENDBRANCH   1   9
BRANCH   1  25
HETATM   25  C   UNL     1       6.102  28.252  55.666  1.00  0.00    -0.003 A 
HETATM   26  C   UNL     1       6.369  29.564  55.276  1.00  0.00     0.126 A 
HETATM   27  N   UNL     1       5.463  30.569  55.300  1.00  0.00    -0.272 NA
HETATM   28  C   UNL     1       4.224  30.275  55.742  1.00  0.00     0.116 A 
HETATM   29  C   UNL     1       3.842  29.012  56.149  1.00  0.00     0.020 A 
HETATM   30  C   UNL     1       4.790  27.992  56.103  1.00  0.00     0.013 A 
ENDBRANCH   1  25
BRANCH   5  31
HETATM   31  C   UNL     1       6.353  24.116  53.445  1.00  0.00     0.175 C 
BRANCH  31  32
HETATM   32  C   UNL     1       7.206  22.925  53.810  1.00  0.00    -0.040 A 
HETATM   33  C   UNL     1       7.812  22.154  52.806  1.00  0.00     0.012 A 
HETATM   34  C   UNL     1       8.589  21.045  53.142  1.00  0.00     0.043 A 
HETATM   35  C   UNL     1       8.750  20.698  54.478  1.00  0.00     0.116 A 
HETATM   36  F   UNL     1       9.497  19.634  54.799  1.00  0.00    -0.206 F 
HETATM   37  C   UNL     1       8.146  21.439  55.486  1.00  0.00     0.043 A 
HETATM   38  C   UNL     1       7.372  22.552  55.154  1.00  0.00     0.012 A 
ENDBRANCH  31  32
ENDBRANCH   5  31
TORSDOF 5
ENDMDL
MODEL 7
REMARK VINA RESULT:      -9.1      3.646      4.306
REMARK  5 active torsions:
REMARK  status: ('A' for Active; 'I' for Inactive)
REMARK    1  A    between atoms: C_4  and  C_5 
REMARK       I    between atoms: C_5  and  N_6 
REMARK    2  A    between atoms: C_9  and  C_10 
REMARK    3  A    between atoms: C_10  and  C_11 
REMARK    4  A    between atoms: N_20  and  C_21 
REMARK    5  A    between atoms: C_21  and  C_22 
ROOT
HETATM    1  C   UNL     1       5.251  27.789  53.548  1.00  0.00     0.148 A 
HETATM    2  N   UNL     1       6.439  28.606  53.783  1.00  0.00    -0.320 N 
HETATM    3  C   UNL     1       7.444  27.934  54.431  1.00  0.00     0.326 A 
HETATM    4  O   UNL     1       8.546  28.408  54.646  1.00  0.00    -0.247 OA
HETATM    5  N   UNL     1       6.980  26.718  54.801  1.00  0.00    -0.263 N 
HETATM    6  C   UNL     1       5.700  26.545  54.365  1.00  0.00     0.262 A 
HETATM    7  O   UNL     1       5.016  25.555  54.591  1.00  0.00    -0.270 OA
HETATM    8  H   UNL     1       6.657  29.477  53.316  1.00  0.00     0.166 HD
ENDROOT
BRANCH   1   9
HETATM    9  C   UNL     1       3.988  28.526  54.115  1.00  0.00     0.031 C 
HETATM   10  C   UNL     1       4.052  28.969  55.590  1.00  0.00     0.028 C 
HETATM   11  C   UNL     1       4.719  30.316  55.843  1.00  0.00     0.126 C 
HETATM   12  N   UNL     1       4.286  31.381  54.932  1.00  0.00    -0.350 N 
HETATM   13  C   UNL     1       4.561  32.681  55.356  1.00  0.00     0.251 C 
HETATM   14  C   UNL     1       4.173  31.026  53.518  1.00  0.00     0.126 C 
HETATM   15  O   UNL     1       5.031  32.936  56.472  1.00  0.00    -0.271 OA
HETATM   16  C   UNL     1       3.459  29.704  53.275  1.00  0.00     0.028 C 
BRANCH  13  17
HETATM   17  C   UNL     1       4.231  33.881  54.430  1.00  0.00     0.279 C 
HETATM   18  N   UNL     1       3.151  34.781  55.089  1.00  0.00    -0.062 N 
HETATM   19  C   UNL     1       1.844  34.052  55.298  1.00  0.00     0.270 C 
HETATM   20  H   UNL     1       3.513  34.960  56.042  1.00  0.00     0.280 HD
HETATM   21  C   UNL     1       2.916  36.086  54.383  1.00  0.00     0.235 C 
HETATM   22  C   UNL     1       4.216  36.850  54.224  1.00  0.00     0.028 C 
HETATM   23  C   UNL     1       5.252  36.016  53.490  1.00  0.00     0.004 C 
HETATM   24  C   UNL     1       5.505  34.709  54.225  1.00  0.00     0.043 C 
ENDBRANCH  13  17
ENDBRANCH   1   9
BRANCH   1  25
HETATM   25  C   UNL     1       5.135  27.524  52.048  1.00  0.00    -0.003 A 
HETATM   26  C   UNL     1       5.358  28.507  51.083  1.00  0.00     0.126 A 
HETATM   27  N   UNL     1       5.286  28.297  49.748  1.00  0.00    -0.272 NA
HETATM   28  C   UNL     1       4.968  27.056  49.332  1.00  0.00     0.116 A 
HETATM   29  C   UNL     1       4.731  26.003  50.194  1.00  0.00     0.020 A 
HETATM   30  C   UNL     1       4.822  26.241  51.563  1.00  0.00     0.013 A 
ENDBRANCH   1  25
BRANCH   5  31
HETATM   31  C   UNL     1       7.752  25.726  55.515  1.00  0.00     0.175 C 
BRANCH  31  32
HETATM   32  C   UNL     1       7.822  24.421  54.759  1.00  0.00    -0.040 A 
HETATM   33  C   UNL     1       7.974  24.418  53.363  1.00  0.00     0.012 A 
HETATM   34  C   UNL     1       8.024  23.211  52.663  1.00  0.00     0.043 A 
HETATM   35  C   UNL     1       7.911  22.011  53.353  1.00  0.00     0.116 A 
HETATM   36  F   UNL     1       7.961  20.855  52.680  1.00  0.00    -0.206 F 
HETATM   37  C   UNL     1       7.745  21.992  54.732  1.00  0.00     0.043 A 
HETATM   38  C   UNL     1       7.698  23.197  55.436  1.00  0.00     0.012 A 
ENDBRANCH  31  32
ENDBRANCH   5  31
TORSDOF 5
ENDMDL
MODEL 8
REMARK VINA RESULT:      -8.9      1.996      6.777
REMARK  5 active torsions:
REMARK  status: ('A' for Active; 'I' for Inactive)
REMARK    1  A    between atoms: C_4  and  C_5 
REMARK       I    between atoms: C_5  and  N_6 
REMARK    2  A    between atoms: C_9  and  C_10 
REMARK    3  A    between atoms: C_10  and  C_11 
REMARK    4  A    between atoms: N_20  and  C_21 
REMARK    5  A    between atoms: C_21  and  C_22 
ROOT
HETATM    1  C   UNL     1       7.338  26.858  55.542  1.00  0.00     0.148 A 
HETATM    2  N   UNL     1       5.935  26.461  55.464  1.00  0.00    -0.320 N 
HETATM    3  C   UNL     1       5.698  25.194  55.934  1.00  0.00     0.326 A 
HETATM    4  O   UNL     1       4.586  24.707  56.034  1.00  0.00    -0.247 OA
HETATM    5  N   UNL     1       6.887  24.609  56.211  1.00  0.00    -0.263 N 
HETATM    6  C   UNL     1       7.910  25.482  55.985  1.00  0.00     0.262 A 
HETATM    7  O   UNL     1       9.097  25.209  56.113  1.00  0.00    -0.270 OA
HETATM    8  H   UNL     1       5.151  27.090  55.340  1.00  0.00     0.166 HD
ENDROOT
BRANCH   1   9
HETATM    9  C   UNL     1       7.824  27.348  54.133  1.00  0.00     0.031 C 
HETATM   10  C   UNL     1       7.830  26.299  53.003  1.00  0.00     0.028 C 
HETATM   11  C   UNL     1       6.505  26.113  52.274  1.00  0.00     0.126 C 
HETATM   12  N   UNL     1       5.842  27.369  51.902  1.00  0.00    -0.350 N 
HETATM   13  C   UNL     1       4.857  27.259  50.921  1.00  0.00     0.251 C 
HETATM   14  C   UNL     1       5.823  28.422  52.916  1.00  0.00     0.126 C 
HETATM   15  O   UNL     1       4.630  26.205  50.315  1.00  0.00    -0.271 OA
HETATM   16  C   UNL     1       7.166  28.635  53.601  1.00  0.00     0.028 C 
BRANCH  13  17
HETATM   17  C   UNL     1       4.027  28.506  50.517  1.00  0.00     0.279 C 
HETATM   18  N   UNL     1       3.929  28.602  48.971  1.00  0.00    -0.062 N 
HETATM   19  C   UNL     1       5.280  28.780  48.319  1.00  0.00     0.270 C 
HETATM   20  H   UNL     1       3.610  27.664  48.675  1.00  0.00     0.280 HD
HETATM   21  C   UNL     1       2.966  29.644  48.475  1.00  0.00     0.235 C 
HETATM   22  C   UNL     1       1.592  29.434  49.080  1.00  0.00     0.028 C 
HETATM   23  C   UNL     1       1.659  29.439  50.598  1.00  0.00     0.004 C 
HETATM   24  C   UNL     1       2.613  28.364  51.094  1.00  0.00     0.043 C 
ENDBRANCH  13  17
ENDBRANCH   1   9
BRANCH   1  25
HETATM   25  C   UNL     1       7.475  27.946  56.606  1.00  0.00    -0.003 A 
HETATM   26  C   UNL     1       8.685  28.250  57.229  1.00  0.00     0.126 A 
HETATM   27  N   UNL     1       8.844  29.223  58.156  1.00  0.00    -0.272 NA
HETATM   28  C   UNL     1       7.752  29.935  58.501  1.00  0.00     0.116 A 
HETATM   29  C   UNL     1       6.504  29.727  57.947  1.00  0.00     0.020 A 
HETATM   30  C   UNL     1       6.370  28.727  56.987  1.00  0.00     0.013 A 
ENDBRANCH   1  25
BRANCH   5  31
HETATM   31  C   UNL     1       7.042  23.266  56.721  1.00  0.00     0.175 C 
BRANCH  31  32
HETATM   32  C   UNL     1       7.518  22.312  55.652  1.00  0.00    -0.040 A 
HETATM   33  C   UNL     1       7.449  22.675  54.297  1.00  0.00     0.012 A 
HETATM   34  C   UNL     1       7.876  21.788  53.308  1.00  0.00     0.043 A 
HETATM   35  C   UNL     1       8.360  20.537  53.669  1.00  0.00     0.116 A 
HETATM   36  F   UNL     1       8.770  19.687  52.719  1.00  0.00    -0.206 F 
HETATM   37  C   UNL     1       8.422  20.152  55.003  1.00  0.00     0.043 A 
HETATM   38  C   UNL     1       8.000  21.038  55.995  1.00  0.00     0.012 A 
ENDBRANCH  31  32
ENDBRANCH   5  31
TORSDOF 5
ENDMDL
MODEL 9
REMARK VINA RESULT:      -8.6      2.998      6.190
REMARK  5 active torsions:
REMARK  status: ('A' for Active; 'I' for Inactive)
REMARK    1  A    between atoms: C_4  and  C_5 
REMARK       I    between atoms: C_5  and  N_6 
REMARK    2  A    between atoms: C_9  and  C_10 
REMARK    3  A    between atoms: C_10  and  C_11 
REMARK    4  A    between atoms: N_20  and  C_21 
REMARK    5  A    between atoms: C_21  and  C_22 
ROOT
HETATM    1  C   UNL     1       5.315  27.298  54.639  1.00  0.00     0.148 A 
HETATM    2  N   UNL     1       4.838  26.199  55.474  1.00  0.00    -0.320 N 
HETATM    3  C   UNL     1       5.838  25.361  55.898  1.00  0.00     0.326 A 
HETATM    4  O   UNL     1       5.663  24.435  56.670  1.00  0.00    -0.247 OA
HETATM    5  N   UNL     1       6.991  25.724  55.288  1.00  0.00    -0.263 N 
HETATM    6  C   UNL     1       6.789  26.822  54.506  1.00  0.00     0.262 A 
HETATM    7  O   UNL     1       7.648  27.344  53.806  1.00  0.00    -0.270 OA
HETATM    8  H   UNL     1       3.939  26.158  55.936  1.00  0.00     0.166 HD
ENDROOT
BRANCH   1   9
HETATM    9  C   UNL     1       4.509  27.322  53.293  1.00  0.00     0.031 C 
HETATM   10  C   UNL     1       3.239  28.195  53.266  1.00  0.00     0.028 C 
HETATM   11  C   UNL     1       3.462  29.668  52.942  1.00  0.00     0.126 C 
HETATM   12  N   UNL     1       4.357  29.904  51.804  1.00  0.00    -0.350 N 
HETATM   13  C   UNL     1       4.285  31.177  51.239  1.00  0.00     0.251 C 
HETATM   14  C   UNL     1       5.570  29.090  51.747  1.00  0.00     0.126 C 
HETATM   15  O   UNL     1       3.447  32.018  51.587  1.00  0.00    -0.271 OA
HETATM   16  C   UNL     1       5.328  27.612  52.021  1.00  0.00     0.028 C 
BRANCH  13  17
HETATM   17  C   UNL     1       5.252  31.568  50.090  1.00  0.00     0.279 C 
HETATM   18  N   UNL     1       4.515  31.492  48.726  1.00  0.00    -0.062 N 
HETATM   19  C   UNL     1       4.041  30.094  48.405  1.00  0.00     0.270 C 
HETATM   20  H   UNL     1       3.651  32.042  48.869  1.00  0.00     0.280 HD
HETATM   21  C   UNL     1       5.290  32.061  47.570  1.00  0.00     0.235 C 
HETATM   22  C   UNL     1       5.718  33.486  47.862  1.00  0.00     0.028 C 
HETATM   23  C   UNL     1       6.527  33.560  49.146  1.00  0.00     0.004 C 
HETATM   24  C   UNL     1       5.727  33.009  50.315  1.00  0.00     0.043 C 
ENDBRANCH  13  17
ENDBRANCH   1   9
BRANCH   1  25
HETATM   25  C   UNL     1       5.164  28.601  55.421  1.00  0.00    -0.003 A 
HETATM   26  C   UNL     1       6.075  29.654  55.328  1.00  0.00     0.126 A 
HETATM   27  N   UNL     1       5.955  30.828  55.988  1.00  0.00    -0.272 NA
HETATM   28  C   UNL     1       4.887  30.980  56.795  1.00  0.00     0.116 A 
HETATM   29  C   UNL     1       3.917  30.011  56.962  1.00  0.00     0.020 A 
HETATM   30  C   UNL     1       4.057  28.815  56.262  1.00  0.00     0.013 A 
ENDBRANCH   1  25
BRANCH   5  31
HETATM   31  C   UNL     1       8.264  25.068  55.481  1.00  0.00     0.175 C 
BRANCH  31  32
HETATM   32  C   UNL     1       8.308  23.721  54.800  1.00  0.00    -0.040 A 
HETATM   33  C   UNL     1       7.974  23.603  53.442  1.00  0.00     0.012 A 
HETATM   34  C   UNL     1       8.001  22.355  52.816  1.00  0.00     0.043 A 
HETATM   35  C   UNL     1       8.349  21.227  53.547  1.00  0.00     0.116 A 
HETATM   36  F   UNL     1       8.375  20.031  52.945  1.00  0.00    -0.206 F 
HETATM   37  C   UNL     1       8.668  21.320  54.896  1.00  0.00     0.043 A 
HETATM   38  C   UNL     1       8.646  22.566  55.525  1.00  0.00     0.012 A 
ENDBRANCH  31  32
ENDBRANCH   5  31
TORSDOF 5
ENDMDL
MODEL 10
REMARK VINA RESULT:      -8.6      3.961      7.167
REMARK  5 active torsions:
REMARK  status: ('A' for Active; 'I' for Inactive)
REMARK    1  A    between atoms: C_4  and  C_5 
REMARK       I    between atoms: C_5  and  N_6 
REMARK    2  A    between atoms: C_9  and  C_10 
REMARK    3  A    between atoms: C_10  and  C_11 
REMARK    4  A    between atoms: N_20  and  C_21 
REMARK    5  A    between atoms: C_21  and  C_22 
ROOT
HETATM    1  C   UNL     1       4.159  30.877  52.046  1.00  0.00     0.148 A 
HETATM    2  N   UNL     1       5.479  30.472  51.569  1.00  0.00    -0.320 N 
HETATM    3  C   UNL     1       5.512  30.190  50.226  1.00  0.00     0.326 A 
HETATM    4  O   UNL     1       6.530  29.917  49.617  1.00  0.00    -0.247 OA
HETATM    5  N   UNL     1       4.246  30.233  49.747  1.00  0.00    -0.263 N 
HETATM    6  C   UNL     1       3.376  30.590  50.734  1.00  0.00     0.262 A 
HETATM    7  O   UNL     1       2.162  30.669  50.595  1.00  0.00    -0.270 OA
HETATM    8  H   UNL     1       6.353  30.620  52.057  1.00  0.00     0.166 HD
ENDROOT
BRANCH   1   9
HETATM    9  C   UNL     1       3.746  29.981  53.266  1.00  0.00     0.031 C 
HETATM   10  C   UNL     1       2.854  28.763  52.955  1.00  0.00     0.028 C 
HETATM   11  C   UNL     1       3.593  27.502  52.520  1.00  0.00     0.126 C 
HETATM   12  N   UNL     1       4.761  27.176  53.346  1.00  0.00    -0.350 N 
HETATM   13  C   UNL     1       5.224  25.865  53.237  1.00  0.00     0.251 C 
HETATM   14  C   UNL     1       5.638  28.289  53.706  1.00  0.00     0.126 C 
HETATM   15  O   UNL     1       4.631  24.997  52.585  1.00  0.00    -0.271 OA
HETATM   16  C   UNL     1       4.892  29.524  54.188  1.00  0.00     0.028 C 
BRANCH  13  17
HETATM   17  C   UNL     1       6.508  25.435  53.994  1.00  0.00     0.279 C 
HETATM   18  N   UNL     1       6.134  24.799  55.359  1.00  0.00    -0.062 N 
HETATM   19  C   UNL     1       5.427  25.773  56.273  1.00  0.00     0.270 C 
HETATM   20  H   UNL     1       5.422  24.087  55.125  1.00  0.00     0.280 HD
HETATM   21  C   UNL     1       7.283  24.148  56.076  1.00  0.00     0.235 C 
HETATM   22  C   UNL     1       7.960  23.125  55.185  1.00  0.00     0.028 C 
HETATM   23  C   UNL     1       8.422  23.758  53.883  1.00  0.00     0.004 C 
HETATM   24  C   UNL     1       7.250  24.390  53.150  1.00  0.00     0.043 C 
ENDBRANCH  13  17
ENDBRANCH   1   9
BRANCH   1  25
HETATM   25  C   UNL     1       4.211  32.358  52.415  1.00  0.00    -0.003 A 
HETATM   26  C   UNL     1       5.053  33.271  51.779  1.00  0.00     0.126 A 
HETATM   27  N   UNL     1       5.104  34.592  52.066  1.00  0.00    -0.272 NA
HETATM   28  C   UNL     1       4.290  35.047  53.039  1.00  0.00     0.116 A 
HETATM   29  C   UNL     1       3.410  34.239  53.732  1.00  0.00     0.020 A 
HETATM   30  C   UNL     1       3.368  32.885  53.411  1.00  0.00     0.013 A 
ENDBRANCH   1  25
BRANCH   5  31
HETATM   31  C   UNL     1       3.880  29.982  48.372  1.00  0.00     0.175 C 
BRANCH  31  32
HETATM   32  C   UNL     1       3.594  28.520  48.126  1.00  0.00    -0.040 A 
HETATM   33  C   UNL     1       2.277  28.038  48.176  1.00  0.00     0.012 A 
HETATM   34  C   UNL     1       2.014  26.684  47.964  1.00  0.00     0.043 A 
HETATM   35  C   UNL     1       3.064  25.810  47.714  1.00  0.00     0.116 A 
HETATM   36  F   UNL     1       2.810  24.512  47.509  1.00  0.00    -0.206 F 
HETATM   37  C   UNL     1       4.377  26.264  47.676  1.00  0.00     0.043 A 
HETATM   38  C   UNL     1       4.644  27.618  47.884  1.00  0.00     0.012 A 
ENDBRANCH  31  32
ENDBRANCH   5  31
TORSDOF 5
ENDMDL
