MODEL 1
REMARK VINA RESULT:     -11.7      0.000      0.000
REMARK  6 active torsions:
REMARK  status: ('A' for Active; 'I' for Inactive)
REMARK    1  A    between atoms: O_2  and  C_3 
REMARK    2  A    between atoms: C_6  and  N_7 
REMARK    3  A    between atoms: C_14  and  C_15 
REMARK       I    between atoms: C_15  and  N_16 
REMARK    4  A    between atoms: N_16  and  C_17 
REMARK    5  A    between atoms: C_20  and  C_21 
REMARK    6  A    between atoms: C_34  and  O_35 
ROOT
HETATM    1  N   UNL     1       6.392  31.973  60.797  1.00  0.00    -0.336 N 
HETATM    2  H   UNL     1       6.825  31.062  60.581  1.00  0.00     0.168 HD
HETATM    3  C   UNL     1       5.708  32.508  59.849  1.00  0.00     0.164 A 
HETATM    4  O   UNL     1       5.003  33.638  60.173  1.00  0.00    -0.289 OA
HETATM    5  C   UNL     1       4.127  34.250  59.254  1.00  0.00     0.121 A 
HETATM    6  C   UNL     1       3.950  33.692  57.992  1.00  0.00     0.002 A 
HETATM    7  C   UNL     1       4.708  32.500  57.626  1.00  0.00     0.035 A 
HETATM    8  C   UNL     1       5.585  31.939  58.476  1.00  0.00     0.084 A 
HETATM    9  C   UNL     1       3.452  35.406  59.666  1.00  0.00     0.102 A 
HETATM   10  C   UNL     1       2.569  36.007  58.771  1.00  0.00     0.040 A 
HETATM   11  C   UNL     1       2.373  35.456  57.499  1.00  0.00     0.004 A 
HETATM   12  C   UNL     1       3.062  34.303  57.108  1.00  0.00     0.014 A 
ENDROOT
BRANCH   8  13
HETATM   13  C   UNL     1       6.394  30.714  58.130  1.00  0.00     0.260 C 
HETATM   14  N   UNL     1       5.705  29.617  57.679  1.00  0.00    -0.323 N 
HETATM   15  H   UNL     1       4.700  29.672  57.585  1.00  0.00     0.169 HD
HETATM   16  O   UNL     1       7.615  30.820  58.254  1.00  0.00    -0.267 OA
BRANCH  14  17
HETATM   17  C   UNL     1       6.225  28.352  57.322  1.00  0.00     0.035 A 
HETATM   18  C   UNL     1       7.473  27.866  57.708  1.00  0.00     0.030 A 
HETATM   19  C   UNL     1       7.893  26.584  57.310  1.00  0.00     0.017 A 
HETATM   20  C   UNL     1       7.063  25.768  56.532  1.00  0.00     0.010 A 
HETATM   21  C   UNL     1       5.812  26.261  56.153  1.00  0.00     0.017 A 
HETATM   22  C   UNL     1       5.401  27.541  56.532  1.00  0.00     0.030 A 
BRANCH  20  23
HETATM   23  C   UNL     1       7.439  24.414  56.126  1.00  0.00     0.139 A 
HETATM   24  N   UNL     1       7.912  23.480  56.931  1.00  0.00    -0.228 NA
HETATM   25  C   UNL     1       8.099  22.364  56.155  1.00  0.00     0.086 A 
HETATM   26  C   UNL     1       7.711  22.605  54.843  1.00  0.00     0.062 A 
HETATM   27  C   UNL     1       8.590  21.099  56.505  1.00  0.00     0.034 A 
HETATM   28  N   UNL     1       7.304  23.914  54.850  1.00  0.00    -0.338 N 
HETATM   29  C   UNL     1       7.769  21.638  53.837  1.00  0.00     0.032 A 
HETATM   30  H   UNL     1       6.928  24.415  54.060  1.00  0.00     0.167 HD
HETATM   31  C   UNL     1       8.257  20.379  54.206  1.00  0.00     0.002 A 
HETATM   32  C   UNL     1       8.665  20.111  55.516  1.00  0.00     0.002 A 
ENDBRANCH  20  23
ENDBRANCH  14  17
ENDBRANCH   8  13
BRANCH   1  33
HETATM   33  C   UNL     1       6.572  32.403  62.127  1.00  0.00     0.034 A 
HETATM   34  C   UNL     1       5.405  32.631  62.876  1.00  0.00     0.032 A 
HETATM   35  C   UNL     1       5.480  33.085  64.202  1.00  0.00     0.039 A 
HETATM   36  C   UNL     1       6.720  33.297  64.799  1.00  0.00     0.068 A 
HETATM   37  C   UNL     1       7.878  33.030  64.070  1.00  0.00     0.039 A 
HETATM   38  C   UNL     1       7.812  32.583  62.745  1.00  0.00     0.032 A 
BRANCH  36  39
HETATM   39  O   UNL     1       6.939  33.741  66.070  1.00  0.00    -0.356 OA
HETATM   40  C   UNL     1       5.820  34.251  66.787  1.00  0.00     0.210 C 
ENDBRANCH  36  39
ENDBRANCH   1  33
BRANCH   9  41
HETATM   41  O   UNL     1       3.733  35.844  60.931  1.00  0.00    -0.353 OA
HETATM   42  C   UNL     1       2.767  35.566  61.940  1.00  0.00     0.210 C 
ENDBRANCH   9  41
TORSDOF 6
ENDMDL
MODEL 2
REMARK VINA RESULT:     -10.9      7.148     11.629
REMARK  6 active torsions:
REMARK  status: ('A' for Active; 'I' for Inactive)
REMARK    1  A    between atoms: O_2  and  C_3 
REMARK    2  A    between atoms: C_6  and  N_7 
REMARK    3  A    between atoms: C_14  and  C_15 
REMARK       I    between atoms: C_15  and  N_16 
REMARK    4  A    between atoms: N_16  and  C_17 
REMARK    5  A    between atoms: C_20  and  C_21 
REMARK    6  A    between atoms: C_34  and  O_35 
ROOT
HETATM    1  N   UNL     1       6.872  27.283  54.394  1.00  0.00    -0.336 N 
HETATM    2  H   UNL     1       6.362  27.905  53.748  1.00  0.00     0.168 HD
HETATM    3  C   UNL     1       6.981  26.057  54.024  1.00  0.00     0.164 A 
HETATM    4  O   UNL     1       7.785  25.260  54.795  1.00  0.00    -0.289 OA
HETATM    5  C   UNL     1       8.077  23.931  54.430  1.00  0.00     0.121 A 
HETATM    6  C   UNL     1       7.558  23.410  53.249  1.00  0.00     0.002 A 
HETATM    7  C   UNL     1       6.684  24.240  52.425  1.00  0.00     0.035 A 
HETATM    8  C   UNL     1       6.358  25.491  52.792  1.00  0.00     0.084 A 
HETATM    9  C   UNL     1       8.902  23.185  55.282  1.00  0.00     0.102 A 
HETATM   10  C   UNL     1       9.212  21.875  54.917  1.00  0.00     0.040 A 
HETATM   11  C   UNL     1       8.704  21.337  53.729  1.00  0.00     0.004 A 
HETATM   12  C   UNL     1       7.878  22.099  52.898  1.00  0.00     0.014 A 
ENDROOT
BRANCH   8  13
HETATM   13  C   UNL     1       5.450  26.376  51.974  1.00  0.00     0.260 C 
HETATM   14  N   UNL     1       5.669  26.414  50.621  1.00  0.00    -0.323 N 
HETATM   15  H   UNL     1       6.410  25.850  50.226  1.00  0.00     0.169 HD
HETATM   16  O   UNL     1       4.565  26.964  52.597  1.00  0.00    -0.267 OA
BRANCH  14  17
HETATM   17  C   UNL     1       4.982  27.179  49.651  1.00  0.00     0.035 A 
HETATM   18  C   UNL     1       3.949  26.702  48.846  1.00  0.00     0.030 A 
HETATM   19  C   UNL     1       3.318  27.550  47.918  1.00  0.00     0.017 A 
HETATM   20  C   UNL     1       3.706  28.889  47.794  1.00  0.00     0.010 A 
HETATM   21  C   UNL     1       4.740  29.361  48.608  1.00  0.00     0.017 A 
HETATM   22  C   UNL     1       5.379  28.515  49.517  1.00  0.00     0.030 A 
BRANCH  20  23
HETATM   23  C   UNL     1       3.055  29.820  46.871  1.00  0.00     0.139 A 
HETATM   24  N   UNL     1       1.751  29.934  46.698  1.00  0.00    -0.228 NA
HETATM   25  C   UNL     1       1.574  30.936  45.777  1.00  0.00     0.086 A 
HETATM   26  C   UNL     1       2.796  31.470  45.388  1.00  0.00     0.062 A 
HETATM   27  C   UNL     1       0.392  31.453  45.229  1.00  0.00     0.034 A 
HETATM   28  N   UNL     1       3.719  30.739  46.091  1.00  0.00    -0.338 N 
HETATM   29  C   UNL     1       2.917  32.522  44.478  1.00  0.00     0.032 A 
HETATM   30  H   UNL     1       4.717  30.881  46.071  1.00  0.00     0.167 HD
HETATM   31  C   UNL     1       1.727  33.029  43.944  1.00  0.00     0.002 A 
HETATM   32  C   UNL     1       0.483  32.504  44.308  1.00  0.00     0.002 A 
ENDBRANCH  20  23
ENDBRANCH  14  17
ENDBRANCH   8  13
BRANCH   1  33
HETATM   33  C   UNL     1       7.419  27.934  55.518  1.00  0.00     0.034 A 
HETATM   34  C   UNL     1       8.522  28.771  55.281  1.00  0.00     0.032 A 
HETATM   35  C   UNL     1       9.153  29.443  56.340  1.00  0.00     0.039 A 
HETATM   36  C   UNL     1       8.677  29.301  57.641  1.00  0.00     0.068 A 
HETATM   37  C   UNL     1       7.556  28.504  57.869  1.00  0.00     0.039 A 
HETATM   38  C   UNL     1       6.925  27.825  56.820  1.00  0.00     0.032 A 
BRANCH  36  39
HETATM   39  O   UNL     1       9.195  29.887  58.759  1.00  0.00    -0.356 OA
HETATM   40  C   UNL     1       8.273  30.432  59.698  1.00  0.00     0.210 C 
ENDBRANCH  36  39
ENDBRANCH   1  33
BRANCH   9  41
HETATM   41  O   UNL     1       9.330  23.825  56.412  1.00  0.00    -0.353 OA
HETATM   42  C   UNL     1       8.508  23.712  57.570  1.00  0.00     0.210 C 
ENDBRANCH   9  41
TORSDOF 6
ENDMDL
MODEL 3
REMARK VINA RESULT:     -10.8      4.348     11.361
REMARK  6 active torsions:
REMARK  status: ('A' for Active; 'I' for Inactive)
REMARK    1  A    between atoms: O_2  and  C_3 
REMARK    2  A    between atoms: C_6  and  N_7 
REMARK    3  A    between atoms: C_14  and  C_15 
REMARK       I    between atoms: C_15  and  N_16 
REMARK    4  A    between atoms: N_16  and  C_17 
REMARK    5  A    between atoms: C_20  and  C_21 
REMARK    6  A    between atoms: C_34  and  O_35 
ROOT
HETATM    1  N   UNL     1       5.612  27.122  54.239  1.00  0.00    -0.336 N 
HETATM    2  H   UNL     1       5.772  27.396  55.221  1.00  0.00     0.168 HD
HETATM    3  C   UNL     1       4.852  27.902  53.555  1.00  0.00     0.164 A 
HETATM    4  O   UNL     1       4.756  27.633  52.215  1.00  0.00    -0.289 OA
HETATM    5  C   UNL     1       4.049  28.481  51.340  1.00  0.00     0.121 A 
HETATM    6  C   UNL     1       3.445  29.633  51.835  1.00  0.00     0.002 A 
HETATM    7  C   UNL     1       3.522  29.924  53.262  1.00  0.00     0.035 A 
HETATM    8  C   UNL     1       4.151  29.094  54.113  1.00  0.00     0.084 A 
HETATM    9  C   UNL     1       3.995  28.126  49.987  1.00  0.00     0.102 A 
HETATM   10  C   UNL     1       3.314  28.970  49.111  1.00  0.00     0.040 A 
HETATM   11  C   UNL     1       2.707  30.137  49.589  1.00  0.00     0.004 A 
HETATM   12  C   UNL     1       2.769  30.468  50.946  1.00  0.00     0.014 A 
ENDROOT
BRANCH   8  13
HETATM   13  C   UNL     1       4.242  29.354  55.596  1.00  0.00     0.260 C 
HETATM   14  N   UNL     1       4.486  30.645  55.990  1.00  0.00    -0.323 N 
HETATM   15  H   UNL     1       4.582  31.363  55.286  1.00  0.00     0.169 HD
HETATM   16  O   UNL     1       4.055  28.380  56.328  1.00  0.00    -0.267 OA
BRANCH  14  17
HETATM   17  C   UNL     1       4.644  31.136  57.306  1.00  0.00     0.035 A 
HETATM   18  C   UNL     1       3.597  31.397  58.189  1.00  0.00     0.030 A 
HETATM   19  C   UNL     1       3.861  31.873  59.486  1.00  0.00     0.017 A 
HETATM   20  C   UNL     1       5.176  32.080  59.919  1.00  0.00     0.010 A 
HETATM   21  C   UNL     1       6.220  31.812  59.028  1.00  0.00     0.017 A 
HETATM   22  C   UNL     1       5.958  31.357  57.734  1.00  0.00     0.030 A 
BRANCH  20  23
HETATM   23  C   UNL     1       5.503  32.537  61.270  1.00  0.00     0.139 A 
HETATM   24  N   UNL     1       4.625  32.924  62.177  1.00  0.00    -0.228 NA
HETATM   25  C   UNL     1       5.348  33.235  63.301  1.00  0.00     0.086 A 
HETATM   26  C   UNL     1       6.703  33.013  63.093  1.00  0.00     0.062 A 
HETATM   27  C   UNL     1       4.912  33.706  64.547  1.00  0.00     0.034 A 
HETATM   28  N   UNL     1       6.775  32.578  61.795  1.00  0.00    -0.338 N 
HETATM   29  C   UNL     1       7.673  33.222  64.075  1.00  0.00     0.032 A 
HETATM   30  H   UNL     1       7.617  32.295  61.317  1.00  0.00     0.167 HD
HETATM   31  C   UNL     1       7.219  33.688  65.315  1.00  0.00     0.002 A 
HETATM   32  C   UNL     1       5.863  33.930  65.550  1.00  0.00     0.002 A 
ENDBRANCH  20  23
ENDBRANCH  14  17
ENDBRANCH   8  13
BRANCH   1  33
HETATM   33  C   UNL     1       6.334  25.984  53.827  1.00  0.00     0.034 A 
HETATM   34  C   UNL     1       6.138  24.812  54.576  1.00  0.00     0.032 A 
HETATM   35  C   UNL     1       6.832  23.633  54.260  1.00  0.00     0.039 A 
HETATM   36  C   UNL     1       7.711  23.608  53.181  1.00  0.00     0.068 A 
HETATM   37  C   UNL     1       7.873  24.760  52.411  1.00  0.00     0.039 A 
HETATM   38  C   UNL     1       7.190  25.941  52.724  1.00  0.00     0.032 A 
BRANCH  36  39
HETATM   39  O   UNL     1       8.452  22.540  52.767  1.00  0.00    -0.356 OA
HETATM   40  C   UNL     1       7.956  21.241  53.075  1.00  0.00     0.210 C 
ENDBRANCH  36  39
ENDBRANCH   1  33
BRANCH   9  41
HETATM   41  O   UNL     1       4.627  26.960  49.648  1.00  0.00    -0.353 OA
HETATM   42  C   UNL     1       3.936  26.086  48.761  1.00  0.00     0.210 C 
ENDBRANCH   9  41
TORSDOF 6
ENDMDL
MODEL 4
REMARK VINA RESULT:     -10.7      7.315     11.551
REMARK  6 active torsions:
REMARK  status: ('A' for Active; 'I' for Inactive)
REMARK    1  A    between atoms: O_2  and  C_3 
REMARK    2  A    between atoms: C_6  and  N_7 
REMARK    3  A    between atoms: C_14  and  C_15 
REMARK       I    between atoms: C_15  and  N_16 
REMARK    4  A    between atoms: N_16  and  C_17 
REMARK    5  A    between atoms: C_20  and  C_21 
REMARK    6  A    between atoms: C_34  and  O_35 
ROOT
HETATM    1  N   UNL     1       6.943  27.611  54.474  1.00  0.00    -0.336 N 
HETATM    2  H   UNL     1       6.469  28.275  53.841  1.00  0.00     0.168 HD
HETATM    3  C   UNL     1       7.003  26.393  54.066  1.00  0.00     0.164 A 
HETATM    4  O   UNL     1       7.761  25.538  54.822  1.00  0.00    -0.289 OA
HETATM    5  C   UNL     1       7.997  24.208  54.419  1.00  0.00     0.121 A 
HETATM    6  C   UNL     1       7.471  23.748  53.216  1.00  0.00     0.002 A 
HETATM    7  C   UNL     1       6.646  24.641  52.409  1.00  0.00     0.035 A 
HETATM    8  C   UNL     1       6.371  25.894  52.811  1.00  0.00     0.084 A 
HETATM    9  C   UNL     1       8.777  23.401  55.257  1.00  0.00     0.102 A 
HETATM   10  C   UNL     1       9.033  22.090  54.855  1.00  0.00     0.040 A 
HETATM   11  C   UNL     1       8.517  21.612  53.645  1.00  0.00     0.004 A 
HETATM   12  C   UNL     1       7.737  22.435  52.828  1.00  0.00     0.014 A 
ENDROOT
BRANCH   8  13
HETATM   13  C   UNL     1       5.514  26.843  52.010  1.00  0.00     0.260 C 
HETATM   14  N   UNL     1       5.923  27.128  50.733  1.00  0.00    -0.323 N 
HETATM   15  H   UNL     1       6.763  26.691  50.377  1.00  0.00     0.169 HD
HETATM   16  O   UNL     1       4.496  27.254  52.570  1.00  0.00    -0.267 OA
BRANCH  14  17
HETATM   17  C   UNL     1       5.317  28.000  49.801  1.00  0.00     0.035 A 
HETATM   18  C   UNL     1       5.394  29.392  49.846  1.00  0.00     0.030 A 
HETATM   19  C   UNL     1       4.765  30.173  48.861  1.00  0.00     0.017 A 
HETATM   20  C   UNL     1       4.062  29.571  47.810  1.00  0.00     0.010 A 
HETATM   21  C   UNL     1       3.994  28.175  47.770  1.00  0.00     0.017 A 
HETATM   22  C   UNL     1       4.603  27.399  48.759  1.00  0.00     0.030 A 
BRANCH  20  23
HETATM   23  C   UNL     1       3.424  30.338  46.741  1.00  0.00     0.139 A 
HETATM   24  N   UNL     1       4.062  31.000  45.792  1.00  0.00    -0.228 NA
HETATM   25  C   UNL     1       3.093  31.545  44.988  1.00  0.00     0.086 A 
HETATM   26  C   UNL     1       1.826  31.193  45.435  1.00  0.00     0.062 A 
HETATM   27  C   UNL     1       3.221  32.347  43.846  1.00  0.00     0.034 A 
HETATM   28  N   UNL     1       2.064  30.434  46.552  1.00  0.00    -0.338 N 
HETATM   29  C   UNL     1       0.650  31.587  44.793  1.00  0.00     0.032 A 
HETATM   30  H   UNL     1       1.359  29.987  47.118  1.00  0.00     0.167 HD
HETATM   31  C   UNL     1       0.797  32.384  43.651  1.00  0.00     0.002 A 
HETATM   32  C   UNL     1       2.059  32.762  43.184  1.00  0.00     0.002 A 
ENDBRANCH  20  23
ENDBRANCH  14  17
ENDBRANCH   8  13
BRANCH   1  33
HETATM   33  C   UNL     1       7.505  28.202  55.623  1.00  0.00     0.034 A 
HETATM   34  C   UNL     1       8.704  28.910  55.442  1.00  0.00     0.032 A 
HETATM   35  C   UNL     1       9.354  29.512  56.530  1.00  0.00     0.039 A 
HETATM   36  C   UNL     1       8.802  29.431  57.806  1.00  0.00     0.068 A 
HETATM   37  C   UNL     1       7.589  28.764  57.979  1.00  0.00     0.039 A 
HETATM   38  C   UNL     1       6.938  28.156  56.899  1.00  0.00     0.032 A 
BRANCH  36  39
HETATM   39  O   UNL     1       9.327  29.960  58.949  1.00  0.00    -0.356 OA
HETATM   40  C   UNL     1       8.410  30.430  59.932  1.00  0.00     0.210 C 
ENDBRANCH  36  39
ENDBRANCH   1  33
BRANCH   9  41
HETATM   41  O   UNL     1       9.219  23.987  56.411  1.00  0.00    -0.353 OA
HETATM   42  C   UNL     1       8.489  23.701  57.601  1.00  0.00     0.210 C 
ENDBRANCH   9  41
TORSDOF 6
ENDMDL
MODEL 5
REMARK VINA RESULT:     -10.6      1.446      2.201
REMARK  6 active torsions:
REMARK  status: ('A' for Active; 'I' for Inactive)
REMARK    1  A    between atoms: O_2  and  C_3 
REMARK    2  A    between atoms: C_6  and  N_7 
REMARK    3  A    between atoms: C_14  and  C_15 
REMARK       I    between atoms: C_15  and  N_16 
REMARK    4  A    between atoms: N_16  and  C_17 
REMARK    5  A    between atoms: C_20  and  C_21 
REMARK    6  A    between atoms: C_34  and  O_35 
ROOT
HETATM    1  N   UNL     1       4.982  32.686  61.119  1.00  0.00    -0.336 N 
HETATM    2  H   UNL     1       4.921  31.681  60.896  1.00  0.00     0.168 HD
HETATM    3  C   UNL     1       4.546  33.489  60.213  1.00  0.00     0.164 A 
HETATM    4  O   UNL     1       4.479  34.813  60.558  1.00  0.00    -0.289 OA
HETATM    5  C   UNL     1       3.913  35.773  59.696  1.00  0.00     0.121 A 
HETATM    6  C   UNL     1       3.387  35.375  58.470  1.00  0.00     0.002 A 
HETATM    7  C   UNL     1       3.467  33.971  58.081  1.00  0.00     0.035 A 
HETATM    8  C   UNL     1       4.052  33.057  58.874  1.00  0.00     0.084 A 
HETATM    9  C   UNL     1       3.893  37.106  60.125  1.00  0.00     0.102 A 
HETATM   10  C   UNL     1       3.316  38.059  59.287  1.00  0.00     0.040 A 
HETATM   11  C   UNL     1       2.776  37.676  58.053  1.00  0.00     0.004 A 
HETATM   12  C   UNL     1       2.812  36.340  57.644  1.00  0.00     0.014 A 
ENDROOT
BRANCH   8  13
HETATM   13  C   UNL     1       4.165  31.599  58.501  1.00  0.00     0.260 C 
HETATM   14  N   UNL     1       5.088  31.269  57.542  1.00  0.00    -0.323 N 
HETATM   15  H   UNL     1       5.657  31.999  57.135  1.00  0.00     0.169 HD
HETATM   16  O   UNL     1       3.433  30.826  59.121  1.00  0.00    -0.267 OA
BRANCH  14  17
HETATM   17  C   UNL     1       5.361  29.992  57.002  1.00  0.00     0.035 A 
HETATM   18  C   UNL     1       4.537  29.314  56.105  1.00  0.00     0.030 A 
HETATM   19  C   UNL     1       4.906  28.048  55.614  1.00  0.00     0.017 A 
HETATM   20  C   UNL     1       6.110  27.452  56.007  1.00  0.00     0.010 A 
HETATM   21  C   UNL     1       6.932  28.140  56.904  1.00  0.00     0.017 A 
HETATM   22  C   UNL     1       6.558  29.389  57.406  1.00  0.00     0.030 A 
BRANCH  20  23
HETATM   23  C   UNL     1       6.556  26.156  55.495  1.00  0.00     0.139 A 
HETATM   24  N   UNL     1       6.795  25.087  56.233  1.00  0.00    -0.228 NA
HETATM   25  C   UNL     1       7.156  24.092  55.359  1.00  0.00     0.086 A 
HETATM   26  C   UNL     1       7.115  24.549  54.048  1.00  0.00     0.062 A 
HETATM   27  C   UNL     1       7.523  22.763  55.613  1.00  0.00     0.034 A 
HETATM   28  N   UNL     1       6.740  25.863  54.163  1.00  0.00    -0.338 N 
HETATM   29  C   UNL     1       7.410  23.743  52.946  1.00  0.00     0.032 A 
HETATM   30  H   UNL     1       6.584  26.497  53.395  1.00  0.00     0.167 HD
HETATM   31  C   UNL     1       7.770  22.418  53.218  1.00  0.00     0.002 A 
HETATM   32  C   UNL     1       7.830  21.933  54.528  1.00  0.00     0.002 A 
ENDBRANCH  20  23
ENDBRANCH  14  17
ENDBRANCH   8  13
BRANCH   1  33
HETATM   33  C   UNL     1       5.456  32.969  62.415  1.00  0.00     0.034 A 
HETATM   34  C   UNL     1       6.850  32.954  62.589  1.00  0.00     0.032 A 
HETATM   35  C   UNL     1       7.419  33.198  63.849  1.00  0.00     0.039 A 
HETATM   36  C   UNL     1       6.603  33.478  64.942  1.00  0.00     0.068 A 
HETATM   37  C   UNL     1       5.221  33.535  64.760  1.00  0.00     0.039 A 
HETATM   38  C   UNL     1       4.646  33.287  63.508  1.00  0.00     0.032 A 
BRANCH  36  39
HETATM   39  O   UNL     1       7.017  33.727  66.218  1.00  0.00    -0.356 OA
HETATM   40  C   UNL     1       6.074  34.311  67.110  1.00  0.00     0.210 C 
ENDBRANCH  36  39
ENDBRANCH   1  33
BRANCH   9  41
HETATM   41  O   UNL     1       4.454  37.349  61.349  1.00  0.00    -0.353 OA
HETATM   42  C   UNL     1       3.564  37.498  62.450  1.00  0.00     0.210 C 
ENDBRANCH   9  41
TORSDOF 6
ENDMDL
MODEL 6
REMARK VINA RESULT:     -10.2      7.481     11.588
REMARK  6 active torsions:
REMARK  status: ('A' for Active; 'I' for Inactive)
REMARK    1  A    between atoms: O_2  and  C_3 
REMARK    2  A    between atoms: C_6  and  N_7 
REMARK    3  A    between atoms: C_14  and  C_15 
REMARK       I    between atoms: C_15  and  N_16 
REMARK    4  A    between atoms: N_16  and  C_17 
REMARK    5  A    between atoms: C_20  and  C_21 
REMARK    6  A    between atoms: C_34  and  O_35 
ROOT
HETATM    1  N   UNL     1       6.564  27.884  54.018  1.00  0.00    -0.336 N 
HETATM    2  H   UNL     1       6.180  28.515  53.297  1.00  0.00     0.168 HD
HETATM    3  C   UNL     1       6.779  26.673  53.646  1.00  0.00     0.164 A 
HETATM    4  O   UNL     1       7.429  25.869  54.545  1.00  0.00    -0.289 OA
HETATM    5  C   UNL     1       7.824  24.558  54.213  1.00  0.00     0.121 A 
HETATM    6  C   UNL     1       7.572  24.063  52.937  1.00  0.00     0.002 A 
HETATM    7  C   UNL     1       6.864  24.901  51.974  1.00  0.00     0.035 A 
HETATM    8  C   UNL     1       6.436  26.133  52.298  1.00  0.00     0.084 A 
HETATM    9  C   UNL     1       8.477  23.803  55.196  1.00  0.00     0.102 A 
HETATM   10  C   UNL     1       8.889  22.512  54.868  1.00  0.00     0.040 A 
HETATM   11  C   UNL     1       8.650  22.000  53.587  1.00  0.00     0.004 A 
HETATM   12  C   UNL     1       7.992  22.771  52.624  1.00  0.00     0.014 A 
ENDROOT
BRANCH   8  13
HETATM   13  C   UNL     1       5.692  27.024  51.335  1.00  0.00     0.260 C 
HETATM   14  N   UNL     1       4.761  26.426  50.524  1.00  0.00    -0.323 N 
HETATM   15  H   UNL     1       4.602  25.431  50.608  1.00  0.00     0.169 HD
HETATM   16  O   UNL     1       5.966  28.224  51.386  1.00  0.00    -0.267 OA
BRANCH  14  17
HETATM   17  C   UNL     1       3.962  27.030  49.527  1.00  0.00     0.035 A 
HETATM   18  C   UNL     1       4.004  26.710  48.171  1.00  0.00     0.030 A 
HETATM   19  C   UNL     1       3.155  27.362  47.258  1.00  0.00     0.017 A 
HETATM   20  C   UNL     1       2.245  28.332  47.694  1.00  0.00     0.010 A 
HETATM   21  C   UNL     1       2.206  28.644  49.056  1.00  0.00     0.017 A 
HETATM   22  C   UNL     1       3.062  28.011  49.961  1.00  0.00     0.030 A 
BRANCH  20  23
HETATM   23  C   UNL     1       1.315  29.009  46.790  1.00  0.00     0.139 A 
HETATM   24  N   UNL     1       0.059  28.657  46.584  1.00  0.00    -0.228 NA
HETATM   25  C   UNL     1      -0.453  29.570  45.697  1.00  0.00     0.086 A 
HETATM   26  C   UNL     1       0.500  30.524  45.364  1.00  0.00     0.062 A 
HETATM   27  C   UNL     1      -1.735  29.655  45.136  1.00  0.00     0.034 A 
HETATM   28  N   UNL     1       1.615  30.141  46.065  1.00  0.00    -0.338 N 
HETATM   29  C   UNL     1       0.247  31.590  44.498  1.00  0.00     0.032 A 
HETATM   30  H   UNL     1       2.496  30.631  46.078  1.00  0.00     0.167 HD
HETATM   31  C   UNL     1      -1.039  31.662  43.951  1.00  0.00     0.002 A 
HETATM   32  C   UNL     1      -2.016  30.710  44.260  1.00  0.00     0.002 A 
ENDBRANCH  20  23
ENDBRANCH  14  17
ENDBRANCH   8  13
BRANCH   1  33
HETATM   33  C   UNL     1       6.853  28.511  55.247  1.00  0.00     0.034 A 
HETATM   34  C   UNL     1       5.787  28.633  56.154  1.00  0.00     0.032 A 
HETATM   35  C   UNL     1       5.968  29.266  57.394  1.00  0.00     0.039 A 
HETATM   36  C   UNL     1       7.220  29.763  57.748  1.00  0.00     0.068 A 
HETATM   37  C   UNL     1       8.288  29.603  56.866  1.00  0.00     0.039 A 
HETATM   38  C   UNL     1       8.113  28.979  55.624  1.00  0.00     0.032 A 
BRANCH  36  39
HETATM   39  O   UNL     1       7.536  30.401  58.912  1.00  0.00    -0.356 OA
HETATM   40  C   UNL     1       8.705  31.214  58.915  1.00  0.00     0.210 C 
ENDBRANCH  36  39
ENDBRANCH   1  33
BRANCH   9  41
HETATM   41  O   UNL     1       8.648  24.417  56.406  1.00  0.00    -0.353 OA
HETATM   42  C   UNL     1       8.505  23.605  57.568  1.00  0.00     0.210 C 
ENDBRANCH   9  41
TORSDOF 6
ENDMDL
MODEL 7
REMARK VINA RESULT:     -10.0      2.043      5.371
REMARK  6 active torsions:
REMARK  status: ('A' for Active; 'I' for Inactive)
REMARK    1  A    between atoms: O_2  and  C_3 
REMARK    2  A    between atoms: C_6  and  N_7 
REMARK    3  A    between atoms: C_14  and  C_15 
REMARK       I    between atoms: C_15  and  N_16 
REMARK    4  A    between atoms: N_16  and  C_17 
REMARK    5  A    between atoms: C_20  and  C_21 
REMARK    6  A    between atoms: C_34  and  O_35 
ROOT
HETATM    1  N   UNL     1       3.881  32.284  56.671  1.00  0.00    -0.336 N 
HETATM    2  H   UNL     1       4.280  31.581  56.030  1.00  0.00     0.168 HD
HETATM    3  C   UNL     1       4.459  32.393  57.814  1.00  0.00     0.164 A 
HETATM    4  O   UNL     1       4.037  33.425  58.611  1.00  0.00    -0.289 OA
HETATM    5  C   UNL     1       4.669  33.720  59.835  1.00  0.00     0.121 A 
HETATM    6  C   UNL     1       5.762  32.963  60.246  1.00  0.00     0.002 A 
HETATM    7  C   UNL     1       6.212  31.849  59.418  1.00  0.00     0.035 A 
HETATM    8  C   UNL     1       5.583  31.528  58.275  1.00  0.00     0.084 A 
HETATM    9  C   UNL     1       4.167  34.788  60.589  1.00  0.00     0.102 A 
HETATM   10  C   UNL     1       4.800  35.098  61.792  1.00  0.00     0.040 A 
HETATM   11  C   UNL     1       5.905  34.353  62.219  1.00  0.00     0.004 A 
HETATM   12  C   UNL     1       6.385  33.288  61.451  1.00  0.00     0.014 A 
ENDROOT
BRANCH   8  13
HETATM   13  C   UNL     1       6.011  30.377  57.398  1.00  0.00     0.260 C 
HETATM   14  N   UNL     1       6.197  29.163  58.008  1.00  0.00    -0.323 N 
HETATM   15  H   UNL     1       6.033  29.082  59.002  1.00  0.00     0.169 HD
HETATM   16  O   UNL     1       6.124  30.626  56.197  1.00  0.00    -0.267 OA
BRANCH  14  17
HETATM   17  C   UNL     1       6.621  27.951  57.419  1.00  0.00     0.035 A 
HETATM   18  C   UNL     1       7.929  27.468  57.444  1.00  0.00     0.030 A 
HETATM   19  C   UNL     1       8.248  26.240  56.838  1.00  0.00     0.017 A 
HETATM   20  C   UNL     1       7.258  25.474  56.209  1.00  0.00     0.010 A 
HETATM   21  C   UNL     1       5.949  25.963  56.191  1.00  0.00     0.017 A 
HETATM   22  C   UNL     1       5.635  27.192  56.778  1.00  0.00     0.030 A 
BRANCH  20  23
HETATM   23  C   UNL     1       7.533  24.173  55.598  1.00  0.00     0.139 A 
HETATM   24  N   UNL     1       7.458  23.906  54.307  1.00  0.00    -0.228 NA
HETATM   25  C   UNL     1       7.823  22.591  54.166  1.00  0.00     0.086 A 
HETATM   26  C   UNL     1       8.155  22.037  55.396  1.00  0.00     0.062 A 
HETATM   27  C   UNL     1       7.905  21.801  53.012  1.00  0.00     0.034 A 
HETATM   28  N   UNL     1       7.955  23.059  56.288  1.00  0.00    -0.338 N 
HETATM   29  C   UNL     1       8.587  20.718  55.550  1.00  0.00     0.032 A 
HETATM   30  H   UNL     1       8.128  23.013  57.281  1.00  0.00     0.167 HD
HETATM   31  C   UNL     1       8.669  19.945  54.386  1.00  0.00     0.002 A 
HETATM   32  C   UNL     1       8.331  20.473  53.137  1.00  0.00     0.002 A 
ENDBRANCH  20  23
ENDBRANCH  14  17
ENDBRANCH   8  13
BRANCH   1  33
HETATM   33  C   UNL     1       2.828  33.043  56.120  1.00  0.00     0.034 A 
HETATM   34  C   UNL     1       1.976  32.375  55.226  1.00  0.00     0.032 A 
HETATM   35  C   UNL     1       0.914  33.053  54.606  1.00  0.00     0.039 A 
HETATM   36  C   UNL     1       0.682  34.396  54.888  1.00  0.00     0.068 A 
HETATM   37  C   UNL     1       1.503  35.047  55.809  1.00  0.00     0.039 A 
HETATM   38  C   UNL     1       2.567  34.380  56.426  1.00  0.00     0.032 A 
BRANCH  36  39
HETATM   39  O   UNL     1      -0.304  35.175  54.357  1.00  0.00    -0.356 OA
HETATM   40  C   UNL     1      -0.107  36.585  54.379  1.00  0.00     0.210 C 
ENDBRANCH  36  39
ENDBRANCH   1  33
BRANCH   9  41
HETATM   41  O   UNL     1       3.082  35.434  60.063  1.00  0.00    -0.353 OA
HETATM   42  C   UNL     1       1.819  35.169  60.665  1.00  0.00     0.210 C 
ENDBRANCH   9  41
TORSDOF 6
ENDMDL
MODEL 8
REMARK VINA RESULT:      -9.9      8.826     12.237
REMARK  6 active torsions:
REMARK  status: ('A' for Active; 'I' for Inactive)
REMARK    1  A    between atoms: O_2  and  C_3 
REMARK    2  A    between atoms: C_6  and  N_7 
REMARK    3  A    between atoms: C_14  and  C_15 
REMARK       I    between atoms: C_15  and  N_16 
REMARK    4  A    between atoms: N_16  and  C_17 
REMARK    5  A    between atoms: C_20  and  C_21 
REMARK    6  A    between atoms: C_34  and  O_35 
ROOT
HETATM    1  N   UNL     1       5.243  26.603  52.399  1.00  0.00    -0.336 N 
HETATM    2  H   UNL     1       4.868  26.460  51.448  1.00  0.00     0.168 HD
HETATM    3  C   UNL     1       4.838  27.659  53.010  1.00  0.00     0.164 A 
HETATM    4  O   UNL     1       5.207  27.779  54.324  1.00  0.00    -0.289 OA
HETATM    5  C   UNL     1       4.731  28.830  55.132  1.00  0.00     0.121 A 
HETATM    6  C   UNL     1       3.849  29.765  54.599  1.00  0.00     0.002 A 
HETATM    7  C   UNL     1       3.461  29.662  53.196  1.00  0.00     0.035 A 
HETATM    8  C   UNL     1       3.950  28.693  52.404  1.00  0.00     0.084 A 
HETATM    9  C   UNL     1       5.166  28.880  56.463  1.00  0.00     0.102 A 
HETATM   10  C   UNL     1       4.684  29.906  57.274  1.00  0.00     0.040 A 
HETATM   11  C   UNL     1       3.790  30.852  56.757  1.00  0.00     0.004 A 
HETATM   12  C   UNL     1       3.375  30.784  55.424  1.00  0.00     0.014 A 
ENDROOT
BRANCH   8  13
HETATM   13  C   UNL     1       3.582  28.561  50.947  1.00  0.00     0.260 C 
HETATM   14  N   UNL     1       2.263  28.737  50.617  1.00  0.00    -0.323 N 
HETATM   15  H   UNL     1       1.599  28.957  51.347  1.00  0.00     0.169 HD
HETATM   16  O   UNL     1       4.514  28.336  50.173  1.00  0.00    -0.267 OA
BRANCH  14  17
HETATM   17  C   UNL     1       1.666  28.636  49.340  1.00  0.00     0.035 A 
HETATM   18  C   UNL     1       1.489  27.446  48.636  1.00  0.00     0.030 A 
HETATM   19  C   UNL     1       0.869  27.450  47.374  1.00  0.00     0.017 A 
HETATM   20  C   UNL     1       0.406  28.644  46.807  1.00  0.00     0.010 A 
HETATM   21  C   UNL     1       0.584  29.832  47.522  1.00  0.00     0.017 A 
HETATM   22  C   UNL     1       1.216  29.832  48.767  1.00  0.00     0.030 A 
BRANCH  20  23
HETATM   23  C   UNL     1      -0.279  28.695  45.515  1.00  0.00     0.139 A 
HETATM   24  N   UNL     1      -0.863  29.763  45.004  1.00  0.00    -0.228 NA
HETATM   25  C   UNL     1      -1.347  29.383  43.777  1.00  0.00     0.086 A 
HETATM   26  C   UNL     1      -1.035  28.056  43.513  1.00  0.00     0.062 A 
HETATM   27  C   UNL     1      -2.059  30.125  42.824  1.00  0.00     0.034 A 
HETATM   28  N   UNL     1      -0.364  27.640  44.634  1.00  0.00    -0.338 N 
HETATM   29  C   UNL     1      -1.382  27.410  42.325  1.00  0.00     0.032 A 
HETATM   30  H   UNL     1       0.037  26.726  44.772  1.00  0.00     0.167 HD
HETATM   31  C   UNL     1      -2.088  28.167  41.382  1.00  0.00     0.002 A 
HETATM   32  C   UNL     1      -2.426  29.501  41.626  1.00  0.00     0.002 A 
ENDBRANCH  20  23
ENDBRANCH  14  17
ENDBRANCH   8  13
BRANCH   1  33
HETATM   33  C   UNL     1       6.064  25.556  52.864  1.00  0.00     0.034 A 
HETATM   34  C   UNL     1       7.142  25.191  52.041  1.00  0.00     0.032 A 
HETATM   35  C   UNL     1       8.001  24.142  52.405  1.00  0.00     0.039 A 
HETATM   36  C   UNL     1       7.804  23.462  53.604  1.00  0.00     0.068 A 
HETATM   37  C   UNL     1       6.760  23.853  54.442  1.00  0.00     0.039 A 
HETATM   38  C   UNL     1       5.895  24.893  54.082  1.00  0.00     0.032 A 
BRANCH  36  39
HETATM   39  O   UNL     1       8.554  22.425  54.077  1.00  0.00    -0.356 OA
HETATM   40  C   UNL     1       8.603  21.241  53.290  1.00  0.00     0.210 C 
ENDBRANCH  36  39
ENDBRANCH   1  33
BRANCH   9  41
HETATM   41  O   UNL     1       6.040  27.899  56.844  1.00  0.00    -0.353 OA
HETATM   42  C   UNL     1       7.188  28.309  57.582  1.00  0.00     0.210 C 
ENDBRANCH   9  41
TORSDOF 6
ENDMDL
MODEL 9
REMARK VINA RESULT:      -9.7      3.714     11.399
REMARK  6 active torsions:
REMARK  status: ('A' for Active; 'I' for Inactive)
REMARK    1  A    between atoms: O_2  and  C_3 
REMARK    2  A    between atoms: C_6  and  N_7 
REMARK    3  A    between atoms: C_14  and  C_15 
REMARK       I    between atoms: C_15  and  N_16 
REMARK    4  A    between atoms: N_16  and  C_17 
REMARK    5  A    between atoms: C_20  and  C_21 
REMARK    6  A    between atoms: C_34  and  O_35 
ROOT
HETATM    1  N   UNL     1       5.720  27.295  55.877  1.00  0.00    -0.336 N 
HETATM    2  H   UNL     1       5.985  27.623  56.819  1.00  0.00     0.168 HD
HETATM    3  C   UNL     1       5.088  28.143  55.145  1.00  0.00     0.164 A 
HETATM    4  O   UNL     1       4.868  27.775  53.844  1.00  0.00    -0.289 OA
HETATM    5  C   UNL     1       4.290  28.662  52.913  1.00  0.00     0.121 A 
HETATM    6  C   UNL     1       3.948  29.952  53.309  1.00  0.00     0.002 A 
HETATM    7  C   UNL     1       4.159  30.352  54.696  1.00  0.00     0.035 A 
HETATM    8  C   UNL     1       4.662  29.497  55.604  1.00  0.00     0.084 A 
HETATM    9  C   UNL     1       4.093  28.200  51.606  1.00  0.00     0.102 A 
HETATM   10  C   UNL     1       3.540  29.077  50.674  1.00  0.00     0.040 A 
HETATM   11  C   UNL     1       3.197  30.381  51.052  1.00  0.00     0.004 A 
HETATM   12  C   UNL     1       3.398  30.817  52.365  1.00  0.00     0.014 A 
ENDROOT
BRANCH   8  13
HETATM   13  C   UNL     1       4.884  29.870  57.048  1.00  0.00     0.260 C 
HETATM   14  N   UNL     1       4.473  31.118  57.441  1.00  0.00    -0.323 N 
HETATM   15  H   UNL     1       4.033  31.727  56.764  1.00  0.00     0.169 HD
HETATM   16  O   UNL     1       5.390  29.000  57.759  1.00  0.00    -0.267 OA
BRANCH  14  17
HETATM   17  C   UNL     1       4.595  31.711  58.718  1.00  0.00     0.035 A 
HETATM   18  C   UNL     1       5.780  32.214  59.253  1.00  0.00     0.030 A 
HETATM   19  C   UNL     1       5.794  32.799  60.532  1.00  0.00     0.017 A 
HETATM   20  C   UNL     1       4.619  32.898  61.286  1.00  0.00     0.010 A 
HETATM   21  C   UNL     1       3.434  32.394  60.742  1.00  0.00     0.017 A 
HETATM   22  C   UNL     1       3.422  31.797  59.479  1.00  0.00     0.030 A 
BRANCH  20  23
HETATM   23  C   UNL     1       4.575  33.531  62.604  1.00  0.00     0.139 A 
HETATM   24  N   UNL     1       4.726  32.904  63.757  1.00  0.00    -0.228 NA
HETATM   25  C   UNL     1       4.647  33.868  64.730  1.00  0.00     0.086 A 
HETATM   26  C   UNL     1       4.467  35.125  64.166  1.00  0.00     0.062 A 
HETATM   27  C   UNL     1       4.732  33.746  66.124  1.00  0.00     0.034 A 
HETATM   28  N   UNL     1       4.416  34.882  62.817  1.00  0.00    -0.338 N 
HETATM   29  C   UNL     1       4.377  36.297  64.920  1.00  0.00     0.032 A 
HETATM   30  H   UNL     1       4.320  35.583  62.099  1.00  0.00     0.167 HD
HETATM   31  C   UNL     1       4.469  36.157  66.310  1.00  0.00     0.002 A 
HETATM   32  C   UNL     1       4.640  34.904  66.905  1.00  0.00     0.002 A 
ENDBRANCH  20  23
ENDBRANCH  14  17
ENDBRANCH   8  13
BRANCH   1  33
HETATM   33  C   UNL     1       6.184  26.004  55.557  1.00  0.00     0.034 A 
HETATM   34  C   UNL     1       6.871  25.316  56.570  1.00  0.00     0.032 A 
HETATM   35  C   UNL     1       7.395  24.034  56.341  1.00  0.00     0.039 A 
HETATM   36  C   UNL     1       7.220  23.419  55.104  1.00  0.00     0.068 A 
HETATM   37  C   UNL     1       6.501  24.085  54.111  1.00  0.00     0.039 A 
HETATM   38  C   UNL     1       5.982  25.366  54.331  1.00  0.00     0.032 A 
BRANCH  36  39
HETATM   39  O   UNL     1       7.679  22.186  54.742  1.00  0.00    -0.356 OA
HETATM   40  C   UNL     1       8.372  22.084  53.502  1.00  0.00     0.210 C 
ENDBRANCH  36  39
ENDBRANCH   1  33
BRANCH   9  41
HETATM   41  O   UNL     1       4.468  26.906  51.365  1.00  0.00    -0.353 OA
HETATM   42  C   UNL     1       5.134  26.645  50.133  1.00  0.00     0.210 C 
ENDBRANCH   9  41
TORSDOF 6
ENDMDL
MODEL 10
REMARK VINA RESULT:      -9.4      8.640     10.090
REMARK  6 active torsions:
REMARK  status: ('A' for Active; 'I' for Inactive)
REMARK    1  A    between atoms: O_2  and  C_3 
REMARK    2  A    between atoms: C_6  and  N_7 
REMARK    3  A    between atoms: C_14  and  C_15 
REMARK       I    between atoms: C_15  and  N_16 
REMARK    4  A    between atoms: N_16  and  C_17 
REMARK    5  A    between atoms: C_20  and  C_21 
REMARK    6  A    between atoms: C_34  and  O_35 
ROOT
HETATM    1  N   UNL     1       5.449  31.507  49.438  1.00  0.00    -0.336 N 
HETATM    2  H   UNL     1       6.012  30.803  49.940  1.00  0.00     0.168 HD
HETATM    3  C   UNL     1       4.321  31.097  48.976  1.00  0.00     0.164 A 
HETATM    4  O   UNL     1       3.498  32.056  48.445  1.00  0.00    -0.289 OA
HETATM    5  C   UNL     1       2.193  31.752  48.013  1.00  0.00     0.121 A 
HETATM    6  C   UNL     1       1.708  30.453  48.140  1.00  0.00     0.002 A 
HETATM    7  C   UNL     1       2.578  29.417  48.687  1.00  0.00     0.035 A 
HETATM    8  C   UNL     1       3.843  29.686  49.054  1.00  0.00     0.084 A 
HETATM    9  C   UNL     1       1.424  32.792  47.475  1.00  0.00     0.102 A 
HETATM   10  C   UNL     1       0.123  32.503  47.063  1.00  0.00     0.040 A 
HETATM   11  C   UNL     1      -0.384  31.205  47.191  1.00  0.00     0.004 A 
HETATM   12  C   UNL     1       0.405  30.182  47.725  1.00  0.00     0.014 A 
ENDROOT
BRANCH   8  13
HETATM   13  C   UNL     1       4.776  28.640  49.611  1.00  0.00     0.260 C 
HETATM   14  N   UNL     1       4.409  28.039  50.788  1.00  0.00    -0.323 N 
HETATM   15  H   UNL     1       3.537  28.306  51.225  1.00  0.00     0.169 HD
HETATM   16  O   UNL     1       5.777  28.394  48.936  1.00  0.00    -0.267 OA
BRANCH  14  17
HETATM   17  C   UNL     1       5.118  27.062  51.522  1.00  0.00     0.035 A 
HETATM   18  C   UNL     1       6.146  27.333  52.424  1.00  0.00     0.030 A 
HETATM   19  C   UNL     1       6.781  26.288  53.117  1.00  0.00     0.017 A 
HETATM   20  C   UNL     1       6.387  24.958  52.925  1.00  0.00     0.010 A 
HETATM   21  C   UNL     1       5.353  24.695  52.022  1.00  0.00     0.017 A 
HETATM   22  C   UNL     1       4.733  25.731  51.320  1.00  0.00     0.030 A 
BRANCH  20  23
HETATM   23  C   UNL     1       6.990  23.840  53.651  1.00  0.00     0.139 A 
HETATM   24  N   UNL     1       7.162  23.784  54.959  1.00  0.00    -0.228 NA
HETATM   25  C   UNL     1       7.726  22.561  55.219  1.00  0.00     0.086 A 
HETATM   26  C   UNL     1       7.886  21.832  54.047  1.00  0.00     0.062 A 
HETATM   27  C   UNL     1       8.122  21.995  56.439  1.00  0.00     0.034 A 
HETATM   28  N   UNL     1       7.419  22.670  53.066  1.00  0.00    -0.338 N 
HETATM   29  C   UNL     1       8.415  20.541  54.014  1.00  0.00     0.032 A 
HETATM   30  H   UNL     1       7.361  22.448  52.085  1.00  0.00     0.167 HD
HETATM   31  C   UNL     1       8.800  19.990  55.242  1.00  0.00     0.002 A 
HETATM   32  C   UNL     1       8.661  20.703  56.436  1.00  0.00     0.002 A 
ENDBRANCH  20  23
ENDBRANCH  14  17
ENDBRANCH   8  13
BRANCH   1  33
HETATM   33  C   UNL     1       6.001  32.804  49.438  1.00  0.00     0.034 A 
HETATM   34  C   UNL     1       6.746  33.167  48.304  1.00  0.00     0.032 A 
HETATM   35  C   UNL     1       7.358  34.428  48.221  1.00  0.00     0.039 A 
HETATM   36  C   UNL     1       7.214  35.344  49.259  1.00  0.00     0.068 A 
HETATM   37  C   UNL     1       6.438  34.999  50.366  1.00  0.00     0.039 A 
HETATM   38  C   UNL     1       5.831  33.741  50.459  1.00  0.00     0.032 A 
BRANCH  36  39
HETATM   39  O   UNL     1       7.755  36.595  49.314  1.00  0.00    -0.356 OA
HETATM   40  C   UNL     1       7.954  37.166  50.604  1.00  0.00     0.210 C 
ENDBRANCH  36  39
ENDBRANCH   1  33
BRANCH   9  41
HETATM   41  O   UNL     1       2.035  34.013  47.403  1.00  0.00    -0.353 OA
HETATM   42  C   UNL     1       1.514  35.046  48.233  1.00  0.00     0.210 C 
ENDBRANCH   9  41
TORSDOF 6
ENDMDL
