MODEL 1
REMARK VINA RESULT:      -9.5      0.000      0.000
REMARK  4 active torsions:
REMARK  status: ('A' for Active; 'I' for Inactive)
REMARK    1  A    between atoms: C_8  and  C_9 
REMARK    2  A    between atoms: C_9  and  C_10 
REMARK       I    between atoms: C_10  and  N_11 
REMARK    3  A    between atoms: N_11  and  C_12 
REMARK    4  A    between atoms: C_14  and  C_15 
ROOT
HETATM    1  C   UNL     1       7.797  25.852  57.081  1.00  0.00     0.226 C 
HETATM    2  N   UNL     1       7.592  27.203  56.845  1.00  0.00    -0.327 N 
HETATM    3  O   UNL     1       8.713  25.356  57.732  1.00  0.00    -0.273 OA
HETATM    4  H   UNL     1       6.753  27.445  56.330  1.00  0.00     0.169 HD
ENDROOT
BRANCH   2   5
HETATM    5  C   UNL     1       8.400  28.282  57.266  1.00  0.00     0.035 A 
HETATM    6  C   UNL     1       7.951  29.034  58.365  1.00  0.00     0.042 A 
HETATM    7  C   UNL     1       8.677  30.140  58.842  1.00  0.00    -0.021 A 
HETATM    8  C   UNL     1       9.876  30.476  58.203  1.00  0.00     0.012 A 
HETATM    9  C   UNL     1      10.333  29.733  57.114  1.00  0.00     0.003 A 
HETATM   10  C   UNL     1       9.596  28.644  56.647  1.00  0.00     0.029 A 
BRANCH   7  11
HETATM   11  C   UNL     1       8.200  30.942  59.962  1.00  0.00     0.010 A 
HETATM   12  C   UNL     1       7.175  31.920  60.027  1.00  0.00     0.152 A 
HETATM   13  N   UNL     1       7.031  32.445  61.246  1.00  0.00    -0.187 NA
HETATM   14  N   UNL     1       7.963  31.810  61.972  1.00  0.00    -0.289 N 
HETATM   15  H   UNL     1       8.050  32.046  62.955  1.00  0.00     0.188 HD
HETATM   16  C   UNL     1       8.688  30.903  61.252  1.00  0.00     0.123 A 
ENDBRANCH   7  11
ENDBRANCH   2   5
BRANCH   1  17
HETATM   17  C   UNL     1       6.762  24.968  56.399  1.00  0.00     0.144 C 
BRANCH  17  18
HETATM   18  C   UNL     1       7.289  24.336  55.151  1.00  0.00    -0.021 A 
HETATM   19  C   UNL     1       7.595  22.951  54.943  1.00  0.00    -0.001 A 
HETATM   20  C   UNL     1       7.532  21.796  55.750  1.00  0.00     0.014 A 
HETATM   21  C   UNL     1       8.027  22.813  53.623  1.00  0.00     0.042 A 
HETATM   22  C   UNL     1       7.903  20.556  55.214  1.00  0.00     0.001 A 
HETATM   23  C   UNL     1       8.330  20.454  53.893  1.00  0.00     0.002 A 
HETATM   24  C   UNL     1       8.402  21.582  53.071  1.00  0.00     0.030 A 
HETATM   25  N   UNL     1       7.990  24.062  53.050  1.00  0.00    -0.365 N 
HETATM   26  H   UNL     1       8.245  24.262  52.093  1.00  0.00     0.165 HD
HETATM   27  C   UNL     1       7.542  24.982  53.956  1.00  0.00     0.097 A 
ENDBRANCH  17  18
ENDBRANCH   1  17
TORSDOF 4
ENDMDL
MODEL 2
REMARK VINA RESULT:      -9.3      2.250      9.104
REMARK  4 active torsions:
REMARK  status: ('A' for Active; 'I' for Inactive)
REMARK    1  A    between atoms: C_8  and  C_9 
REMARK    2  A    between atoms: C_9  and  C_10 
REMARK       I    between atoms: C_10  and  N_11 
REMARK    3  A    between atoms: N_11  and  C_12 
REMARK    4  A    between atoms: C_14  and  C_15 
ROOT
HETATM    1  C   UNL     1       7.135  27.744  55.657  1.00  0.00     0.226 C 
HETATM    2  N   UNL     1       7.251  26.362  55.689  1.00  0.00    -0.327 N 
HETATM    3  O   UNL     1       7.186  28.457  54.657  1.00  0.00    -0.273 OA
HETATM    4  H   UNL     1       7.132  25.925  56.595  1.00  0.00     0.169 HD
ENDROOT
BRANCH   2   5
HETATM    5  C   UNL     1       7.483  25.493  54.600  1.00  0.00     0.035 A 
HETATM    6  C   UNL     1       7.810  24.159  54.899  1.00  0.00     0.042 A 
HETATM    7  C   UNL     1       8.081  23.226  53.883  1.00  0.00    -0.021 A 
HETATM    8  C   UNL     1       8.006  23.650  52.551  1.00  0.00     0.012 A 
HETATM    9  C   UNL     1       7.678  24.971  52.244  1.00  0.00     0.003 A 
HETATM   10  C   UNL     1       7.421  25.888  53.265  1.00  0.00     0.029 A 
BRANCH   7  11
HETATM   11  C   UNL     1       8.451  21.849  54.188  1.00  0.00     0.010 A 
HETATM   12  C   UNL     1       8.489  20.698  53.360  1.00  0.00     0.152 A 
HETATM   13  N   UNL     1       8.884  19.601  54.010  1.00  0.00    -0.187 NA
HETATM   14  N   UNL     1       9.100  20.038  55.259  1.00  0.00    -0.289 N 
HETATM   15  H   UNL     1       9.412  19.369  55.955  1.00  0.00     0.188 HD
HETATM   16  C   UNL     1       8.855  21.372  55.418  1.00  0.00     0.123 A 
ENDBRANCH   7  11
ENDBRANCH   2   5
BRANCH   1  17
HETATM   17  C   UNL     1       6.971  28.357  57.040  1.00  0.00     0.144 C 
BRANCH  17  18
HETATM   18  C   UNL     1       8.165  29.157  57.452  1.00  0.00    -0.021 A 
HETATM   19  C   UNL     1       8.195  30.265  58.361  1.00  0.00    -0.001 A 
HETATM   20  C   UNL     1       7.218  30.949  59.114  1.00  0.00     0.014 A 
HETATM   21  C   UNL     1       9.524  30.679  58.469  1.00  0.00     0.042 A 
HETATM   22  C   UNL     1       7.601  32.013  59.939  1.00  0.00     0.001 A 
HETATM   23  C   UNL     1       8.935  32.401  60.024  1.00  0.00     0.002 A 
HETATM   24  C   UNL     1       9.924  31.742  59.289  1.00  0.00     0.030 A 
HETATM   25  N   UNL     1      10.273  29.860  57.658  1.00  0.00    -0.365 N 
HETATM   26  H   UNL     1      11.275  29.926  57.544  1.00  0.00     0.165 HD
HETATM   27  C   UNL     1       9.469  28.939  57.048  1.00  0.00     0.097 A 
ENDBRANCH  17  18
ENDBRANCH   1  17
TORSDOF 4
ENDMDL
MODEL 3
REMARK VINA RESULT:      -9.2      3.605      9.901
REMARK  4 active torsions:
REMARK  status: ('A' for Active; 'I' for Inactive)
REMARK    1  A    between atoms: C_8  and  C_9 
REMARK    2  A    between atoms: C_9  and  C_10 
REMARK       I    between atoms: C_10  and  N_11 
REMARK    3  A    between atoms: N_11  and  C_12 
REMARK    4  A    between atoms: C_14  and  C_15 
ROOT
HETATM    1  C   UNL     1       9.129  31.006  61.182  1.00  0.00     0.226 C 
HETATM    2  N   UNL     1       8.968  31.274  59.830  1.00  0.00    -0.327 N 
HETATM    3  O   UNL     1       9.391  29.916  61.683  1.00  0.00    -0.273 OA
HETATM    4  H   UNL     1       8.807  32.243  59.582  1.00  0.00     0.169 HD
ENDROOT
BRANCH   2   5
HETATM    5  C   UNL     1       9.033  30.356  58.758  1.00  0.00     0.035 A 
HETATM    6  C   UNL     1       7.909  29.543  58.536  1.00  0.00     0.042 A 
HETATM    7  C   UNL     1       7.889  28.584  57.507  1.00  0.00    -0.021 A 
HETATM    8  C   UNL     1       9.018  28.462  56.689  1.00  0.00     0.012 A 
HETATM    9  C   UNL     1      10.138  29.269  56.898  1.00  0.00     0.003 A 
HETATM   10  C   UNL     1      10.145  30.208  57.930  1.00  0.00     0.029 A 
BRANCH   7  11
HETATM   11  C   UNL     1       6.738  27.716  57.293  1.00  0.00     0.010 A 
HETATM   12  C   UNL     1       6.643  26.302  57.251  1.00  0.00     0.152 A 
HETATM   13  N   UNL     1       5.401  25.868  57.027  1.00  0.00    -0.187 NA
HETATM   14  N   UNL     1       4.689  27.001  56.921  1.00  0.00    -0.289 N 
HETATM   15  H   UNL     1       3.693  26.927  56.744  1.00  0.00     0.188 HD
HETATM   16  C   UNL     1       5.441  28.131  57.072  1.00  0.00     0.123 A 
ENDBRANCH   7  11
ENDBRANCH   2   5
BRANCH   1  17
HETATM   17  C   UNL     1       8.905  32.231  62.058  1.00  0.00     0.144 C 
BRANCH  17  18
HETATM   18  C   UNL     1       7.479  32.369  62.485  1.00  0.00    -0.021 A 
HETATM   19  C   UNL     1       6.992  32.927  63.713  1.00  0.00    -0.001 A 
HETATM   20  C   UNL     1       7.605  33.479  64.857  1.00  0.00     0.014 A 
HETATM   21  C   UNL     1       5.598  32.880  63.667  1.00  0.00     0.042 A 
HETATM   22  C   UNL     1       6.810  33.959  65.904  1.00  0.00     0.001 A 
HETATM   23  C   UNL     1       5.421  33.898  65.827  1.00  0.00     0.002 A 
HETATM   24  C   UNL     1       4.787  33.356  64.706  1.00  0.00     0.030 A 
HETATM   25  N   UNL     1       5.248  32.317  62.463  1.00  0.00    -0.365 N 
HETATM   26  H   UNL     1       4.298  32.164  62.154  1.00  0.00     0.165 HD
HETATM   27  C   UNL     1       6.369  32.012  61.743  1.00  0.00     0.097 A 
ENDBRANCH  17  18
ENDBRANCH   1  17
TORSDOF 4
ENDMDL
MODEL 4
REMARK VINA RESULT:      -9.2      2.349      8.206
REMARK  4 active torsions:
REMARK  status: ('A' for Active; 'I' for Inactive)
REMARK    1  A    between atoms: C_8  and  C_9 
REMARK    2  A    between atoms: C_9  and  C_10 
REMARK       I    between atoms: C_10  and  N_11 
REMARK    3  A    between atoms: N_11  and  C_12 
REMARK    4  A    between atoms: C_14  and  C_15 
ROOT
HETATM    1  C   UNL     1       6.061  27.431  55.101  1.00  0.00     0.226 C 
HETATM    2  N   UNL     1       7.031  27.057  54.183  1.00  0.00    -0.327 N 
HETATM    3  O   UNL     1       5.300  26.679  55.704  1.00  0.00    -0.273 OA
HETATM    4  H   UNL     1       7.611  27.802  53.816  1.00  0.00     0.169 HD
ENDROOT
BRANCH   2   5
HETATM    5  C   UNL     1       7.324  25.754  53.724  1.00  0.00     0.035 A 
HETATM    6  C   UNL     1       7.466  24.745  54.693  1.00  0.00     0.042 A 
HETATM    7  C   UNL     1       7.780  23.423  54.334  1.00  0.00    -0.021 A 
HETATM    8  C   UNL     1       7.938  23.121  52.977  1.00  0.00     0.012 A 
HETATM    9  C   UNL     1       7.795  24.113  52.006  1.00  0.00     0.003 A 
HETATM   10  C   UNL     1       7.493  25.423  52.380  1.00  0.00     0.029 A 
BRANCH   7  11
HETATM   11  C   UNL     1       7.959  22.380  55.337  1.00  0.00     0.010 A 
HETATM   12  C   UNL     1       8.352  22.464  56.696  1.00  0.00     0.152 A 
HETATM   13  N   UNL     1       8.404  21.274  57.300  1.00  0.00    -0.187 NA
HETATM   14  N   UNL     1       8.048  20.417  56.331  1.00  0.00    -0.289 N 
HETATM   15  H   UNL     1       8.015  19.428  56.554  1.00  0.00     0.188 HD
HETATM   16  C   UNL     1       7.772  21.027  55.141  1.00  0.00     0.123 A 
ENDBRANCH   7  11
ENDBRANCH   2   5
BRANCH   1  17
HETATM   17  C   UNL     1       5.975  28.939  55.289  1.00  0.00     0.144 C 
BRANCH  17  18
HETATM   18  C   UNL     1       6.695  29.400  56.515  1.00  0.00    -0.021 A 
HETATM   19  C   UNL     1       8.109  29.580  56.674  1.00  0.00    -0.001 A 
HETATM   20  C   UNL     1       9.226  29.398  55.833  1.00  0.00     0.014 A 
HETATM   21  C   UNL     1       8.325  30.052  57.969  1.00  0.00     0.042 A 
HETATM   22  C   UNL     1      10.509  29.690  56.314  1.00  0.00     0.001 A 
HETATM   23  C   UNL     1      10.690  30.160  57.612  1.00  0.00     0.002 A 
HETATM   24  C   UNL     1       9.601  30.349  58.466  1.00  0.00     0.030 A 
HETATM   25  N   UNL     1       7.096  30.155  58.577  1.00  0.00    -0.365 N 
HETATM   26  H   UNL     1       6.948  30.479  59.522  1.00  0.00     0.165 HD
HETATM   27  C   UNL     1       6.110  29.772  57.711  1.00  0.00     0.097 A 
ENDBRANCH  17  18
ENDBRANCH   1  17
TORSDOF 4
ENDMDL
MODEL 5
REMARK VINA RESULT:      -9.2      5.555      9.019
REMARK  4 active torsions:
REMARK  status: ('A' for Active; 'I' for Inactive)
REMARK    1  A    between atoms: C_8  and  C_9 
REMARK    2  A    between atoms: C_9  and  C_10 
REMARK       I    between atoms: C_10  and  N_11 
REMARK    3  A    between atoms: N_11  and  C_12 
REMARK    4  A    between atoms: C_14  and  C_15 
ROOT
HETATM    1  C   UNL     1       6.104  25.452  51.794  1.00  0.00     0.226 C 
HETATM    2  N   UNL     1       6.110  26.635  51.071  1.00  0.00    -0.327 N 
HETATM    3  O   UNL     1       5.115  24.879  52.247  1.00  0.00    -0.273 OA
HETATM    4  H   UNL     1       7.011  26.943  50.725  1.00  0.00     0.169 HD
ENDROOT
BRANCH   2   5
HETATM    5  C   UNL     1       5.001  27.444  50.734  1.00  0.00     0.035 A 
HETATM    6  C   UNL     1       4.212  27.035  49.646  1.00  0.00     0.042 A 
HETATM    7  C   UNL     1       3.102  27.787  49.222  1.00  0.00    -0.021 A 
HETATM    8  C   UNL     1       2.784  28.957  49.921  1.00  0.00     0.012 A 
HETATM    9  C   UNL     1       3.559  29.369  51.006  1.00  0.00     0.003 A 
HETATM   10  C   UNL     1       4.663  28.617  51.408  1.00  0.00     0.029 A 
BRANCH   7  11
HETATM   11  C   UNL     1       2.299  27.385  48.074  1.00  0.00     0.010 A 
HETATM   12  C   UNL     1       1.038  27.848  47.621  1.00  0.00     0.152 A 
HETATM   13  N   UNL     1       0.618  27.226  46.517  1.00  0.00    -0.187 NA
HETATM   14  N   UNL     1       1.605  26.357  46.254  1.00  0.00    -0.289 N 
HETATM   15  H   UNL     1       1.511  25.755  45.443  1.00  0.00     0.188 HD
HETATM   16  C   UNL     1       2.631  26.411  47.154  1.00  0.00     0.123 A 
ENDBRANCH   7  11
ENDBRANCH   2   5
BRANCH   1  17
HETATM   17  C   UNL     1       7.501  24.899  52.037  1.00  0.00     0.144 C 
BRANCH  17  18
HETATM   18  C   UNL     1       7.639  24.280  53.391  1.00  0.00    -0.021 A 
HETATM   19  C   UNL     1       7.800  22.889  53.696  1.00  0.00    -0.001 A 
HETATM   20  C   UNL     1       7.868  21.712  52.922  1.00  0.00     0.014 A 
HETATM   21  C   UNL     1       7.920  22.777  55.082  1.00  0.00     0.042 A 
HETATM   22  C   UNL     1       8.050  20.477  53.556  1.00  0.00     0.001 A 
HETATM   23  C   UNL     1       8.167  20.401  54.941  1.00  0.00     0.002 A 
HETATM   24  C   UNL     1       8.103  21.551  55.732  1.00  0.00     0.030 A 
HETATM   25  N   UNL     1       7.834  24.047  55.602  1.00  0.00    -0.365 N 
HETATM   26  H   UNL     1       7.896  24.270  56.586  1.00  0.00     0.165 HD
HETATM   27  C   UNL     1       7.672  24.958  54.595  1.00  0.00     0.097 A 
ENDBRANCH  17  18
ENDBRANCH   1  17
TORSDOF 4
ENDMDL
MODEL 6
REMARK VINA RESULT:      -9.0      5.372      9.064
REMARK  4 active torsions:
REMARK  status: ('A' for Active; 'I' for Inactive)
REMARK    1  A    between atoms: C_8  and  C_9 
REMARK    2  A    between atoms: C_9  and  C_10 
REMARK       I    between atoms: C_10  and  N_11 
REMARK    3  A    between atoms: N_11  and  C_12 
REMARK    4  A    between atoms: C_14  and  C_15 
ROOT
HETATM    1  C   UNL     1       5.664  25.721  51.653  1.00  0.00     0.226 C 
HETATM    2  N   UNL     1       6.728  25.855  52.533  1.00  0.00    -0.327 N 
HETATM    3  O   UNL     1       4.705  24.963  51.778  1.00  0.00    -0.273 OA
HETATM    4  H   UNL     1       7.410  26.568  52.303  1.00  0.00     0.169 HD
ENDROOT
BRANCH   2   5
HETATM    5  C   UNL     1       6.952  25.135  53.727  1.00  0.00     0.035 A 
HETATM    6  C   UNL     1       7.467  23.833  53.608  1.00  0.00     0.042 A 
HETATM    7  C   UNL     1       7.702  23.031  54.739  1.00  0.00    -0.021 A 
HETATM    8  C   UNL     1       7.424  23.564  56.002  1.00  0.00     0.012 A 
HETATM    9  C   UNL     1       6.917  24.858  56.132  1.00  0.00     0.003 A 
HETATM   10  C   UNL     1       6.680  25.637  54.999  1.00  0.00     0.029 A 
BRANCH   7  11
HETATM   11  C   UNL     1       8.206  21.669  54.619  1.00  0.00     0.010 A 
HETATM   12  C   UNL     1       8.493  20.888  53.471  1.00  0.00     0.152 A 
HETATM   13  N   UNL     1       8.944  19.667  53.769  1.00  0.00    -0.187 NA
HETATM   14  N   UNL     1       8.948  19.654  55.110  1.00  0.00    -0.289 N 
HETATM   15  H   UNL     1       9.257  18.811  55.581  1.00  0.00     0.188 HD
HETATM   16  C   UNL     1       8.516  20.825  55.666  1.00  0.00     0.123 A 
ENDBRANCH   7  11
ENDBRANCH   2   5
BRANCH   1  17
HETATM   17  C   UNL     1       5.798  26.606  50.422  1.00  0.00     0.144 C 
BRANCH  17  18
HETATM   18  C   UNL     1       4.503  27.248  50.040  1.00  0.00    -0.021 A 
HETATM   19  C   UNL     1       3.655  26.899  48.938  1.00  0.00    -0.001 A 
HETATM   20  C   UNL     1       3.722  25.937  47.909  1.00  0.00     0.014 A 
HETATM   21  C   UNL     1       2.542  27.740  48.987  1.00  0.00     0.042 A 
HETATM   22  C   UNL     1       2.683  25.852  46.973  1.00  0.00     0.001 A 
HETATM   23  C   UNL     1       1.587  26.707  47.050  1.00  0.00     0.002 A 
HETATM   24  C   UNL     1       1.495  27.669  48.059  1.00  0.00     0.030 A 
HETATM   25  N   UNL     1       2.705  28.569  50.071  1.00  0.00    -0.365 N 
HETATM   26  H   UNL     1       2.045  29.280  50.355  1.00  0.00     0.165 HD
HETATM   27  C   UNL     1       3.875  28.278  50.714  1.00  0.00     0.097 A 
ENDBRANCH  17  18
ENDBRANCH   1  17
TORSDOF 4
ENDMDL
MODEL 7
REMARK VINA RESULT:      -9.0      5.536      7.968
REMARK  4 active torsions:
REMARK  status: ('A' for Active; 'I' for Inactive)
REMARK    1  A    between atoms: C_8  and  C_9 
REMARK    2  A    between atoms: C_9  and  C_10 
REMARK       I    between atoms: C_10  and  N_11 
REMARK    3  A    between atoms: N_11  and  C_12 
REMARK    4  A    between atoms: C_14  and  C_15 
ROOT
HETATM    1  C   UNL     1       5.936  25.467  51.747  1.00  0.00     0.226 C 
HETATM    2  N   UNL     1       5.893  26.358  50.686  1.00  0.00    -0.327 N 
HETATM    3  O   UNL     1       4.975  24.902  52.264  1.00  0.00    -0.273 OA
HETATM    4  H   UNL     1       6.787  26.693  50.346  1.00  0.00     0.169 HD
ENDROOT
BRANCH   2   5
HETATM    5  C   UNL     1       4.749  26.830  50.004  1.00  0.00     0.035 A 
HETATM    6  C   UNL     1       4.187  28.039  50.447  1.00  0.00     0.042 A 
HETATM    7  C   UNL     1       3.035  28.576  49.845  1.00  0.00    -0.021 A 
HETATM    8  C   UNL     1       2.458  27.883  48.775  1.00  0.00     0.012 A 
HETATM    9  C   UNL     1       3.012  26.684  48.324  1.00  0.00     0.003 A 
HETATM   10  C   UNL     1       4.150  26.160  48.938  1.00  0.00     0.029 A 
BRANCH   7  11
HETATM   11  C   UNL     1       2.429  29.813  50.322  1.00  0.00     0.010 A 
HETATM   12  C   UNL     1       2.977  30.877  51.082  1.00  0.00     0.152 A 
HETATM   13  N   UNL     1       2.098  31.851  51.327  1.00  0.00    -0.187 NA
HETATM   14  N   UNL     1       0.978  31.419  50.728  1.00  0.00    -0.289 N 
HETATM   15  H   UNL     1       0.150  32.004  50.779  1.00  0.00     0.188 HD
HETATM   16  C   UNL     1       1.123  30.208  50.114  1.00  0.00     0.123 A 
ENDBRANCH   7  11
ENDBRANCH   2   5
BRANCH   1  17
HETATM   17  C   UNL     1       7.343  25.255  52.286  1.00  0.00     0.144 C 
BRANCH  17  18
HETATM   18  C   UNL     1       7.351  24.479  53.564  1.00  0.00    -0.021 A 
HETATM   19  C   UNL     1       7.582  23.073  53.723  1.00  0.00    -0.001 A 
HETATM   20  C   UNL     1       7.845  22.011  52.834  1.00  0.00     0.014 A 
HETATM   21  C   UNL     1       7.527  22.795  55.090  1.00  0.00     0.042 A 
HETATM   22  C   UNL     1       8.041  20.719  53.338  1.00  0.00     0.001 A 
HETATM   23  C   UNL     1       7.979  20.475  54.708  1.00  0.00     0.002 A 
HETATM   24  C   UNL     1       7.720  21.509  55.611  1.00  0.00     0.030 A 
HETATM   25  N   UNL     1       7.272  23.980  55.738  1.00  0.00    -0.365 N 
HETATM   26  H   UNL     1       7.185  24.080  56.740  1.00  0.00     0.165 HD
HETATM   27  C   UNL     1       7.171  24.999  54.832  1.00  0.00     0.097 A 
ENDBRANCH  17  18
ENDBRANCH   1  17
TORSDOF 4
ENDMDL
MODEL 8
REMARK VINA RESULT:      -9.0      1.694      9.131
REMARK  4 active torsions:
REMARK  status: ('A' for Active; 'I' for Inactive)
REMARK    1  A    between atoms: C_8  and  C_9 
REMARK    2  A    between atoms: C_9  and  C_10 
REMARK       I    between atoms: C_10  and  N_11 
REMARK    3  A    between atoms: N_11  and  C_12 
REMARK    4  A    between atoms: C_14  and  C_15 
ROOT
HETATM    1  C   UNL     1       8.075  27.856  57.268  1.00  0.00     0.226 C 
HETATM    2  N   UNL     1       7.856  27.760  55.901  1.00  0.00    -0.327 N 
HETATM    3  O   UNL     1       7.716  27.049  58.122  1.00  0.00    -0.273 OA
HETATM    4  H   UNL     1       8.268  28.489  55.330  1.00  0.00     0.169 HD
ENDROOT
BRANCH   2   5
HETATM    5  C   UNL     1       7.152  26.748  55.212  1.00  0.00     0.035 A 
HETATM    6  C   UNL     1       7.793  25.507  55.058  1.00  0.00     0.042 A 
HETATM    7  C   UNL     1       7.180  24.446  54.367  1.00  0.00    -0.021 A 
HETATM    8  C   UNL     1       5.900  24.646  53.839  1.00  0.00     0.012 A 
HETATM    9  C   UNL     1       5.253  25.874  53.990  1.00  0.00     0.003 A 
HETATM   10  C   UNL     1       5.879  26.919  54.670  1.00  0.00     0.029 A 
BRANCH   7  11
HETATM   11  C   UNL     1       7.853  23.167  54.178  1.00  0.00     0.010 A 
HETATM   12  C   UNL     1       7.785  22.237  53.110  1.00  0.00     0.152 A 
HETATM   13  N   UNL     1       8.557  21.164  53.301  1.00  0.00    -0.187 NA
HETATM   14  N   UNL     1       9.125  21.397  54.494  1.00  0.00    -0.289 N 
HETATM   15  H   UNL     1       9.767  20.704  54.864  1.00  0.00     0.188 HD
HETATM   16  C   UNL     1       8.737  22.579  55.059  1.00  0.00     0.123 A 
ENDBRANCH   7  11
ENDBRANCH   2   5
BRANCH   1  17
HETATM   17  C   UNL     1       8.804  29.133  57.662  1.00  0.00     0.144 C 
BRANCH  17  18
HETATM   18  C   UNL     1       7.932  30.067  58.438  1.00  0.00    -0.021 A 
HETATM   19  C   UNL     1       8.235  30.698  59.689  1.00  0.00    -0.001 A 
HETATM   20  C   UNL     1       9.339  30.668  60.566  1.00  0.00     0.014 A 
HETATM   21  C   UNL     1       7.147  31.507  60.022  1.00  0.00     0.042 A 
HETATM   22  C   UNL     1       9.315  31.439  61.735  1.00  0.00     0.001 A 
HETATM   23  C   UNL     1       8.213  32.236  62.037  1.00  0.00     0.002 A 
HETATM   24  C   UNL     1       7.107  32.284  61.186  1.00  0.00     0.030 A 
HETATM   25  N   UNL     1       6.218  31.374  59.017  1.00  0.00    -0.365 N 
HETATM   26  H   UNL     1       5.329  31.852  58.990  1.00  0.00     0.165 HD
HETATM   27  C   UNL     1       6.682  30.517  58.058  1.00  0.00     0.097 A 
ENDBRANCH  17  18
ENDBRANCH   1  17
TORSDOF 4
ENDMDL
MODEL 9
REMARK VINA RESULT:      -8.9      3.620      6.172
REMARK  4 active torsions:
REMARK  status: ('A' for Active; 'I' for Inactive)
REMARK    1  A    between atoms: C_8  and  C_9 
REMARK    2  A    between atoms: C_9  and  C_10 
REMARK       I    between atoms: C_10  and  N_11 
REMARK    3  A    between atoms: N_11  and  C_12 
REMARK    4  A    between atoms: C_14  and  C_15 
ROOT
HETATM    1  C   UNL     1       8.520  31.158  59.456  1.00  0.00     0.226 C 
HETATM    2  N   UNL     1       7.966  30.754  60.661  1.00  0.00    -0.327 N 
HETATM    3  O   UNL     1       8.816  32.307  59.137  1.00  0.00    -0.273 OA
HETATM    4  H   UNL     1       7.833  29.757  60.781  1.00  0.00     0.169 HD
ENDROOT
BRANCH   2   5
HETATM    5  C   UNL     1       7.595  31.570  61.753  1.00  0.00     0.035 A 
HETATM    6  C   UNL     1       6.246  31.956  61.840  1.00  0.00     0.042 A 
HETATM    7  C   UNL     1       5.786  32.785  62.878  1.00  0.00    -0.021 A 
HETATM    8  C   UNL     1       6.704  33.215  63.844  1.00  0.00     0.012 A 
HETATM    9  C   UNL     1       8.044  32.833  63.769  1.00  0.00     0.003 A 
HETATM   10  C   UNL     1       8.487  32.017  62.726  1.00  0.00     0.029 A 
BRANCH   7  11
HETATM   11  C   UNL     1       4.396  33.214  62.956  1.00  0.00     0.010 A 
HETATM   12  C   UNL     1       3.679  33.839  64.008  1.00  0.00     0.152 A 
HETATM   13  N   UNL     1       2.402  34.080  63.700  1.00  0.00    -0.187 NA
HETATM   14  N   UNL     1       2.289  33.610  62.448  1.00  0.00    -0.289 N 
HETATM   15  H   UNL     1       1.388  33.680  61.989  1.00  0.00     0.188 HD
HETATM   16  C   UNL     1       3.450  33.082  61.959  1.00  0.00     0.123 A 
ENDBRANCH   7  11
ENDBRANCH   2   5
BRANCH   1  17
HETATM   17  C   UNL     1       8.711  30.007  58.477  1.00  0.00     0.144 C 
BRANCH  17  18
HETATM   18  C   UNL     1       7.410  29.451  57.994  1.00  0.00    -0.021 A 
HETATM   19  C   UNL     1       7.136  28.099  57.605  1.00  0.00    -0.001 A 
HETATM   20  C   UNL     1       7.906  26.921  57.528  1.00  0.00     0.014 A 
HETATM   21  C   UNL     1       5.786  28.031  57.258  1.00  0.00     0.042 A 
HETATM   22  C   UNL     1       7.305  25.728  57.107  1.00  0.00     0.001 A 
HETATM   23  C   UNL     1       5.955  25.695  56.767  1.00  0.00     0.002 A 
HETATM   24  C   UNL     1       5.169  26.847  56.835  1.00  0.00     0.030 A 
HETATM   25  N   UNL     1       5.258  29.289  57.425  1.00  0.00    -0.365 N 
HETATM   26  H   UNL     1       4.293  29.535  57.253  1.00  0.00     0.165 HD
HETATM   27  C   UNL     1       6.222  30.148  57.873  1.00  0.00     0.097 A 
ENDBRANCH  17  18
ENDBRANCH   1  17
TORSDOF 4
ENDMDL
MODEL 10
REMARK VINA RESULT:      -8.9      4.413      8.097
REMARK  4 active torsions:
REMARK  status: ('A' for Active; 'I' for Inactive)
REMARK    1  A    between atoms: C_8  and  C_9 
REMARK    2  A    between atoms: C_9  and  C_10 
REMARK       I    between atoms: C_10  and  N_11 
REMARK    3  A    between atoms: N_11  and  C_12 
REMARK    4  A    between atoms: C_14  and  C_15 
ROOT
HETATM    1  C   UNL     1       6.926  27.388  53.763  1.00  0.00     0.226 C 
HETATM    2  N   UNL     1       6.500  26.263  54.453  1.00  0.00    -0.327 N 
HETATM    3  O   UNL     1       8.065  27.851  53.755  1.00  0.00    -0.273 OA
HETATM    4  H   UNL     1       5.536  25.988  54.307  1.00  0.00     0.169 HD
ENDROOT
BRANCH   2   5
HETATM    5  C   UNL     1       7.262  25.439  55.311  1.00  0.00     0.035 A 
HETATM    6  C   UNL     1       7.511  24.123  54.887  1.00  0.00     0.042 A 
HETATM    7  C   UNL     1       8.241  23.222  55.682  1.00  0.00    -0.021 A 
HETATM    8  C   UNL     1       8.733  23.669  56.914  1.00  0.00     0.012 A 
HETATM    9  C   UNL     1       8.495  24.976  57.342  1.00  0.00     0.003 A 
HETATM   10  C   UNL     1       7.761  25.854  56.545  1.00  0.00     0.029 A 
BRANCH   7  11
HETATM   11  C   UNL     1       8.475  21.846  55.262  1.00  0.00     0.010 A 
HETATM   12  C   UNL     1       8.310  21.226  53.997  1.00  0.00     0.152 A 
HETATM   13  N   UNL     1       8.631  19.930  54.005  1.00  0.00    -0.187 NA
HETATM   14  N   UNL     1       9.001  19.708  55.274  1.00  0.00    -0.289 N 
HETATM   15  H   UNL     1       9.293  18.771  55.532  1.00  0.00     0.188 HD
HETATM   16  C   UNL     1       8.926  20.819  56.065  1.00  0.00     0.123 A 
ENDBRANCH   7  11
ENDBRANCH   2   5
BRANCH   1  17
HETATM   17  C   UNL     1       5.803  28.076  53.000  1.00  0.00     0.144 C 
BRANCH  17  18
HETATM   18  C   UNL     1       5.321  27.262  51.843  1.00  0.00    -0.021 A 
HETATM   19  C   UNL     1       5.233  27.672  50.472  1.00  0.00    -0.001 A 
HETATM   20  C   UNL     1       5.522  28.865  49.779  1.00  0.00     0.014 A 
HETATM   21  C   UNL     1       4.761  26.580  49.741  1.00  0.00     0.042 A 
HETATM   22  C   UNL     1       5.330  28.925  48.393  1.00  0.00     0.001 A 
HETATM   23  C   UNL     1       4.857  27.818  47.694  1.00  0.00     0.002 A 
HETATM   24  C   UNL     1       4.562  26.623  48.355  1.00  0.00     0.030 A 
HETATM   25  N   UNL     1       4.567  25.548  50.629  1.00  0.00    -0.365 N 
HETATM   26  H   UNL     1       4.234  24.628  50.376  1.00  0.00     0.165 HD
HETATM   27  C   UNL     1       4.906  25.945  51.892  1.00  0.00     0.097 A 
ENDBRANCH  17  18
ENDBRANCH   1  17
TORSDOF 4
ENDMDL
