MODEL 1
REMARK VINA RESULT:      -9.7      0.000      0.000
REMARK  9 active torsions:
REMARK  status: ('A' for Active; 'I' for Inactive)
REMARK    1  A    between atoms: C_2  and  C_3 
REMARK    2  A    between atoms: C_3  and  O_4 
REMARK    3  A    between atoms: O_4  and  C_5 
REMARK    4  A    between atoms: C_8  and  C_9 
REMARK       I    between atoms: C_9  and  N_10 
REMARK    5  A    between atoms: N_10  and  C_11 
REMARK    6  A    between atoms: C_11  and  N_12 
REMARK    7  A    between atoms: N_12  and  C_13 
REMARK    8  A    between atoms: C_15  and  C_16 
REMARK    9  A    between atoms: C_25  and  O_26 
ROOT
HETATM    1  C   UNL     1       6.880  28.158  54.709  1.00  0.00     0.035 A 
HETATM    2  C   UNL     1       6.996  29.033  55.795  1.00  0.00     0.046 A 
HETATM    3  C   UNL     1       7.319  28.569  57.086  1.00  0.00     0.036 A 
HETATM    4  C   UNL     1       7.508  27.186  57.264  1.00  0.00     0.084 A 
HETATM    5  C   UNL     1       7.351  26.290  56.194  1.00  0.00    -0.026 A 
HETATM    6  C   UNL     1       7.498  24.806  56.391  1.00  0.00     0.051 C 
HETATM    7  C   UNL     1       7.013  26.787  54.927  1.00  0.00     0.039 A 
ENDROOT
BRANCH   1   8
HETATM    8  N   UNL     1       6.620  28.722  53.442  1.00  0.00    -0.333 N 
HETATM    9  H   UNL     1       7.426  29.081  52.937  1.00  0.00     0.168 HD
BRANCH   8  10
HETATM   10  C   UNL     1       5.468  28.747  52.682  1.00  0.00     0.179 C 
HETATM   11  S   UNL     1       4.153  29.542  53.334  1.00  0.00    -0.040 SA
BRANCH  10  12
HETATM   12  N   UNL     1       5.572  28.203  51.411  1.00  0.00    -0.299 N 
HETATM   13  C   UNL     1       5.427  26.922  50.894  1.00  0.00     0.257 C 
HETATM   14  O   UNL     1       4.847  26.789  49.816  1.00  0.00    -0.267 OA
HETATM   15  H   UNL     1       5.195  28.835  50.715  1.00  0.00     0.171 HD
BRANCH  13  16
HETATM   16  C   UNL     1       5.913  25.715  51.594  1.00  0.00     0.032 A 
HETATM   17  C   UNL     1       7.287  25.453  51.530  1.00  0.00     0.020 A 
HETATM   18  C   UNL     1       7.841  24.398  52.257  1.00  0.00     0.038 A 
HETATM   19  C   UNL     1       7.030  23.612  53.075  1.00  0.00     0.068 A 
HETATM   20  C   UNL     1       5.654  23.868  53.126  1.00  0.00     0.038 A 
HETATM   21  C   UNL     1       5.091  24.924  52.397  1.00  0.00     0.020 A 
BRANCH  19  22
HETATM   22  O   UNL     1       7.468  22.585  53.870  1.00  0.00    -0.351 OA
BRANCH  22  23
HETATM   23  C   UNL     1       7.813  21.370  53.201  1.00  0.00     0.175 C 
BRANCH  23  24
HETATM   24  C   UNL     1       8.520  20.432  54.177  1.00  0.00     0.022 C 
HETATM   25  C   UNL     1       7.890  20.461  55.562  1.00  0.00     0.007 C 
ENDBRANCH  23  24
ENDBRANCH  22  23
ENDBRANCH  19  22
ENDBRANCH  13  16
ENDBRANCH  10  12
ENDBRANCH   8  10
ENDBRANCH   1   8
BRANCH   3  26
HETATM   26  C   UNL     1       7.504  29.575  58.146  1.00  0.00     0.112 A 
HETATM   27  S   UNL     1       6.489  30.961  58.250  1.00  0.00    -0.067 SA
HETATM   28  C   UNL     1       7.312  31.470  59.672  1.00  0.00     0.035 A 
HETATM   29  C   UNL     1       8.341  30.570  59.945  1.00  0.00     0.075 A 
HETATM   30  C   UNL     1       7.064  32.586  60.489  1.00  0.00     0.021 A 
HETATM   31  N   UNL     1       8.453  29.513  59.057  1.00  0.00    -0.239 NA
HETATM   32  C   UNL     1       9.156  30.794  61.073  1.00  0.00     0.033 A 
HETATM   33  C   UNL     1       8.917  31.899  61.897  1.00  0.00     0.002 A 
HETATM   34  C   UNL     1       7.881  32.782  61.607  1.00  0.00     0.002 A 
ENDBRANCH   3  26
BRANCH   4  35
HETATM   35  O   UNL     1       7.881  26.630  58.461  1.00  0.00    -0.359 OA
HETATM   36  H   UNL     1       8.212  25.728  58.318  1.00  0.00     0.218 HD
ENDBRANCH   4  35
TORSDOF 9
ENDMDL
MODEL 2
REMARK VINA RESULT:      -9.6      2.575      3.539
REMARK  9 active torsions:
REMARK  status: ('A' for Active; 'I' for Inactive)
REMARK    1  A    between atoms: C_2  and  C_3 
REMARK    2  A    between atoms: C_3  and  O_4 
REMARK    3  A    between atoms: O_4  and  C_5 
REMARK    4  A    between atoms: C_8  and  C_9 
REMARK       I    between atoms: C_9  and  N_10 
REMARK    5  A    between atoms: N_10  and  C_11 
REMARK    6  A    between atoms: C_11  and  N_12 
REMARK    7  A    between atoms: N_12  and  C_13 
REMARK    8  A    between atoms: C_15  and  C_16 
REMARK    9  A    between atoms: C_25  and  O_26 
ROOT
HETATM    1  C   UNL     1       7.003  29.578  56.611  1.00  0.00     0.035 A 
HETATM    2  C   UNL     1       6.780  30.237  57.826  1.00  0.00     0.046 A 
HETATM    3  C   UNL     1       7.848  30.663  58.641  1.00  0.00     0.036 A 
HETATM    4  C   UNL     1       9.159  30.391  58.210  1.00  0.00     0.084 A 
HETATM    5  C   UNL     1       9.399  29.690  57.017  1.00  0.00    -0.026 A 
HETATM    6  C   UNL     1      10.797  29.349  56.579  1.00  0.00     0.051 C 
HETATM    7  C   UNL     1       8.312  29.268  56.239  1.00  0.00     0.039 A 
ENDROOT
BRANCH   1   8
HETATM    8  N   UNL     1       5.875  29.250  55.830  1.00  0.00    -0.333 N 
HETATM    9  H   UNL     1       5.185  29.987  55.709  1.00  0.00     0.168 HD
BRANCH   8  10
HETATM   10  C   UNL     1       5.597  28.137  55.065  1.00  0.00     0.179 C 
HETATM   11  S   UNL     1       6.229  28.108  53.520  1.00  0.00    -0.040 SA
BRANCH  10  12
HETATM   12  N   UNL     1       4.915  27.116  55.710  1.00  0.00    -0.299 N 
HETATM   13  C   UNL     1       5.311  25.972  56.390  1.00  0.00     0.257 C 
HETATM   14  O   UNL     1       4.711  25.668  57.423  1.00  0.00    -0.267 OA
HETATM   15  H   UNL     1       4.106  27.474  56.202  1.00  0.00     0.171 HD
BRANCH  13  16
HETATM   16  C   UNL     1       6.434  25.121  55.945  1.00  0.00     0.032 A 
HETATM   17  C   UNL     1       7.475  24.913  56.858  1.00  0.00     0.020 A 
HETATM   18  C   UNL     1       8.516  24.032  56.558  1.00  0.00     0.038 A 
HETATM   19  C   UNL     1       8.511  23.332  55.352  1.00  0.00     0.068 A 
HETATM   20  C   UNL     1       7.476  23.552  54.435  1.00  0.00     0.038 A 
HETATM   21  C   UNL     1       6.429  24.437  54.729  1.00  0.00     0.020 A 
BRANCH  19  22
HETATM   22  O   UNL     1       9.448  22.408  54.970  1.00  0.00    -0.351 OA
BRANCH  22  23
HETATM   23  C   UNL     1       9.223  21.063  55.401  1.00  0.00     0.175 C 
BRANCH  23  24
HETATM   24  C   UNL     1       8.218  20.389  54.470  1.00  0.00     0.022 C 
HETATM   25  C   UNL     1       8.672  20.416  53.017  1.00  0.00     0.007 C 
ENDBRANCH  23  24
ENDBRANCH  22  23
ENDBRANCH  19  22
ENDBRANCH  13  16
ENDBRANCH  10  12
ENDBRANCH   8  10
ENDBRANCH   1   8
BRANCH   3  26
HETATM   26  C   UNL     1       7.515  31.424  59.857  1.00  0.00     0.112 A 
HETATM   27  S   UNL     1       6.143  32.461  59.917  1.00  0.00    -0.067 SA
HETATM   28  C   UNL     1       6.478  32.830  61.563  1.00  0.00     0.035 A 
HETATM   29  C   UNL     1       7.648  32.173  61.944  1.00  0.00     0.075 A 
HETATM   30  C   UNL     1       5.758  33.642  62.455  1.00  0.00     0.021 A 
HETATM   31  N   UNL     1       8.238  31.398  60.959  1.00  0.00    -0.239 NA
HETATM   32  C   UNL     1       8.118  32.336  63.262  1.00  0.00     0.033 A 
HETATM   33  C   UNL     1       7.407  33.139  64.161  1.00  0.00     0.002 A 
HETATM   34  C   UNL     1       6.241  33.781  63.760  1.00  0.00     0.002 A 
ENDBRANCH   3  26
BRANCH   4  35
HETATM   35  O   UNL     1      10.273  30.807  58.894  1.00  0.00    -0.359 OA
HETATM   36  H   UNL     1      11.074  30.475  58.456  1.00  0.00     0.218 HD
ENDBRANCH   4  35
TORSDOF 9
ENDMDL
MODEL 3
REMARK VINA RESULT:      -9.2      2.851      9.989
REMARK  9 active torsions:
REMARK  status: ('A' for Active; 'I' for Inactive)
REMARK    1  A    between atoms: C_2  and  C_3 
REMARK    2  A    between atoms: C_3  and  O_4 
REMARK    3  A    between atoms: O_4  and  C_5 
REMARK    4  A    between atoms: C_8  and  C_9 
REMARK       I    between atoms: C_9  and  N_10 
REMARK    5  A    between atoms: N_10  and  C_11 
REMARK    6  A    between atoms: C_11  and  N_12 
REMARK    7  A    between atoms: N_12  and  C_13 
REMARK    8  A    between atoms: C_15  and  C_16 
REMARK    9  A    between atoms: C_25  and  O_26 
ROOT
HETATM    1  C   UNL     1       6.881  28.383  55.000  1.00  0.00     0.035 A 
HETATM    2  C   UNL     1       7.238  27.030  55.055  1.00  0.00     0.046 A 
HETATM    3  C   UNL     1       6.422  26.028  54.495  1.00  0.00     0.036 A 
HETATM    4  C   UNL     1       5.216  26.420  53.886  1.00  0.00     0.084 A 
HETATM    5  C   UNL     1       4.821  27.767  53.863  1.00  0.00    -0.026 A 
HETATM    6  C   UNL     1       3.506  28.186  53.262  1.00  0.00     0.051 C 
HETATM    7  C   UNL     1       5.651  28.736  54.445  1.00  0.00     0.039 A 
ENDROOT
BRANCH   1   8
HETATM    8  N   UNL     1       7.793  29.320  55.528  1.00  0.00    -0.333 N 
HETATM    9  H   UNL     1       8.106  30.049  54.892  1.00  0.00     0.168 HD
BRANCH   8  10
HETATM   10  C   UNL     1       8.238  29.522  56.818  1.00  0.00     0.179 C 
HETATM   11  S   UNL     1       7.648  28.488  57.989  1.00  0.00    -0.040 SA
BRANCH  10  12
HETATM   12  N   UNL     1       9.216  30.493  56.975  1.00  0.00    -0.299 N 
HETATM   13  C   UNL     1       9.808  31.097  58.077  1.00  0.00     0.257 C 
HETATM   14  O   UNL     1      11.022  31.305  58.048  1.00  0.00    -0.267 OA
HETATM   15  H   UNL     1       9.947  30.387  56.282  1.00  0.00     0.171 HD
BRANCH  13  16
HETATM   16  C   UNL     1       9.051  31.474  59.288  1.00  0.00     0.032 A 
HETATM   17  C   UNL     1       9.733  31.415  60.509  1.00  0.00     0.020 A 
HETATM   18  C   UNL     1       9.125  31.862  61.683  1.00  0.00     0.038 A 
HETATM   19  C   UNL     1       7.838  32.398  61.642  1.00  0.00     0.068 A 
HETATM   20  C   UNL     1       7.153  32.444  60.422  1.00  0.00     0.038 A 
HETATM   21  C   UNL     1       7.757  31.994  59.239  1.00  0.00     0.020 A 
BRANCH  19  22
HETATM   22  O   UNL     1       7.162  32.913  62.716  1.00  0.00    -0.351 OA
BRANCH  22  23
HETATM   23  C   UNL     1       7.843  32.870  63.973  1.00  0.00     0.175 C 
BRANCH  23  24
HETATM   24  C   UNL     1       7.096  33.730  64.990  1.00  0.00     0.022 C 
HETATM   25  C   UNL     1       5.591  33.504  64.940  1.00  0.00     0.007 C 
ENDBRANCH  23  24
ENDBRANCH  22  23
ENDBRANCH  19  22
ENDBRANCH  13  16
ENDBRANCH  10  12
ENDBRANCH   8  10
ENDBRANCH   1   8
BRANCH   3  26
HETATM   26  C   UNL     1       6.924  24.643  54.526  1.00  0.00     0.112 A 
HETATM   27  S   UNL     1       7.257  23.846  56.015  1.00  0.00    -0.067 SA
HETATM   28  C   UNL     1       7.684  22.413  55.165  1.00  0.00     0.035 A 
HETATM   29  C   UNL     1       7.590  22.656  53.795  1.00  0.00     0.075 A 
HETATM   30  C   UNL     1       8.073  21.162  55.673  1.00  0.00     0.021 A 
HETATM   31  N   UNL     1       7.180  23.933  53.448  1.00  0.00    -0.239 NA
HETATM   32  C   UNL     1       7.900  21.613  52.899  1.00  0.00     0.033 A 
HETATM   33  C   UNL     1       8.284  20.361  53.393  1.00  0.00     0.002 A 
HETATM   34  C   UNL     1       8.367  20.141  54.764  1.00  0.00     0.002 A 
ENDBRANCH   3  26
BRANCH   4  35
HETATM   35  O   UNL     1       4.373  25.538  53.260  1.00  0.00    -0.359 OA
HETATM   36  H   UNL     1       3.549  25.988  53.009  1.00  0.00     0.218 HD
ENDBRANCH   4  35
TORSDOF 9
ENDMDL
MODEL 4
REMARK VINA RESULT:      -9.1      2.041      2.777
REMARK  9 active torsions:
REMARK  status: ('A' for Active; 'I' for Inactive)
REMARK    1  A    between atoms: C_2  and  C_3 
REMARK    2  A    between atoms: C_3  and  O_4 
REMARK    3  A    between atoms: O_4  and  C_5 
REMARK    4  A    between atoms: C_8  and  C_9 
REMARK       I    between atoms: C_9  and  N_10 
REMARK    5  A    between atoms: N_10  and  C_11 
REMARK    6  A    between atoms: C_11  and  N_12 
REMARK    7  A    between atoms: N_12  and  C_13 
REMARK    8  A    between atoms: C_15  and  C_16 
REMARK    9  A    between atoms: C_25  and  O_26 
ROOT
HETATM    1  C   UNL     1       7.222  29.211  56.905  1.00  0.00     0.035 A 
HETATM    2  C   UNL     1       6.956  29.939  58.071  1.00  0.00     0.046 A 
HETATM    3  C   UNL     1       7.981  30.597  58.780  1.00  0.00     0.036 A 
HETATM    4  C   UNL     1       9.297  30.490  58.293  1.00  0.00     0.084 A 
HETATM    5  C   UNL     1       9.587  29.726  57.152  1.00  0.00    -0.026 A 
HETATM    6  C   UNL     1      10.999  29.563  56.658  1.00  0.00     0.051 C 
HETATM    7  C   UNL     1       8.543  29.072  56.481  1.00  0.00     0.039 A 
ENDROOT
BRANCH   1   8
HETATM    8  N   UNL     1       6.124  28.642  56.227  1.00  0.00    -0.333 N 
HETATM    9  H   UNL     1       5.840  27.715  56.532  1.00  0.00     0.168 HD
BRANCH   8  10
HETATM   10  C   UNL     1       5.252  29.182  55.303  1.00  0.00     0.179 C 
HETATM   11  S   UNL     1       3.789  29.737  55.883  1.00  0.00    -0.040 SA
BRANCH  10  12
HETATM   12  N   UNL     1       5.741  29.304  54.011  1.00  0.00    -0.299 N 
HETATM   13  C   UNL     1       5.800  28.450  52.918  1.00  0.00     0.257 C 
HETATM   14  O   UNL     1       5.563  28.913  51.801  1.00  0.00    -0.267 OA
HETATM   15  H   UNL     1       5.559  30.228  53.641  1.00  0.00     0.171 HD
BRANCH  13  16
HETATM   16  C   UNL     1       6.106  27.010  53.040  1.00  0.00     0.032 A 
HETATM   17  C   UNL     1       7.420  26.665  53.381  1.00  0.00     0.020 A 
HETATM   18  C   UNL     1       7.762  25.334  53.627  1.00  0.00     0.038 A 
HETATM   19  C   UNL     1       6.787  24.339  53.558  1.00  0.00     0.068 A 
HETATM   20  C   UNL     1       5.478  24.684  53.203  1.00  0.00     0.038 A 
HETATM   21  C   UNL     1       5.127  26.019  52.952  1.00  0.00     0.020 A 
BRANCH  19  22
HETATM   22  O   UNL     1       6.993  23.011  53.826  1.00  0.00    -0.351 OA
BRANCH  22  23
HETATM   23  C   UNL     1       8.057  22.378  53.110  1.00  0.00     0.175 C 
BRANCH  23  24
HETATM   24  C   UNL     1       7.987  20.868  53.319  1.00  0.00     0.022 C 
HETATM   25  C   UNL     1       7.918  20.493  54.793  1.00  0.00     0.007 C 
ENDBRANCH  23  24
ENDBRANCH  22  23
ENDBRANCH  19  22
ENDBRANCH  13  16
ENDBRANCH  10  12
ENDBRANCH   8  10
ENDBRANCH   1   8
BRANCH   3  26
HETATM   26  C   UNL     1       7.591  31.409  59.946  1.00  0.00     0.112 A 
HETATM   27  S   UNL     1       6.203  32.427  59.903  1.00  0.00    -0.067 SA
HETATM   28  C   UNL     1       6.469  32.876  61.542  1.00  0.00     0.035 A 
HETATM   29  C   UNL     1       7.631  32.255  61.998  1.00  0.00     0.075 A 
HETATM   30  C   UNL     1       5.703  33.718  62.366  1.00  0.00     0.021 A 
HETATM   31  N   UNL     1       8.270  31.444  61.074  1.00  0.00    -0.239 NA
HETATM   32  C   UNL     1       8.047  32.485  63.325  1.00  0.00     0.033 A 
HETATM   33  C   UNL     1       7.291  33.318  64.157  1.00  0.00     0.002 A 
HETATM   34  C   UNL     1       6.133  33.924  63.681  1.00  0.00     0.002 A 
ENDBRANCH   3  26
BRANCH   4  35
HETATM   35  O   UNL     1      10.362  31.134  58.869  1.00  0.00    -0.359 OA
HETATM   36  H   UNL     1      10.179  31.302  59.808  1.00  0.00     0.218 HD
ENDBRANCH   4  35
TORSDOF 9
ENDMDL
MODEL 5
REMARK VINA RESULT:      -8.9      3.284     10.163
REMARK  9 active torsions:
REMARK  status: ('A' for Active; 'I' for Inactive)
REMARK    1  A    between atoms: C_2  and  C_3 
REMARK    2  A    between atoms: C_3  and  O_4 
REMARK    3  A    between atoms: O_4  and  C_5 
REMARK    4  A    between atoms: C_8  and  C_9 
REMARK       I    between atoms: C_9  and  N_10 
REMARK    5  A    between atoms: N_10  and  C_11 
REMARK    6  A    between atoms: C_11  and  N_12 
REMARK    7  A    between atoms: N_12  and  C_13 
REMARK    8  A    between atoms: C_15  and  C_16 
REMARK    9  A    between atoms: C_25  and  O_26 
ROOT
HETATM    1  C   UNL     1       5.246  28.108  56.307  1.00  0.00     0.035 A 
HETATM    2  C   UNL     1       5.826  26.844  56.149  1.00  0.00     0.046 A 
HETATM    3  C   UNL     1       5.686  26.112  54.953  1.00  0.00     0.036 A 
HETATM    4  C   UNL     1       4.924  26.679  53.915  1.00  0.00     0.084 A 
HETATM    5  C   UNL     1       4.297  27.925  54.075  1.00  0.00    -0.026 A 
HETATM    6  C   UNL     1       3.437  28.512  52.988  1.00  0.00     0.051 C 
HETATM    7  C   UNL     1       4.446  28.619  55.284  1.00  0.00     0.039 A 
ENDROOT
BRANCH   1   8
HETATM    8  N   UNL     1       5.497  28.795  57.513  1.00  0.00    -0.333 N 
HETATM    9  H   UNL     1       5.167  28.343  58.363  1.00  0.00     0.168 HD
BRANCH   8  10
HETATM   10  C   UNL     1       6.250  29.921  57.774  1.00  0.00     0.179 C 
HETATM   11  S   UNL     1       7.849  29.679  58.188  1.00  0.00    -0.040 SA
BRANCH  10  12
HETATM   12  N   UNL     1       5.617  31.135  57.552  1.00  0.00    -0.299 N 
HETATM   13  C   UNL     1       5.578  32.342  58.239  1.00  0.00     0.257 C 
HETATM   14  O   UNL     1       5.624  33.387  57.588  1.00  0.00    -0.267 OA
HETATM   15  H   UNL     1       5.616  31.369  56.567  1.00  0.00     0.171 HD
BRANCH  13  16
HETATM   16  C   UNL     1       5.511  32.425  59.712  1.00  0.00     0.032 A 
HETATM   17  C   UNL     1       4.236  32.455  60.290  1.00  0.00     0.020 A 
HETATM   18  C   UNL     1       4.086  32.420  61.678  1.00  0.00     0.038 A 
HETATM   19  C   UNL     1       5.210  32.326  62.499  1.00  0.00     0.068 A 
HETATM   20  C   UNL     1       6.484  32.310  61.919  1.00  0.00     0.038 A 
HETATM   21  C   UNL     1       6.642  32.349  60.526  1.00  0.00     0.020 A 
BRANCH  19  22
HETATM   22  O   UNL     1       5.184  32.234  63.865  1.00  0.00    -0.351 OA
BRANCH  22  23
HETATM   23  C   UNL     1       4.702  33.382  64.569  1.00  0.00     0.175 C 
BRANCH  23  24
HETATM   24  C   UNL     1       5.862  34.332  64.854  1.00  0.00     0.022 C 
HETATM   25  C   UNL     1       7.107  33.594  65.328  1.00  0.00     0.007 C 
ENDBRANCH  23  24
ENDBRANCH  22  23
ENDBRANCH  19  22
ENDBRANCH  13  16
ENDBRANCH  10  12
ENDBRANCH   8  10
ENDBRANCH   1   8
BRANCH   3  26
HETATM   26  C   UNL     1       6.405  24.831  54.850  1.00  0.00     0.112 A 
HETATM   27  S   UNL     1       6.990  24.018  56.250  1.00  0.00    -0.067 SA
HETATM   28  C   UNL     1       7.566  22.725  55.272  1.00  0.00     0.035 A 
HETATM   29  C   UNL     1       7.316  23.026  53.934  1.00  0.00     0.075 A 
HETATM   30  C   UNL     1       8.194  21.530  55.662  1.00  0.00     0.021 A 
HETATM   31  N   UNL     1       6.678  24.234  53.708  1.00  0.00    -0.239 NA
HETATM   32  C   UNL     1       7.712  22.101  52.947  1.00  0.00     0.033 A 
HETATM   33  C   UNL     1       8.334  20.905  53.322  1.00  0.00     0.002 A 
HETATM   34  C   UNL     1       8.570  20.625  54.664  1.00  0.00     0.002 A 
ENDBRANCH   3  26
BRANCH   4  35
HETATM   35  O   UNL     1       4.768  26.083  52.690  1.00  0.00    -0.359 OA
HETATM   36  H   UNL     1       3.824  25.937  52.511  1.00  0.00     0.218 HD
ENDBRANCH   4  35
TORSDOF 9
ENDMDL
MODEL 6
REMARK VINA RESULT:      -8.7      3.081      8.279
REMARK  9 active torsions:
REMARK  status: ('A' for Active; 'I' for Inactive)
REMARK    1  A    between atoms: C_2  and  C_3 
REMARK    2  A    between atoms: C_3  and  O_4 
REMARK    3  A    between atoms: O_4  and  C_5 
REMARK    4  A    between atoms: C_8  and  C_9 
REMARK       I    between atoms: C_9  and  N_10 
REMARK    5  A    between atoms: N_10  and  C_11 
REMARK    6  A    between atoms: C_11  and  N_12 
REMARK    7  A    between atoms: N_12  and  C_13 
REMARK    8  A    between atoms: C_15  and  C_16 
REMARK    9  A    between atoms: C_25  and  O_26 
ROOT
HETATM    1  C   UNL     1       5.243  27.719  55.262  1.00  0.00     0.035 A 
HETATM    2  C   UNL     1       5.730  26.435  54.990  1.00  0.00     0.046 A 
HETATM    3  C   UNL     1       6.784  25.872  55.738  1.00  0.00     0.036 A 
HETATM    4  C   UNL     1       7.354  26.646  56.765  1.00  0.00     0.084 A 
HETATM    5  C   UNL     1       6.908  27.953  57.020  1.00  0.00    -0.026 A 
HETATM    6  C   UNL     1       7.551  28.805  58.081  1.00  0.00     0.051 C 
HETATM    7  C   UNL     1       5.868  28.486  56.245  1.00  0.00     0.039 A 
ENDROOT
BRANCH   1   8
HETATM    8  N   UNL     1       4.142  28.173  54.505  1.00  0.00    -0.333 N 
HETATM    9  H   UNL     1       3.225  27.868  54.821  1.00  0.00     0.168 HD
BRANCH   8  10
HETATM   10  C   UNL     1       4.066  29.091  53.479  1.00  0.00     0.179 C 
HETATM   11  S   UNL     1       5.042  28.820  52.151  1.00  0.00    -0.040 SA
BRANCH  10  12
HETATM   12  N   UNL     1       3.101  30.077  53.620  1.00  0.00    -0.299 N 
HETATM   13  C   UNL     1       3.053  31.290  54.294  1.00  0.00     0.257 C 
HETATM   14  O   UNL     1       2.515  32.248  53.736  1.00  0.00    -0.267 OA
HETATM   15  H   UNL     1       2.591  30.212  52.755  1.00  0.00     0.171 HD
BRANCH  13  16
HETATM   16  C   UNL     1       3.640  31.486  55.636  1.00  0.00     0.032 A 
HETATM   17  C   UNL     1       3.055  30.782  56.695  1.00  0.00     0.020 A 
HETATM   18  C   UNL     1       3.619  30.825  57.971  1.00  0.00     0.038 A 
HETATM   19  C   UNL     1       4.789  31.551  58.193  1.00  0.00     0.068 A 
HETATM   20  C   UNL     1       5.364  32.265  57.135  1.00  0.00     0.038 A 
HETATM   21  C   UNL     1       4.801  32.229  55.851  1.00  0.00     0.020 A 
BRANCH  19  22
HETATM   22  O   UNL     1       5.459  31.625  59.386  1.00  0.00    -0.351 OA
BRANCH  22  23
HETATM   23  C   UNL     1       6.764  32.209  59.344  1.00  0.00     0.175 C 
BRANCH  23  24
HETATM   24  C   UNL     1       7.582  31.720  60.536  1.00  0.00     0.022 C 
HETATM   25  C   UNL     1       9.028  32.193  60.475  1.00  0.00     0.007 C 
ENDBRANCH  23  24
ENDBRANCH  22  23
ENDBRANCH  19  22
ENDBRANCH  13  16
ENDBRANCH  10  12
ENDBRANCH   8  10
ENDBRANCH   1   8
BRANCH   3  26
HETATM   26  C   UNL     1       7.168  24.483  55.434  1.00  0.00     0.112 A 
HETATM   27  S   UNL     1       7.212  23.900  53.815  1.00  0.00    -0.067 SA
HETATM   28  C   UNL     1       7.771  22.371  54.369  1.00  0.00     0.035 A 
HETATM   29  C   UNL     1       7.840  22.392  55.761  1.00  0.00     0.075 A 
HETATM   30  C   UNL     1       8.124  21.233  53.624  1.00  0.00     0.021 A 
HETATM   31  N   UNL     1       7.472  23.590  56.353  1.00  0.00    -0.239 NA
HETATM   32  C   UNL     1       8.274  21.234  56.436  1.00  0.00     0.033 A 
HETATM   33  C   UNL     1       8.633  20.095  55.706  1.00  0.00     0.002 A 
HETATM   34  C   UNL     1       8.559  20.098  54.317  1.00  0.00     0.002 A 
ENDBRANCH   3  26
BRANCH   4  35
HETATM   35  O   UNL     1       8.344  26.179  57.591  1.00  0.00    -0.359 OA
HETATM   36  H   UNL     1       8.017  25.423  58.106  1.00  0.00     0.218 HD
ENDBRANCH   4  35
TORSDOF 9
ENDMDL
MODEL 7
REMARK VINA RESULT:      -8.7      3.342      7.815
REMARK  9 active torsions:
REMARK  status: ('A' for Active; 'I' for Inactive)
REMARK    1  A    between atoms: C_2  and  C_3 
REMARK    2  A    between atoms: C_3  and  O_4 
REMARK    3  A    between atoms: O_4  and  C_5 
REMARK    4  A    between atoms: C_8  and  C_9 
REMARK       I    between atoms: C_9  and  N_10 
REMARK    5  A    between atoms: N_10  and  C_11 
REMARK    6  A    between atoms: C_11  and  N_12 
REMARK    7  A    between atoms: N_12  and  C_13 
REMARK    8  A    between atoms: C_15  and  C_16 
REMARK    9  A    between atoms: C_25  and  O_26 
ROOT
HETATM    1  C   UNL     1       6.188  28.638  54.896  1.00  0.00     0.035 A 
HETATM    2  C   UNL     1       6.461  27.311  54.546  1.00  0.00     0.046 A 
HETATM    3  C   UNL     1       7.215  26.467  55.385  1.00  0.00     0.036 A 
HETATM    4  C   UNL     1       7.708  27.000  56.591  1.00  0.00     0.084 A 
HETATM    5  C   UNL     1       7.481  28.342  56.935  1.00  0.00    -0.026 A 
HETATM    6  C   UNL     1       8.052  28.932  58.196  1.00  0.00     0.051 C 
HETATM    7  C   UNL     1       6.740  29.157  56.068  1.00  0.00     0.039 A 
ENDROOT
BRANCH   1   8
HETATM    8  N   UNL     1       5.369  29.387  54.026  1.00  0.00    -0.333 N 
HETATM    9  H   UNL     1       5.146  30.334  54.323  1.00  0.00     0.168 HD
BRANCH   8  10
HETATM   10  C   UNL     1       4.922  29.119  52.748  1.00  0.00     0.179 C 
HETATM   11  S   UNL     1       3.349  28.581  52.598  1.00  0.00    -0.040 SA
BRANCH  10  12
HETATM   12  N   UNL     1       5.800  29.435  51.722  1.00  0.00    -0.299 N 
HETATM   13  C   UNL     1       5.637  29.791  50.390  1.00  0.00     0.257 C 
HETATM   14  O   UNL     1       6.356  30.679  49.929  1.00  0.00    -0.267 OA
HETATM   15  H   UNL     1       6.581  29.979  52.068  1.00  0.00     0.171 HD
BRANCH  13  16
HETATM   16  C   UNL     1       4.625  29.169  49.511  1.00  0.00     0.032 A 
HETATM   17  C   UNL     1       3.612  30.002  49.019  1.00  0.00     0.020 A 
HETATM   18  C   UNL     1       2.685  29.519  48.094  1.00  0.00     0.038 A 
HETATM   19  C   UNL     1       2.778  28.206  47.633  1.00  0.00     0.068 A 
HETATM   20  C   UNL     1       3.783  27.372  48.137  1.00  0.00     0.038 A 
HETATM   21  C   UNL     1       4.716  27.849  49.068  1.00  0.00     0.020 A 
BRANCH  19  22
HETATM   22  O   UNL     1       1.959  27.639  46.692  1.00  0.00    -0.351 OA
BRANCH  22  23
HETATM   23  C   UNL     1       0.646  27.280  47.130  1.00  0.00     0.175 C 
BRANCH  23  24
HETATM   24  C   UNL     1      -0.375  27.683  46.069  1.00  0.00     0.022 C 
HETATM   25  C   UNL     1      -0.427  29.191  45.864  1.00  0.00     0.007 C 
ENDBRANCH  23  24
ENDBRANCH  22  23
ENDBRANCH  19  22
ENDBRANCH  13  16
ENDBRANCH  10  12
ENDBRANCH   8  10
ENDBRANCH   1   8
BRANCH   3  26
HETATM   26  C   UNL     1       7.376  25.062  54.972  1.00  0.00     0.112 A 
HETATM   27  S   UNL     1       7.539  24.631  53.314  1.00  0.00    -0.067 SA
HETATM   28  C   UNL     1       7.724  22.977  53.750  1.00  0.00     0.035 A 
HETATM   29  C   UNL     1       7.599  22.859  55.134  1.00  0.00     0.075 A 
HETATM   30  C   UNL     1       7.963  21.864  52.927  1.00  0.00     0.021 A 
HETATM   31  N   UNL     1       7.379  24.047  55.811  1.00  0.00    -0.239 NA
HETATM   32  C   UNL     1       7.713  21.582  55.718  1.00  0.00     0.033 A 
HETATM   33  C   UNL     1       7.955  20.465  54.910  1.00  0.00     0.002 A 
HETATM   34  C   UNL     1       8.080  20.608  53.531  1.00  0.00     0.002 A 
ENDBRANCH   3  26
BRANCH   4  35
HETATM   35  O   UNL     1       8.403  26.255  57.508  1.00  0.00    -0.359 OA
HETATM   36  H   UNL     1       9.283  26.036  57.159  1.00  0.00     0.218 HD
ENDBRANCH   4  35
TORSDOF 9
ENDMDL
MODEL 8
REMARK VINA RESULT:      -8.6      4.388      8.770
REMARK  9 active torsions:
REMARK  status: ('A' for Active; 'I' for Inactive)
REMARK    1  A    between atoms: C_2  and  C_3 
REMARK    2  A    between atoms: C_3  and  O_4 
REMARK    3  A    between atoms: O_4  and  C_5 
REMARK    4  A    between atoms: C_8  and  C_9 
REMARK       I    between atoms: C_9  and  N_10 
REMARK    5  A    between atoms: N_10  and  C_11 
REMARK    6  A    between atoms: C_11  and  N_12 
REMARK    7  A    between atoms: N_12  and  C_13 
REMARK    8  A    between atoms: C_15  and  C_16 
REMARK    9  A    between atoms: C_25  and  O_26 
ROOT
HETATM    1  C   UNL     1       4.767  27.048  52.899  1.00  0.00     0.035 A 
HETATM    2  C   UNL     1       5.494  25.859  53.032  1.00  0.00     0.046 A 
HETATM    3  C   UNL     1       6.015  25.447  54.275  1.00  0.00     0.036 A 
HETATM    4  C   UNL     1       5.800  26.277  55.391  1.00  0.00     0.084 A 
HETATM    5  C   UNL     1       5.112  27.495  55.265  1.00  0.00    -0.026 A 
HETATM    6  C   UNL     1       4.927  28.412  56.444  1.00  0.00     0.051 C 
HETATM    7  C   UNL     1       4.622  27.880  54.009  1.00  0.00     0.039 A 
ENDROOT
BRANCH   1   8
HETATM    8  N   UNL     1       4.228  27.344  51.630  1.00  0.00    -0.333 N 
HETATM    9  H   UNL     1       3.215  27.308  51.554  1.00  0.00     0.168 HD
BRANCH   8  10
HETATM   10  C   UNL     1       4.825  27.826  50.483  1.00  0.00     0.179 C 
HETATM   11  S   UNL     1       5.444  29.375  50.549  1.00  0.00    -0.040 SA
BRANCH  10  12
HETATM   12  N   UNL     1       4.942  26.922  49.438  1.00  0.00    -0.299 N 
HETATM   13  C   UNL     1       4.599  26.953  48.093  1.00  0.00     0.257 C 
HETATM   14  O   UNL     1       5.384  26.466  47.278  1.00  0.00    -0.267 OA
HETATM   15  H   UNL     1       5.814  26.410  49.497  1.00  0.00     0.171 HD
BRANCH  13  16
HETATM   16  C   UNL     1       3.350  27.567  47.597  1.00  0.00     0.032 A 
HETATM   17  C   UNL     1       2.202  26.765  47.598  1.00  0.00     0.020 A 
HETATM   18  C   UNL     1       0.962  27.303  47.253  1.00  0.00     0.038 A 
HETATM   19  C   UNL     1       0.853  28.655  46.929  1.00  0.00     0.068 A 
HETATM   20  C   UNL     1       2.005  29.452  46.914  1.00  0.00     0.038 A 
HETATM   21  C   UNL     1       3.255  28.917  47.258  1.00  0.00     0.020 A 
BRANCH  19  22
HETATM   22  O   UNL     1      -0.315  29.303  46.623  1.00  0.00    -0.351 OA
BRANCH  22  23
HETATM   23  C   UNL     1      -1.314  28.527  45.957  1.00  0.00     0.175 C 
BRANCH  23  24
HETATM   24  C   UNL     1      -1.136  28.652  44.446  1.00  0.00     0.022 C 
HETATM   25  C   UNL     1      -2.049  29.712  43.844  1.00  0.00     0.007 C 
ENDBRANCH  23  24
ENDBRANCH  22  23
ENDBRANCH  19  22
ENDBRANCH  13  16
ENDBRANCH  10  12
ENDBRANCH   8  10
ENDBRANCH   1   8
BRANCH   3  26
HETATM   26  C   UNL     1       6.691  24.140  54.332  1.00  0.00     0.112 A 
HETATM   27  S   UNL     1       7.318  23.395  52.913  1.00  0.00    -0.067 SA
HETATM   28  C   UNL     1       7.919  22.085  53.852  1.00  0.00     0.035 A 
HETATM   29  C   UNL     1       7.557  22.282  55.184  1.00  0.00     0.075 A 
HETATM   30  C   UNL     1       8.660  20.965  53.440  1.00  0.00     0.021 A 
HETATM   31  N   UNL     1       6.840  23.439  55.437  1.00  0.00    -0.239 NA
HETATM   32  C   UNL     1       7.944  21.322  56.140  1.00  0.00     0.033 A 
HETATM   33  C   UNL     1       8.685  20.203  55.744  1.00  0.00     0.002 A 
HETATM   34  C   UNL     1       9.039  20.030  54.409  1.00  0.00     0.002 A 
ENDBRANCH   3  26
BRANCH   4  35
HETATM   35  O   UNL     1       6.211  25.949  56.657  1.00  0.00    -0.359 OA
HETATM   36  H   UNL     1       6.650  25.083  56.650  1.00  0.00     0.218 HD
ENDBRANCH   4  35
TORSDOF 9
ENDMDL
MODEL 9
REMARK VINA RESULT:      -8.2      3.383      8.046
REMARK  9 active torsions:
REMARK  status: ('A' for Active; 'I' for Inactive)
REMARK    1  A    between atoms: C_2  and  C_3 
REMARK    2  A    between atoms: C_3  and  O_4 
REMARK    3  A    between atoms: O_4  and  C_5 
REMARK    4  A    between atoms: C_8  and  C_9 
REMARK       I    between atoms: C_9  and  N_10 
REMARK    5  A    between atoms: N_10  and  C_11 
REMARK    6  A    between atoms: C_11  and  N_12 
REMARK    7  A    between atoms: N_12  and  C_13 
REMARK    8  A    between atoms: C_15  and  C_16 
REMARK    9  A    between atoms: C_25  and  O_26 
ROOT
HETATM    1  C   UNL     1       6.632  28.102  54.472  1.00  0.00     0.035 A 
HETATM    2  C   UNL     1       6.957  26.744  54.378  1.00  0.00     0.046 A 
HETATM    3  C   UNL     1       7.516  26.042  55.465  1.00  0.00     0.036 A 
HETATM    4  C   UNL     1       7.759  26.751  56.656  1.00  0.00     0.084 A 
HETATM    5  C   UNL     1       7.481  28.124  56.751  1.00  0.00    -0.026 A 
HETATM    6  C   UNL     1       7.790  28.898  58.004  1.00  0.00     0.051 C 
HETATM    7  C   UNL     1       6.940  28.793  55.644  1.00  0.00     0.039 A 
ENDROOT
BRANCH   1   8
HETATM    8  N   UNL     1       6.015  28.704  53.355  1.00  0.00    -0.333 N 
HETATM    9  H   UNL     1       6.636  29.160  52.692  1.00  0.00     0.168 HD
BRANCH   8  10
HETATM   10  C   UNL     1       4.709  28.663  52.911  1.00  0.00     0.179 C 
HETATM   11  S   UNL     1       3.684  29.854  53.476  1.00  0.00    -0.040 SA
BRANCH  10  12
HETATM   12  N   UNL     1       4.426  27.700  51.955  1.00  0.00    -0.299 N 
HETATM   13  C   UNL     1       4.795  27.521  50.628  1.00  0.00     0.257 C 
HETATM   14  O   UNL     1       5.070  26.382  50.246  1.00  0.00    -0.267 OA
HETATM   15  H   UNL     1       4.395  26.776  52.368  1.00  0.00     0.171 HD
BRANCH  13  16
HETATM   16  C   UNL     1       4.897  28.637  49.665  1.00  0.00     0.032 A 
HETATM   17  C   UNL     1       4.137  28.538  48.493  1.00  0.00     0.020 A 
HETATM   18  C   UNL     1       4.090  29.599  47.587  1.00  0.00     0.038 A 
HETATM   19  C   UNL     1       4.782  30.779  47.859  1.00  0.00     0.068 A 
HETATM   20  C   UNL     1       5.552  30.871  49.025  1.00  0.00     0.038 A 
HETATM   21  C   UNL     1       5.605  29.807  49.938  1.00  0.00     0.020 A 
BRANCH  19  22
HETATM   22  O   UNL     1       4.770  31.901  47.073  1.00  0.00    -0.351 OA
BRANCH  22  23
HETATM   23  C   UNL     1       5.289  33.095  47.665  1.00  0.00     0.175 C 
BRANCH  23  24
HETATM   24  C   UNL     1       6.512  33.564  46.881  1.00  0.00     0.022 C 
HETATM   25  C   UNL     1       7.660  33.972  47.795  1.00  0.00     0.007 C 
ENDBRANCH  23  24
ENDBRANCH  22  23
ENDBRANCH  19  22
ENDBRANCH  13  16
ENDBRANCH  10  12
ENDBRANCH   8  10
ENDBRANCH   1   8
BRANCH   3  26
HETATM   26  C   UNL     1       7.744  24.597  55.298  1.00  0.00     0.112 A 
HETATM   27  S   UNL     1       7.843  23.880  53.736  1.00  0.00    -0.067 SA
HETATM   28  C   UNL     1       8.156  22.346  54.447  1.00  0.00     0.035 A 
HETATM   29  C   UNL     1       8.115  22.474  55.834  1.00  0.00     0.075 A 
HETATM   30  C   UNL     1       8.420  21.116  53.821  1.00  0.00     0.021 A 
HETATM   31  N   UNL     1       7.857  23.752  56.302  1.00  0.00    -0.239 NA
HETATM   32  C   UNL     1       8.343  21.332  56.628  1.00  0.00     0.033 A 
HETATM   33  C   UNL     1       8.611  20.102  56.017  1.00  0.00     0.002 A 
HETATM   34  C   UNL     1       8.650  19.999  54.630  1.00  0.00     0.002 A 
ENDBRANCH   3  26
BRANCH   4  35
HETATM   35  O   UNL     1       8.246  26.158  57.792  1.00  0.00    -0.359 OA
HETATM   36  H   UNL     1       8.807  25.400  57.557  1.00  0.00     0.218 HD
ENDBRANCH   4  35
TORSDOF 9
ENDMDL
MODEL 10
REMARK VINA RESULT:      -8.1      3.125      7.458
REMARK  9 active torsions:
REMARK  status: ('A' for Active; 'I' for Inactive)
REMARK    1  A    between atoms: C_2  and  C_3 
REMARK    2  A    between atoms: C_3  and  O_4 
REMARK    3  A    between atoms: O_4  and  C_5 
REMARK    4  A    between atoms: C_8  and  C_9 
REMARK       I    between atoms: C_9  and  N_10 
REMARK    5  A    between atoms: N_10  and  C_11 
REMARK    6  A    between atoms: C_11  and  N_12 
REMARK    7  A    between atoms: N_12  and  C_13 
REMARK    8  A    between atoms: C_15  and  C_16 
REMARK    9  A    between atoms: C_25  and  O_26 
ROOT
HETATM    1  C   UNL     1       7.156  27.759  53.224  1.00  0.00     0.035 A 
HETATM    2  C   UNL     1       6.119  28.349  52.491  1.00  0.00     0.046 A 
HETATM    3  C   UNL     1       5.237  27.577  51.708  1.00  0.00     0.036 A 
HETATM    4  C   UNL     1       5.435  26.184  51.666  1.00  0.00     0.084 A 
HETATM    5  C   UNL     1       6.498  25.583  52.359  1.00  0.00    -0.026 A 
HETATM    6  C   UNL     1       6.747  24.102  52.274  1.00  0.00     0.051 C 
HETATM    7  C   UNL     1       7.366  26.385  53.114  1.00  0.00     0.039 A 
ENDROOT
BRANCH   1   8
HETATM    8  N   UNL     1       7.947  28.604  54.030  1.00  0.00    -0.333 N 
HETATM    9  H   UNL     1       8.438  29.353  53.548  1.00  0.00     0.168 HD
BRANCH   8  10
HETATM   10  C   UNL     1       8.066  28.695  55.402  1.00  0.00     0.179 C 
HETATM   11  S   UNL     1       9.464  29.390  55.992  1.00  0.00    -0.040 SA
BRANCH  10  12
HETATM   12  N   UNL     1       6.956  28.298  56.132  1.00  0.00    -0.299 N 
HETATM   13  C   UNL     1       6.672  27.202  56.935  1.00  0.00     0.257 C 
HETATM   14  O   UNL     1       6.045  27.389  57.979  1.00  0.00    -0.267 OA
HETATM   15  H   UNL     1       6.505  29.094  56.566  1.00  0.00     0.171 HD
BRANCH  13  16
HETATM   16  C   UNL     1       7.110  25.830  56.606  1.00  0.00     0.032 A 
HETATM   17  C   UNL     1       8.396  25.457  57.016  1.00  0.00     0.020 A 
HETATM   18  C   UNL     1       8.843  24.146  56.844  1.00  0.00     0.038 A 
HETATM   19  C   UNL     1       7.997  23.189  56.284  1.00  0.00     0.068 A 
HETATM   20  C   UNL     1       6.717  23.567  55.861  1.00  0.00     0.038 A 
HETATM   21  C   UNL     1       6.263  24.883  56.029  1.00  0.00     0.020 A 
BRANCH  19  22
HETATM   22  O   UNL     1       8.305  21.865  56.112  1.00  0.00    -0.351 OA
BRANCH  22  23
HETATM   23  C   UNL     1       9.419  21.580  55.261  1.00  0.00     0.175 C 
BRANCH  23  24
HETATM   24  C   UNL     1       9.013  21.775  53.803  1.00  0.00     0.022 C 
HETATM   25  C   UNL     1       8.021  20.719  53.335  1.00  0.00     0.007 C 
ENDBRANCH  23  24
ENDBRANCH  22  23
ENDBRANCH  19  22
ENDBRANCH  13  16
ENDBRANCH  10  12
ENDBRANCH   8  10
ENDBRANCH   1   8
BRANCH   3  26
HETATM   26  C   UNL     1       4.125  28.277  51.043  1.00  0.00     0.112 A 
HETATM   27  S   UNL     1       3.303  29.581  51.808  1.00  0.00    -0.067 SA
HETATM   28  C   UNL     1       2.319  29.794  50.414  1.00  0.00     0.035 A 
HETATM   29  C   UNL     1       2.653  28.821  49.473  1.00  0.00     0.075 A 
HETATM   30  C   UNL     1       1.324  30.755  50.169  1.00  0.00     0.021 A 
HETATM   31  N   UNL     1       3.663  27.953  49.853  1.00  0.00    -0.239 NA
HETATM   32  C   UNL     1       1.965  28.803  48.243  1.00  0.00     0.033 A 
HETATM   33  C   UNL     1       0.974  29.758  47.985  1.00  0.00     0.002 A 
HETATM   34  C   UNL     1       0.661  30.722  48.938  1.00  0.00     0.002 A 
ENDBRANCH   3  26
BRANCH   4  35
HETATM   35  O   UNL     1       4.605  25.331  50.985  1.00  0.00    -0.359 OA
HETATM   36  H   UNL     1       3.824  25.813  50.665  1.00  0.00     0.218 HD
ENDBRANCH   4  35
TORSDOF 9
ENDMDL
