MODEL 1
REMARK VINA RESULT:      -9.9      0.000      0.000
REMARK  3 active torsions:
REMARK  status: ('A' for Active; 'I' for Inactive)
REMARK    1  A    between atoms: C_5  and  C_6 
REMARK       I    between atoms: C_6  and  N_7 
REMARK    2  A    between atoms: N_7  and  C_8 
REMARK    3  A    between atoms: C_15  and  C_16 
REMARK       I    between atoms: C_16  and  N_17 
ROOT
HETATM    1  C   UNL     1       8.379  28.699  57.121  1.00  0.00     0.035 A 
HETATM    2  C   UNL     1       7.792  29.534  58.086  1.00  0.00     0.046 A 
HETATM    3  C   UNL     1       8.514  30.632  58.597  1.00  0.00     0.030 A 
HETATM    4  C   UNL     1       9.799  30.862  58.128  1.00  0.00     0.063 A 
HETATM    5  N   UNL     1      10.237  31.970  58.798  1.00  0.00    -0.277 N 
HETATM    6  H   UNL     1      11.141  32.423  58.709  1.00  0.00     0.189 HD
HETATM    7  N   UNL     1       9.345  32.488  59.659  1.00  0.00    -0.168 NA
HETATM    8  C   UNL     1       8.274  31.671  59.544  1.00  0.00     0.156 A 
HETATM    9  C   UNL     1      10.413  30.056  57.168  1.00  0.00     0.034 A 
HETATM   10  C   UNL     1       9.674  28.972  56.672  1.00  0.00     0.032 A 
ENDROOT
BRANCH   1  11
HETATM   11  N   UNL     1       7.599  27.617  56.662  1.00  0.00    -0.326 N 
HETATM   12  C   UNL     1       7.193  27.344  55.359  1.00  0.00     0.240 C 
HETATM   13  O   UNL     1       7.445  28.043  54.381  1.00  0.00    -0.272 OA
HETATM   14  H   UNL     1       7.384  26.901  57.349  1.00  0.00     0.169 HD
BRANCH  12  15
HETATM   15  C   UNL     1       6.336  26.055  55.267  1.00  0.00     0.172 C 
HETATM   16  C   UNL     1       6.994  24.952  54.450  1.00  0.00    -0.029 A 
HETATM   17  C   UNL     1       7.708  23.876  55.019  1.00  0.00    -0.050 A 
HETATM   18  C   UNL     1       6.917  25.045  53.045  1.00  0.00     0.009 A 
HETATM   19  C   UNL     1       8.304  22.923  54.173  1.00  0.00     0.007 A 
HETATM   20  C   UNL     1       7.812  23.641  56.510  1.00  0.00     0.049 C 
HETATM   21  C   UNL     1       8.214  23.033  52.786  1.00  0.00     0.001 A 
HETATM   22  C   UNL     1       7.521  24.095  52.221  1.00  0.00     0.001 A 
HETATM   23  C   UNL     1       7.479  24.827  57.405  1.00  0.00     0.080 C 
HETATM   24  S   UNL     1       5.866  25.519  56.957  1.00  0.00    -0.149 SA
ENDBRANCH  12  15
ENDBRANCH   1  11
BRANCH   8  25
HETATM   25  C   UNL     1       7.051  31.893  60.328  1.00  0.00     0.270 C 
HETATM   26  N   UNL     1       7.028  31.234  61.526  1.00  0.00    -0.365 N 
HETATM   27  H   UNL     1       7.827  30.664  61.781  1.00  0.00     0.159 HD
HETATM   28  H   UNL     1       6.233  31.329  62.137  1.00  0.00     0.159 HD
HETATM   29  O   UNL     1       6.116  32.603  59.969  1.00  0.00    -0.266 OA
ENDBRANCH   8  25
TORSDOF 3
ENDMDL
MODEL 2
REMARK VINA RESULT:      -9.5      5.044      7.682
REMARK  3 active torsions:
REMARK  status: ('A' for Active; 'I' for Inactive)
REMARK    1  A    between atoms: C_5  and  C_6 
REMARK       I    between atoms: C_6  and  N_7 
REMARK    2  A    between atoms: N_7  and  C_8 
REMARK    3  A    between atoms: C_15  and  C_16 
REMARK       I    between atoms: C_16  and  N_17 
ROOT
HETATM    1  C   UNL     1       5.004  27.597  52.279  1.00  0.00     0.035 A 
HETATM    2  C   UNL     1       5.037  27.337  50.899  1.00  0.00     0.046 A 
HETATM    3  C   UNL     1       4.860  28.393  49.982  1.00  0.00     0.030 A 
HETATM    4  C   UNL     1       4.655  29.675  50.471  1.00  0.00     0.063 A 
HETATM    5  N   UNL     1       4.515  30.467  49.366  1.00  0.00    -0.277 N 
HETATM    6  H   UNL     1       4.347  31.467  49.346  1.00  0.00     0.189 HD
HETATM    7  N   UNL     1       4.618  29.813  48.196  1.00  0.00    -0.168 NA
HETATM    8  C   UNL     1       4.833  28.529  48.562  1.00  0.00     0.156 A 
HETATM    9  C   UNL     1       4.620  29.971  51.834  1.00  0.00     0.034 A 
HETATM   10  C   UNL     1       4.802  28.905  52.727  1.00  0.00     0.032 A 
ENDROOT
BRANCH   1  11
HETATM   11  N   UNL     1       5.180  26.491  53.136  1.00  0.00    -0.326 N 
HETATM   12  C   UNL     1       6.374  25.964  53.622  1.00  0.00     0.240 C 
HETATM   13  O   UNL     1       7.494  26.388  53.350  1.00  0.00    -0.272 OA
HETATM   14  H   UNL     1       4.332  26.083  53.518  1.00  0.00     0.169 HD
BRANCH  12  15
HETATM   15  C   UNL     1       6.146  24.732  54.536  1.00  0.00     0.172 C 
HETATM   16  C   UNL     1       7.243  23.684  54.419  1.00  0.00    -0.029 A 
HETATM   17  C   UNL     1       8.319  23.571  55.325  1.00  0.00    -0.050 A 
HETATM   18  C   UNL     1       7.196  22.810  53.313  1.00  0.00     0.009 A 
HETATM   19  C   UNL     1       9.298  22.583  55.110  1.00  0.00     0.007 A 
HETATM   20  C   UNL     1       8.446  24.414  56.575  1.00  0.00     0.049 C 
HETATM   21  C   UNL     1       9.231  21.729  54.012  1.00  0.00     0.001 A 
HETATM   22  C   UNL     1       8.180  21.842  53.111  1.00  0.00     0.001 A 
HETATM   23  C   UNL     1       7.605  25.682  56.623  1.00  0.00     0.080 C 
HETATM   24  S   UNL     1       5.871  25.300  56.259  1.00  0.00    -0.149 SA
ENDBRANCH  12  15
ENDBRANCH   1  11
BRANCH   8  25
HETATM   25  C   UNL     1       5.009  27.465  47.564  1.00  0.00     0.270 C 
HETATM   26  N   UNL     1       6.265  27.407  47.026  1.00  0.00    -0.365 N 
HETATM   27  H   UNL     1       6.960  28.073  47.343  1.00  0.00     0.159 HD
HETATM   28  H   UNL     1       6.485  26.707  46.336  1.00  0.00     0.159 HD
HETATM   29  O   UNL     1       4.129  26.681  47.223  1.00  0.00    -0.266 OA
ENDBRANCH   8  25
TORSDOF 3
ENDMDL
MODEL 3
REMARK VINA RESULT:      -9.5      4.704      7.422
REMARK  3 active torsions:
REMARK  status: ('A' for Active; 'I' for Inactive)
REMARK    1  A    between atoms: C_5  and  C_6 
REMARK       I    between atoms: C_6  and  N_7 
REMARK    2  A    between atoms: N_7  and  C_8 
REMARK    3  A    between atoms: C_15  and  C_16 
REMARK       I    between atoms: C_16  and  N_17 
ROOT
HETATM    1  C   UNL     1       7.230  25.103  52.659  1.00  0.00     0.035 A 
HETATM    2  C   UNL     1       7.066  25.413  54.020  1.00  0.00     0.046 A 
HETATM    3  C   UNL     1       7.516  24.510  55.004  1.00  0.00     0.030 A 
HETATM    4  C   UNL     1       8.114  23.325  54.600  1.00  0.00     0.063 A 
HETATM    5  N   UNL     1       8.434  22.668  55.755  1.00  0.00    -0.277 N 
HETATM    6  H   UNL     1       8.884  21.763  55.841  1.00  0.00     0.189 HD
HETATM    7  N   UNL     1       8.102  23.325  56.879  1.00  0.00    -0.168 NA
HETATM    8  C   UNL     1       7.534  24.467  56.430  1.00  0.00     0.156 A 
HETATM    9  C   UNL     1       8.297  22.986  53.259  1.00  0.00     0.034 A 
HETATM   10  C   UNL     1       7.845  23.901  52.298  1.00  0.00     0.032 A 
ENDROOT
BRANCH   1  11
HETATM   11  N   UNL     1       6.748  26.050  51.732  1.00  0.00    -0.326 N 
HETATM   12  C   UNL     1       5.478  26.129  51.167  1.00  0.00     0.240 C 
HETATM   13  O   UNL     1       4.560  25.343  51.385  1.00  0.00    -0.272 OA
HETATM   14  H   UNL     1       7.373  26.821  51.517  1.00  0.00     0.169 HD
BRANCH  12  15
HETATM   15  C   UNL     1       5.345  27.317  50.180  1.00  0.00     0.172 C 
HETATM   16  C   UNL     1       4.129  27.212  49.271  1.00  0.00    -0.029 A 
HETATM   17  C   UNL     1       2.910  27.882  49.512  1.00  0.00    -0.050 A 
HETATM   18  C   UNL     1       4.221  26.357  48.153  1.00  0.00     0.009 A 
HETATM   19  C   UNL     1       1.835  27.694  48.624  1.00  0.00     0.007 A 
HETATM   20  C   UNL     1       2.710  28.865  50.645  1.00  0.00     0.049 C 
HETATM   21  C   UNL     1       1.949  26.847  47.523  1.00  0.00     0.001 A 
HETATM   22  C   UNL     1       3.142  26.177  47.288  1.00  0.00     0.001 A 
HETATM   23  C   UNL     1       3.725  28.804  51.779  1.00  0.00     0.080 C 
HETATM   24  S   UNL     1       5.410  28.893  51.118  1.00  0.00    -0.149 SA
ENDBRANCH  12  15
ENDBRANCH   1  11
BRANCH   8  25
HETATM   25  C   UNL     1       7.026  25.488  57.356  1.00  0.00     0.270 C 
HETATM   26  N   UNL     1       5.668  25.654  57.314  1.00  0.00    -0.365 N 
HETATM   27  H   UNL     1       5.129  25.081  56.674  1.00  0.00     0.159 HD
HETATM   28  H   UNL     1       5.225  26.328  57.917  1.00  0.00     0.159 HD
HETATM   29  O   UNL     1       7.728  26.148  58.114  1.00  0.00    -0.266 OA
ENDBRANCH   8  25
TORSDOF 3
ENDMDL
MODEL 4
REMARK VINA RESULT:      -9.3      5.338      7.636
REMARK  3 active torsions:
REMARK  status: ('A' for Active; 'I' for Inactive)
REMARK    1  A    between atoms: C_5  and  C_6 
REMARK       I    between atoms: C_6  and  N_7 
REMARK    2  A    between atoms: N_7  and  C_8 
REMARK    3  A    between atoms: C_15  and  C_16 
REMARK       I    between atoms: C_16  and  N_17 
ROOT
HETATM    1  C   UNL     1       4.888  26.477  50.476  1.00  0.00     0.035 A 
HETATM    2  C   UNL     1       5.183  27.846  50.589  1.00  0.00     0.046 A 
HETATM    3  C   UNL     1       5.058  28.687  49.464  1.00  0.00     0.030 A 
HETATM    4  C   UNL     1       4.645  28.134  48.261  1.00  0.00     0.063 A 
HETATM    5  N   UNL     1       4.624  29.174  47.373  1.00  0.00    -0.277 N 
HETATM    6  H   UNL     1       4.372  29.135  46.391  1.00  0.00     0.189 HD
HETATM    7  N   UNL     1       4.982  30.359  47.895  1.00  0.00    -0.168 NA
HETATM    8  C   UNL     1       5.253  30.072  49.189  1.00  0.00     0.156 A 
HETATM    9  C   UNL     1       4.340  26.781  48.112  1.00  0.00     0.034 A 
HETATM   10  C   UNL     1       4.467  25.965  49.245  1.00  0.00     0.032 A 
ENDROOT
BRANCH   1  11
HETATM   11  N   UNL     1       5.042  25.697  51.641  1.00  0.00    -0.326 N 
HETATM   12  C   UNL     1       6.224  25.236  52.213  1.00  0.00     0.240 C 
HETATM   13  O   UNL     1       7.350  25.429  51.761  1.00  0.00    -0.272 OA
HETATM   14  H   UNL     1       4.198  25.527  52.178  1.00  0.00     0.169 HD
BRANCH  12  15
HETATM   15  C   UNL     1       5.971  24.400  53.494  1.00  0.00     0.172 C 
HETATM   16  C   UNL     1       7.162  23.543  53.900  1.00  0.00    -0.029 A 
HETATM   17  C   UNL     1       8.095  23.917  54.891  1.00  0.00    -0.050 A 
HETATM   18  C   UNL     1       7.362  22.331  53.206  1.00  0.00     0.009 A 
HETATM   19  C   UNL     1       9.179  23.065  55.171  1.00  0.00     0.007 A 
HETATM   20  C   UNL     1       7.956  25.164  55.737  1.00  0.00     0.049 C 
HETATM   21  C   UNL     1       9.356  21.870  54.475  1.00  0.00     0.001 A 
HETATM   22  C   UNL     1       8.447  21.503  53.491  1.00  0.00     0.001 A 
HETATM   23  C   UNL     1       7.007  26.233  55.213  1.00  0.00     0.080 C 
HETATM   24  S   UNL     1       5.390  25.509  54.836  1.00  0.00    -0.149 SA
ENDBRANCH  12  15
ENDBRANCH   1  11
BRANCH   8  25
HETATM   25  C   UNL     1       5.684  31.114  50.131  1.00  0.00     0.270 C 
HETATM   26  N   UNL     1       5.015  31.099  51.325  1.00  0.00    -0.365 N 
HETATM   27  H   UNL     1       4.300  30.396  51.471  1.00  0.00     0.159 HD
HETATM   28  H   UNL     1       5.245  31.772  52.038  1.00  0.00     0.159 HD
HETATM   29  O   UNL     1       6.565  31.936  49.901  1.00  0.00    -0.266 OA
ENDBRANCH   8  25
TORSDOF 3
ENDMDL
MODEL 5
REMARK VINA RESULT:      -9.3      1.479      2.115
REMARK  3 active torsions:
REMARK  status: ('A' for Active; 'I' for Inactive)
REMARK    1  A    between atoms: C_5  and  C_6 
REMARK       I    between atoms: C_6  and  N_7 
REMARK    2  A    between atoms: N_7  and  C_8 
REMARK    3  A    between atoms: C_15  and  C_16 
REMARK       I    between atoms: C_16  and  N_17 
ROOT
HETATM    1  C   UNL     1       8.491  28.440  57.036  1.00  0.00     0.035 A 
HETATM    2  C   UNL     1       7.868  29.275  57.979  1.00  0.00     0.046 A 
HETATM    3  C   UNL     1       8.541  30.417  58.459  1.00  0.00     0.030 A 
HETATM    4  C   UNL     1       9.815  30.689  57.983  1.00  0.00     0.063 A 
HETATM    5  N   UNL     1      10.204  31.833  58.623  1.00  0.00    -0.277 N 
HETATM    6  H   UNL     1      11.087  32.322  58.521  1.00  0.00     0.189 HD
HETATM    7  N   UNL     1       9.290  32.335  59.470  1.00  0.00    -0.168 NA
HETATM    8  C   UNL     1       8.255  31.469  59.378  1.00  0.00     0.156 A 
HETATM    9  C   UNL     1      10.463  29.886  57.045  1.00  0.00     0.034 A 
HETATM   10  C   UNL     1       9.773  28.758  56.579  1.00  0.00     0.032 A 
ENDROOT
BRANCH   1  11
HETATM   11  N   UNL     1       7.760  27.313  56.607  1.00  0.00    -0.326 N 
HETATM   12  C   UNL     1       7.670  26.066  57.219  1.00  0.00     0.240 C 
HETATM   13  O   UNL     1       8.252  25.743  58.252  1.00  0.00    -0.272 OA
HETATM   14  H   UNL     1       7.154  27.453  55.805  1.00  0.00     0.169 HD
BRANCH  12  15
HETATM   15  C   UNL     1       6.767  25.085  56.428  1.00  0.00     0.172 C 
HETATM   16  C   UNL     1       6.544  25.504  54.982  1.00  0.00    -0.029 A 
HETATM   17  C   UNL     1       7.271  24.977  53.893  1.00  0.00    -0.050 A 
HETATM   18  C   UNL     1       5.587  26.510  54.733  1.00  0.00     0.009 A 
HETATM   19  C   UNL     1       7.007  25.454  52.596  1.00  0.00     0.007 A 
HETATM   20  C   UNL     1       8.281  23.859  54.029  1.00  0.00     0.049 C 
HETATM   21  C   UNL     1       6.055  26.447  52.372  1.00  0.00     0.001 A 
HETATM   22  C   UNL     1       5.345  26.977  53.441  1.00  0.00     0.001 A 
HETATM   23  C   UNL     1       8.808  23.593  55.432  1.00  0.00     0.080 C 
HETATM   24  S   UNL     1       7.432  23.383  56.592  1.00  0.00    -0.149 SA
ENDBRANCH  12  15
ENDBRANCH   1  11
BRANCH   8  25
HETATM   25  C   UNL     1       7.024  31.659  60.156  1.00  0.00     0.270 C 
HETATM   26  N   UNL     1       5.901  31.827  59.393  1.00  0.00    -0.365 N 
HETATM   27  H   UNL     1       5.992  31.806  58.384  1.00  0.00     0.159 HD
HETATM   28  H   UNL     1       5.006  31.959  59.837  1.00  0.00     0.159 HD
HETATM   29  O   UNL     1       6.972  31.668  61.382  1.00  0.00    -0.266 OA
ENDBRANCH   8  25
TORSDOF 3
ENDMDL
MODEL 6
REMARK VINA RESULT:      -8.7      5.122      7.881
REMARK  3 active torsions:
REMARK  status: ('A' for Active; 'I' for Inactive)
REMARK    1  A    between atoms: C_5  and  C_6 
REMARK       I    between atoms: C_6  and  N_7 
REMARK    2  A    between atoms: N_7  and  C_8 
REMARK    3  A    between atoms: C_15  and  C_16 
REMARK       I    between atoms: C_16  and  N_17 
ROOT
HETATM    1  C   UNL     1       6.729  26.269  53.926  1.00  0.00     0.035 A 
HETATM    2  C   UNL     1       7.222  24.956  53.842  1.00  0.00     0.046 A 
HETATM    3  C   UNL     1       7.553  24.254  55.020  1.00  0.00     0.030 A 
HETATM    4  C   UNL     1       7.383  24.886  56.243  1.00  0.00     0.063 A 
HETATM    5  N   UNL     1       7.785  23.976  57.180  1.00  0.00    -0.277 N 
HETATM    6  H   UNL     1       7.801  24.099  58.187  1.00  0.00     0.189 HD
HETATM    7  N   UNL     1       8.196  22.801  56.674  1.00  0.00    -0.168 NA
HETATM    8  C   UNL     1       8.057  22.959  55.338  1.00  0.00     0.156 A 
HETATM    9  C   UNL     1       6.893  26.187  56.364  1.00  0.00     0.034 A 
HETATM   10  C   UNL     1       6.567  26.864  55.180  1.00  0.00     0.032 A 
ENDROOT
BRANCH   1  11
HETATM   11  N   UNL     1       6.427  26.910  52.707  1.00  0.00    -0.326 N 
HETATM   12  C   UNL     1       5.425  26.590  51.794  1.00  0.00     0.240 C 
HETATM   13  O   UNL     1       4.639  25.654  51.911  1.00  0.00    -0.272 OA
HETATM   14  H   UNL     1       6.942  27.764  52.512  1.00  0.00     0.169 HD
BRANCH  12  15
HETATM   15  C   UNL     1       5.423  27.536  50.566  1.00  0.00     0.172 C 
HETATM   16  C   UNL     1       4.307  27.234  49.575  1.00  0.00    -0.029 A 
HETATM   17  C   UNL     1       3.085  27.938  49.533  1.00  0.00    -0.050 A 
HETATM   18  C   UNL     1       4.498  26.157  48.685  1.00  0.00     0.009 A 
HETATM   19  C   UNL     1       2.106  27.560  48.596  1.00  0.00     0.007 A 
HETATM   20  C   UNL     1       2.788  29.143  50.399  1.00  0.00     0.049 C 
HETATM   21  C   UNL     1       2.317  26.494  47.723  1.00  0.00     0.001 A 
HETATM   22  C   UNL     1       3.513  25.791  47.768  1.00  0.00     0.001 A 
HETATM   23  C   UNL     1       3.676  29.332  51.621  1.00  0.00     0.080 C 
HETATM   24  S   UNL     1       5.423  29.278  51.143  1.00  0.00    -0.149 SA
ENDBRANCH  12  15
ENDBRANCH   1  11
BRANCH   8  25
HETATM   25  C   UNL     1       8.400  21.883  54.398  1.00  0.00     0.270 C 
HETATM   26  N   UNL     1       7.794  20.688  54.672  1.00  0.00    -0.365 N 
HETATM   27  H   UNL     1       7.173  20.630  55.470  1.00  0.00     0.159 HD
HETATM   28  H   UNL     1       7.964  19.891  54.079  1.00  0.00     0.159 HD
HETATM   29  O   UNL     1       9.157  22.014  53.441  1.00  0.00    -0.266 OA
ENDBRANCH   8  25
TORSDOF 3
ENDMDL
MODEL 7
REMARK VINA RESULT:      -8.7      5.540      8.846
REMARK  3 active torsions:
REMARK  status: ('A' for Active; 'I' for Inactive)
REMARK    1  A    between atoms: C_5  and  C_6 
REMARK       I    between atoms: C_6  and  N_7 
REMARK    2  A    between atoms: N_7  and  C_8 
REMARK    3  A    between atoms: C_15  and  C_16 
REMARK       I    between atoms: C_16  and  N_17 
ROOT
HETATM    1  C   UNL     1       4.692  27.995  51.457  1.00  0.00     0.035 A 
HETATM    2  C   UNL     1       4.362  27.499  50.185  1.00  0.00     0.046 A 
HETATM    3  C   UNL     1       3.220  27.987  49.516  1.00  0.00     0.030 A 
HETATM    4  C   UNL     1       2.445  28.954  50.138  1.00  0.00     0.063 A 
HETATM    5  N   UNL     1       1.427  29.220  49.265  1.00  0.00    -0.277 N 
HETATM    6  H   UNL     1       0.665  29.877  49.394  1.00  0.00     0.189 HD
HETATM    7  N   UNL     1       1.475  28.514  48.123  1.00  0.00    -0.168 NA
HETATM    8  C   UNL     1       2.581  27.748  48.264  1.00  0.00     0.156 A 
HETATM    9  C   UNL     1       2.744  29.473  51.398  1.00  0.00     0.034 A 
HETATM   10  C   UNL     1       3.886  28.975  52.043  1.00  0.00     0.032 A 
ENDROOT
BRANCH   1  11
HETATM   11  N   UNL     1       5.843  27.454  52.068  1.00  0.00    -0.326 N 
HETATM   12  C   UNL     1       5.908  26.526  53.104  1.00  0.00     0.240 C 
HETATM   13  O   UNL     1       4.937  26.037  53.675  1.00  0.00    -0.272 OA
HETATM   14  H   UNL     1       6.731  27.701  51.642  1.00  0.00     0.169 HD
BRANCH  12  15
HETATM   15  C   UNL     1       7.368  26.189  53.501  1.00  0.00     0.172 C 
HETATM   16  C   UNL     1       7.539  25.910  54.987  1.00  0.00    -0.029 A 
HETATM   17  C   UNL     1       7.583  24.613  55.541  1.00  0.00    -0.050 A 
HETATM   18  C   UNL     1       7.611  27.019  55.856  1.00  0.00     0.009 A 
HETATM   19  C   UNL     1       7.715  24.465  56.934  1.00  0.00     0.007 A 
HETATM   20  C   UNL     1       7.570  23.351  54.708  1.00  0.00     0.049 C 
HETATM   21  C   UNL     1       7.787  25.575  57.774  1.00  0.00     0.001 A 
HETATM   22  C   UNL     1       7.734  26.854  57.235  1.00  0.00     0.001 A 
HETATM   23  C   UNL     1       7.086  23.495  53.271  1.00  0.00     0.080 C 
HETATM   24  S   UNL     1       7.986  24.828  52.436  1.00  0.00    -0.149 SA
ENDBRANCH  12  15
ENDBRANCH   1  11
BRANCH   8  25
HETATM   25  C   UNL     1       3.006  26.813  47.213  1.00  0.00     0.270 C 
HETATM   26  N   UNL     1       1.972  26.240  46.524  1.00  0.00    -0.365 N 
HETATM   27  H   UNL     1       1.023  26.493  46.774  1.00  0.00     0.159 HD
HETATM   28  H   UNL     1       2.164  25.588  45.780  1.00  0.00     0.159 HD
HETATM   29  O   UNL     1       4.175  26.549  46.951  1.00  0.00    -0.266 OA
ENDBRANCH   8  25
TORSDOF 3
ENDMDL
MODEL 8
REMARK VINA RESULT:      -8.7      3.358      8.755
REMARK  3 active torsions:
REMARK  status: ('A' for Active; 'I' for Inactive)
REMARK    1  A    between atoms: C_5  and  C_6 
REMARK       I    between atoms: C_6  and  N_7 
REMARK    2  A    between atoms: N_7  and  C_8 
REMARK    3  A    between atoms: C_15  and  C_16 
REMARK       I    between atoms: C_16  and  N_17 
ROOT
HETATM    1  C   UNL     1       6.346  30.204  57.624  1.00  0.00     0.035 A 
HETATM    2  C   UNL     1       6.750  28.859  57.661  1.00  0.00     0.046 A 
HETATM    3  C   UNL     1       6.081  27.903  56.870  1.00  0.00     0.030 A 
HETATM    4  C   UNL     1       5.029  28.320  56.067  1.00  0.00     0.063 A 
HETATM    5  N   UNL     1       4.586  27.191  55.435  1.00  0.00    -0.277 N 
HETATM    6  H   UNL     1       3.821  27.120  54.773  1.00  0.00     0.189 HD
HETATM    7  N   UNL     1       5.263  26.075  55.752  1.00  0.00    -0.168 NA
HETATM    8  C   UNL     1       6.192  26.501  56.638  1.00  0.00     0.156 A 
HETATM    9  C   UNL     1       4.603  29.647  56.002  1.00  0.00     0.034 A 
HETATM   10  C   UNL     1       5.286  30.581  56.795  1.00  0.00     0.032 A 
ENDROOT
BRANCH   1  11
HETATM   11  N   UNL     1       7.057  31.102  58.448  1.00  0.00    -0.326 N 
HETATM   12  C   UNL     1       6.564  31.885  59.488  1.00  0.00     0.240 C 
HETATM   13  O   UNL     1       5.389  31.928  59.843  1.00  0.00    -0.272 OA
HETATM   14  H   UNL     1       8.065  31.112  58.329  1.00  0.00     0.169 HD
BRANCH  12  15
HETATM   15  C   UNL     1       7.669  32.749  60.149  1.00  0.00     0.172 C 
HETATM   16  C   UNL     1       7.427  33.008  61.629  1.00  0.00    -0.029 A 
HETATM   17  C   UNL     1       8.039  32.269  62.664  1.00  0.00    -0.050 A 
HETATM   18  C   UNL     1       6.501  34.014  61.973  1.00  0.00     0.009 A 
HETATM   19  C   UNL     1       7.724  32.570  64.002  1.00  0.00     0.007 A 
HETATM   20  C   UNL     1       9.086  31.205  62.420  1.00  0.00     0.049 C 
HETATM   21  C   UNL     1       6.808  33.571  64.320  1.00  0.00     0.001 A 
HETATM   22  C   UNL     1       6.194  34.293  63.306  1.00  0.00     0.001 A 
HETATM   23  C   UNL     1       9.168  30.649  61.005  1.00  0.00     0.080 C 
HETATM   24  S   UNL     1       9.309  32.001  59.806  1.00  0.00    -0.149 SA
ENDBRANCH  12  15
ENDBRANCH   1  11
BRANCH   8  25
HETATM   25  C   UNL     1       7.161  25.574  57.239  1.00  0.00     0.270 C 
HETATM   26  N   UNL     1       7.251  24.368  56.600  1.00  0.00    -0.365 N 
HETATM   27  H   UNL     1       6.669  24.206  55.786  1.00  0.00     0.159 HD
HETATM   28  H   UNL     1       7.893  23.668  56.936  1.00  0.00     0.159 HD
HETATM   29  O   UNL     1       7.845  25.829  58.225  1.00  0.00    -0.266 OA
ENDBRANCH   8  25
TORSDOF 3
ENDMDL
MODEL 9
REMARK VINA RESULT:      -8.6      3.857      9.690
REMARK  3 active torsions:
REMARK  status: ('A' for Active; 'I' for Inactive)
REMARK    1  A    between atoms: C_5  and  C_6 
REMARK       I    between atoms: C_6  and  N_7 
REMARK    2  A    between atoms: N_7  and  C_8 
REMARK    3  A    between atoms: C_15  and  C_16 
REMARK       I    between atoms: C_16  and  N_17 
ROOT
HETATM    1  C   UNL     1       7.898  31.418  60.303  1.00  0.00     0.035 A 
HETATM    2  C   UNL     1       7.724  30.554  59.208  1.00  0.00     0.046 A 
HETATM    3  C   UNL     1       8.754  30.410  58.257  1.00  0.00     0.030 A 
HETATM    4  C   UNL     1       9.926  31.134  58.428  1.00  0.00     0.063 A 
HETATM    5  N   UNL     1      10.718  30.796  57.366  1.00  0.00    -0.277 N 
HETATM    6  H   UNL     1      11.651  31.140  57.164  1.00  0.00     0.189 HD
HETATM    7  N   UNL     1      10.168  29.909  56.521  1.00  0.00    -0.168 NA
HETATM    8  C   UNL     1       8.953  29.661  57.060  1.00  0.00     0.156 A 
HETATM    9  C   UNL     1      10.135  31.997  59.503  1.00  0.00     0.034 A 
HETATM   10  C   UNL     1       9.097  32.121  60.439  1.00  0.00     0.032 A 
ENDROOT
BRANCH   1  11
HETATM   11  N   UNL     1       6.821  31.516  61.208  1.00  0.00    -0.326 N 
HETATM   12  C   UNL     1       6.345  32.654  61.854  1.00  0.00     0.240 C 
HETATM   13  O   UNL     1       6.822  33.780  61.743  1.00  0.00    -0.272 OA
HETATM   14  H   UNL     1       6.268  30.674  61.337  1.00  0.00     0.169 HD
BRANCH  12  15
HETATM   15  C   UNL     1       5.142  32.345  62.782  1.00  0.00     0.172 C 
HETATM   16  C   UNL     1       4.920  33.402  63.855  1.00  0.00    -0.029 A 
HETATM   17  C   UNL     1       3.971  34.440  63.747  1.00  0.00    -0.050 A 
HETATM   18  C   UNL     1       5.749  33.359  64.995  1.00  0.00     0.009 A 
HETATM   19  C   UNL     1       3.865  35.385  64.784  1.00  0.00     0.007 A 
HETATM   20  C   UNL     1       2.992  34.557  62.599  1.00  0.00     0.049 C 
HETATM   21  C   UNL     1       4.692  35.323  65.904  1.00  0.00     0.001 A 
HETATM   22  C   UNL     1       5.636  34.310  66.010  1.00  0.00     0.001 A 
HETATM   23  C   UNL     1       3.327  33.766  61.342  1.00  0.00     0.080 C 
HETATM   24  S   UNL     1       3.652  32.033  61.758  1.00  0.00    -0.149 SA
ENDBRANCH  12  15
ENDBRANCH   1  11
BRANCH   8  25
HETATM   25  C   UNL     1       8.012  28.721  56.435  1.00  0.00     0.270 C 
HETATM   26  N   UNL     1       7.289  29.257  55.405  1.00  0.00    -0.365 N 
HETATM   27  H   UNL     1       7.448  30.226  55.153  1.00  0.00     0.159 HD
HETATM   28  H   UNL     1       6.621  28.688  54.909  1.00  0.00     0.159 HD
HETATM   29  O   UNL     1       7.867  27.553  56.779  1.00  0.00    -0.266 OA
ENDBRANCH   8  25
TORSDOF 3
ENDMDL
MODEL 10
REMARK VINA RESULT:      -8.6      5.602     10.738
REMARK  3 active torsions:
REMARK  status: ('A' for Active; 'I' for Inactive)
REMARK    1  A    between atoms: C_5  and  C_6 
REMARK       I    between atoms: C_6  and  N_7 
REMARK    2  A    between atoms: N_7  and  C_8 
REMARK    3  A    between atoms: C_15  and  C_16 
REMARK       I    between atoms: C_16  and  N_17 
ROOT
HETATM    1  C   UNL     1       6.533  33.023  62.307  1.00  0.00     0.035 A 
HETATM    2  C   UNL     1       6.374  32.418  61.049  1.00  0.00     0.046 A 
HETATM    3  C   UNL     1       7.385  31.576  60.543  1.00  0.00     0.030 A 
HETATM    4  C   UNL     1       8.523  31.366  61.307  1.00  0.00     0.063 A 
HETATM    5  N   UNL     1       9.308  30.526  60.566  1.00  0.00    -0.277 N 
HETATM    6  H   UNL     1      10.221  30.163  60.815  1.00  0.00     0.189 HD
HETATM    7  N   UNL     1       8.776  30.165  59.386  1.00  0.00    -0.168 NA
HETATM    8  C   UNL     1       7.586  30.807  59.359  1.00  0.00     0.156 A 
HETATM    9  C   UNL     1       8.713  31.946  62.562  1.00  0.00     0.034 A 
HETATM   10  C   UNL     1       7.693  32.777  63.047  1.00  0.00     0.032 A 
ENDROOT
BRANCH   1  11
HETATM   11  N   UNL     1       5.484  33.858  62.745  1.00  0.00    -0.326 N 
HETATM   12  C   UNL     1       4.621  33.660  63.819  1.00  0.00     0.240 C 
HETATM   13  O   UNL     1       4.632  32.681  64.561  1.00  0.00    -0.272 OA
HETATM   14  H   UNL     1       5.404  34.756  62.278  1.00  0.00     0.169 HD
BRANCH  12  15
HETATM   15  C   UNL     1       3.592  34.810  63.969  1.00  0.00     0.172 C 
HETATM   16  C   UNL     1       4.109  36.150  63.467  1.00  0.00    -0.029 A 
HETATM   17  C   UNL     1       3.812  36.677  62.192  1.00  0.00    -0.050 A 
HETATM   18  C   UNL     1       4.972  36.876  64.314  1.00  0.00     0.009 A 
HETATM   19  C   UNL     1       4.365  37.914  61.813  1.00  0.00     0.007 A 
HETATM   20  C   UNL     1       2.858  36.017  61.220  1.00  0.00     0.049 C 
HETATM   21  C   UNL     1       5.214  38.616  62.667  1.00  0.00     0.001 A 
HETATM   22  C   UNL     1       5.518  38.097  63.919  1.00  0.00     0.001 A 
HETATM   23  C   UNL     1       2.543  34.550  61.475  1.00  0.00     0.080 C 
HETATM   24  S   UNL     1       2.008  34.310  63.190  1.00  0.00    -0.149 SA
ENDBRANCH  12  15
ENDBRANCH   1  11
BRANCH   8  25
HETATM   25  C   UNL     1       6.669  30.676  58.218  1.00  0.00     0.270 C 
HETATM   26  N   UNL     1       6.435  29.383  57.836  1.00  0.00    -0.365 N 
HETATM   27  H   UNL     1       6.891  28.636  58.348  1.00  0.00     0.159 HD
HETATM   28  H   UNL     1       5.815  29.191  57.066  1.00  0.00     0.159 HD
HETATM   29  O   UNL     1       6.141  31.620  57.640  1.00  0.00    -0.266 OA
ENDBRANCH   8  25
TORSDOF 3
ENDMDL
