MODEL 1
REMARK VINA RESULT:     -10.2      0.000      0.000
REMARK  6 active torsions:
REMARK  status: ('A' for Active; 'I' for Inactive)
REMARK    1  A    between atoms: N_6  and  C_7 
REMARK    2  A    between atoms: C_10  and  N_11 
REMARK    3  A    between atoms: N_11  and  C_12 
REMARK    4  A    between atoms: C_12  and  N_13 
REMARK       I    between atoms: N_13  and  C_14 
REMARK    5  A    between atoms: C_14  and  C_15 
REMARK    6  A    between atoms: C_16  and  O_17 
ROOT
HETATM    1  C   UNL     1       9.011  29.056  57.027  1.00  0.00     0.179 C 
HETATM    2  S   UNL     1      10.578  29.640  57.034  1.00  0.00    -0.040 SA
ENDROOT
BRANCH   1   3
HETATM    3  N   UNL     1       7.995  29.889  57.359  1.00  0.00    -0.333 N 
HETATM    4  H   UNL     1       7.367  30.110  56.593  1.00  0.00     0.168 HD
BRANCH   3   5
HETATM    5  C   UNL     1       7.792  30.614  58.547  1.00  0.00     0.034 C 
HETATM    6  C   UNL     1       6.877  31.663  58.540  1.00  0.00     0.032 C 
HETATM    7  C   UNL     1       6.556  32.333  59.732  1.00  0.00     0.031 C 
HETATM    8  C   UNL     1       7.137  31.965  60.952  1.00  0.00     0.030 C 
HETATM    9  C   UNL     1       8.165  31.012  60.898  1.00  0.00     0.031 C 
HETATM   10  C   UNL     1       8.492  30.348  59.716  1.00  0.00     0.032 C 
BRANCH   8  11
HETATM   11  N   UNL     1       6.743  32.470  62.198  1.00  0.00    -0.378 N 
HETATM   12  C   UNL     1       5.685  31.661  62.857  1.00  0.00     0.150 C 
HETATM   13  C   UNL     1       4.286  32.117  62.394  1.00  0.00     0.254 C 
HETATM   14  N   UNL     1       4.101  33.605  62.705  1.00  0.00    -0.072 N 
HETATM   15  C   UNL     1       2.728  34.086  62.352  1.00  0.00     0.269 C 
HETATM   16  H   UNL     1       4.221  33.713  63.721  1.00  0.00     0.279 HD
HETATM   17  C   UNL     1       5.192  34.439  62.033  1.00  0.00     0.254 C 
HETATM   18  C   UNL     1       6.601  33.922  62.403  1.00  0.00     0.150 C 
ENDBRANCH   8  11
ENDBRANCH   3   5
ENDBRANCH   1   3
BRANCH   1  19
HETATM   19  N   UNL     1       8.809  27.764  56.627  1.00  0.00    -0.299 N 
HETATM   20  C   UNL     1       8.026  26.769  57.211  1.00  0.00     0.260 C 
HETATM   21  O   UNL     1       7.379  26.824  58.249  1.00  0.00    -0.267 OA
HETATM   22  H   UNL     1       9.011  27.633  55.644  1.00  0.00     0.171 HD
BRANCH  20  23
HETATM   23  C   UNL     1       7.905  25.552  56.389  1.00  0.00     0.068 A 
HETATM   24  C   UNL     1       7.621  25.616  55.025  1.00  0.00     0.102 A 
HETATM   25  C   UNL     1       7.654  24.433  54.263  1.00  0.00     0.056 A 
HETATM   26 BR   UNL     1       7.449  24.555  52.360  1.00  0.00    -0.047 Br
HETATM   27  C   UNL     1       7.884  23.168  54.881  1.00  0.00    -0.006 A 
HETATM   28  C   UNL     1       8.126  23.138  56.280  1.00  0.00    -0.024 A 
HETATM   29  C   UNL     1       7.896  21.924  54.200  1.00  0.00     0.014 A 
HETATM   30  C   UNL     1       8.150  24.329  57.014  1.00  0.00     0.032 A 
HETATM   31  C   UNL     1       8.359  21.919  56.936  1.00  0.00     0.012 A 
HETATM   32  C   UNL     1       8.357  20.716  56.234  1.00  0.00     0.001 A 
HETATM   33  C   UNL     1       8.127  20.718  54.866  1.00  0.00     0.001 A 
BRANCH  24  34
HETATM   34  O   UNL     1       7.391  26.842  54.454  1.00  0.00    -0.353 OA
HETATM   35  C   UNL     1       5.994  27.157  54.418  1.00  0.00     0.210 C 
ENDBRANCH  24  34
ENDBRANCH  20  23
ENDBRANCH   1  19
TORSDOF 6
ENDMDL
MODEL 2
REMARK VINA RESULT:      -9.8      2.792      4.022
REMARK  6 active torsions:
REMARK  status: ('A' for Active; 'I' for Inactive)
REMARK    1  A    between atoms: N_6  and  C_7 
REMARK    2  A    between atoms: C_10  and  N_11 
REMARK    3  A    between atoms: N_11  and  C_12 
REMARK    4  A    between atoms: C_12  and  N_13 
REMARK       I    between atoms: N_13  and  C_14 
REMARK    5  A    between atoms: C_14  and  C_15 
REMARK    6  A    between atoms: C_16  and  O_17 
ROOT
HETATM    1  C   UNL     1       8.882  28.543  57.294  1.00  0.00     0.179 C 
HETATM    2  S   UNL     1      10.239  29.437  56.897  1.00  0.00    -0.040 SA
ENDROOT
BRANCH   1   3
HETATM    3  N   UNL     1       7.990  29.056  58.175  1.00  0.00    -0.333 N 
HETATM    4  H   UNL     1       8.151  28.787  59.140  1.00  0.00     0.168 HD
BRANCH   3   5
HETATM    5  C   UNL     1       6.794  29.754  57.924  1.00  0.00     0.034 C 
HETATM    6  C   UNL     1       6.749  31.119  58.196  1.00  0.00     0.032 C 
HETATM    7  C   UNL     1       5.618  31.876  57.848  1.00  0.00     0.031 C 
HETATM    8  C   UNL     1       4.514  31.285  57.219  1.00  0.00     0.030 C 
HETATM    9  C   UNL     1       4.528  29.887  57.103  1.00  0.00     0.031 C 
HETATM   10  C   UNL     1       5.648  29.131  57.452  1.00  0.00     0.032 C 
BRANCH   8  11
HETATM   11  N   UNL     1       3.429  31.999  56.694  1.00  0.00    -0.378 N 
HETATM   12  C   UNL     1       2.757  31.308  55.564  1.00  0.00     0.150 C 
HETATM   13  C   UNL     1       3.445  31.658  54.228  1.00  0.00     0.254 C 
HETATM   14  N   UNL     1       3.427  33.176  54.023  1.00  0.00    -0.072 N 
HETATM   15  C   UNL     1       4.010  33.570  52.701  1.00  0.00     0.269 C 
HETATM   16  H   UNL     1       2.440  33.464  54.030  1.00  0.00     0.279 HD
HETATM   17  C   UNL     1       4.113  33.889  55.187  1.00  0.00     0.254 C 
HETATM   18  C   UNL     1       3.503  33.463  56.543  1.00  0.00     0.150 C 
ENDBRANCH   8  11
ENDBRANCH   3   5
ENDBRANCH   1   3
BRANCH   1  19
HETATM   19  N   UNL     1       8.696  27.343  56.666  1.00  0.00    -0.299 N 
HETATM   20  C   UNL     1       8.006  26.214  57.101  1.00  0.00     0.260 C 
HETATM   21  O   UNL     1       7.448  26.033  58.176  1.00  0.00    -0.267 OA
HETATM   22  H   UNL     1       8.819  27.414  55.663  1.00  0.00     0.171 HD
BRANCH  20  23
HETATM   23  C   UNL     1       7.861  25.172  56.068  1.00  0.00     0.068 A 
HETATM   24  C   UNL     1       7.550  25.491  54.747  1.00  0.00     0.102 A 
HETATM   25  C   UNL     1       7.562  24.472  53.776  1.00  0.00     0.056 A 
HETATM   26 BR   UNL     1       7.321  24.950  51.934  1.00  0.00    -0.047 Br
HETATM   27  C   UNL     1       7.797  23.113  54.141  1.00  0.00    -0.006 A 
HETATM   28  C   UNL     1       8.066  22.821  55.505  1.00  0.00    -0.024 A 
HETATM   29  C   UNL     1       7.789  22.019  53.239  1.00  0.00     0.014 A 
HETATM   30  C   UNL     1       8.111  23.853  56.449  1.00  0.00     0.032 A 
HETATM   31  C   UNL     1       8.306  21.500  55.915  1.00  0.00     0.012 A 
HETATM   32  C   UNL     1       8.283  20.450  55.001  1.00  0.00     0.001 A 
HETATM   33  C   UNL     1       8.026  20.710  53.663  1.00  0.00     0.001 A 
BRANCH  24  34
HETATM   34  O   UNL     1       7.316  26.803  54.420  1.00  0.00    -0.353 OA
HETATM   35  C   UNL     1       5.915  27.100  54.391  1.00  0.00     0.210 C 
ENDBRANCH  24  34
ENDBRANCH  20  23
ENDBRANCH   1  19
TORSDOF 6
ENDMDL
MODEL 3
REMARK VINA RESULT:      -9.8      1.916      2.482
REMARK  6 active torsions:
REMARK  status: ('A' for Active; 'I' for Inactive)
REMARK    1  A    between atoms: N_6  and  C_7 
REMARK    2  A    between atoms: C_10  and  N_11 
REMARK    3  A    between atoms: N_11  and  C_12 
REMARK    4  A    between atoms: C_12  and  N_13 
REMARK       I    between atoms: N_13  and  C_14 
REMARK    5  A    between atoms: C_14  and  C_15 
REMARK    6  A    between atoms: C_16  and  O_17 
ROOT
HETATM    1  C   UNL     1       9.124  28.961  57.348  1.00  0.00     0.179 C 
HETATM    2  S   UNL     1      10.393  29.883  56.769  1.00  0.00    -0.040 SA
ENDROOT
BRANCH   1   3
HETATM    3  N   UNL     1       8.378  29.437  58.374  1.00  0.00    -0.333 N 
HETATM    4  H   UNL     1       8.564  28.994  59.268  1.00  0.00     0.168 HD
BRANCH   3   5
HETATM    5  C   UNL     1       7.283  30.319  58.343  1.00  0.00     0.034 C 
HETATM    6  C   UNL     1       6.262  30.084  57.426  1.00  0.00     0.032 C 
HETATM    7  C   UNL     1       5.097  30.868  57.443  1.00  0.00     0.031 C 
HETATM    8  C   UNL     1       4.927  31.897  58.378  1.00  0.00     0.030 C 
HETATM    9  C   UNL     1       6.034  32.207  59.182  1.00  0.00     0.031 C 
HETATM   10  C   UNL     1       7.196  31.435  59.164  1.00  0.00     0.032 C 
BRANCH   8  11
HETATM   11  N   UNL     1       3.733  32.605  58.564  1.00  0.00    -0.378 N 
HETATM   12  C   UNL     1       3.448  33.579  57.479  1.00  0.00     0.150 C 
HETATM   13  C   UNL     1       4.125  34.934  57.773  1.00  0.00     0.254 C 
HETATM   14  N   UNL     1       3.638  35.469  59.124  1.00  0.00    -0.072 N 
HETATM   15  C   UNL     1       4.202  36.823  59.426  1.00  0.00     0.269 C 
HETATM   16  H   UNL     1       2.617  35.561  59.055  1.00  0.00     0.279 HD
HETATM   17  C   UNL     1       3.927  34.466  60.241  1.00  0.00     0.254 C 
HETATM   18  C   UNL     1       3.345  33.073  59.907  1.00  0.00     0.150 C 
ENDBRANCH   8  11
ENDBRANCH   3   5
ENDBRANCH   1   3
BRANCH   1  19
HETATM   19  N   UNL     1       8.850  27.778  56.720  1.00  0.00    -0.299 N 
HETATM   20  C   UNL     1       8.069  26.707  57.150  1.00  0.00     0.260 C 
HETATM   21  O   UNL     1       7.490  26.572  58.221  1.00  0.00    -0.267 OA
HETATM   22  H   UNL     1       8.986  27.837  55.718  1.00  0.00     0.171 HD
BRANCH  20  23
HETATM   23  C   UNL     1       7.852  25.678  56.118  1.00  0.00     0.068 A 
HETATM   24  C   UNL     1       7.365  26.003  54.852  1.00  0.00     0.102 A 
HETATM   25  C   UNL     1       7.310  25.004  53.863  1.00  0.00     0.056 A 
HETATM   26 BR   UNL     1       6.818  25.500  52.077  1.00  0.00    -0.047 Br
HETATM   27  C   UNL     1       7.658  23.653  54.163  1.00  0.00    -0.006 A 
HETATM   28  C   UNL     1       8.108  23.352  55.477  1.00  0.00    -0.024 A 
HETATM   29  C   UNL     1       7.595  22.577  53.242  1.00  0.00     0.014 A 
HETATM   30  C   UNL     1       8.216  24.368  56.432  1.00  0.00     0.032 A 
HETATM   31  C   UNL     1       8.465  22.039  55.822  1.00  0.00     0.012 A 
HETATM   32  C   UNL     1       8.384  21.006  54.892  1.00  0.00     0.001 A 
HETATM   33  C   UNL     1       7.950  21.275  53.602  1.00  0.00     0.001 A 
BRANCH  24  34
HETATM   34  O   UNL     1       7.025  27.306  54.589  1.00  0.00    -0.353 OA
HETATM   35  C   UNL     1       5.630  27.545  54.811  1.00  0.00     0.210 C 
ENDBRANCH  24  34
ENDBRANCH  20  23
ENDBRANCH   1  19
TORSDOF 6
ENDMDL
MODEL 4
REMARK VINA RESULT:      -9.8      3.313     10.135
REMARK  6 active torsions:
REMARK  status: ('A' for Active; 'I' for Inactive)
REMARK    1  A    between atoms: N_6  and  C_7 
REMARK    2  A    between atoms: C_10  and  N_11 
REMARK    3  A    between atoms: N_11  and  C_12 
REMARK    4  A    between atoms: C_12  and  N_13 
REMARK       I    between atoms: N_13  and  C_14 
REMARK    5  A    between atoms: C_14  and  C_15 
REMARK    6  A    between atoms: C_16  and  O_17 
ROOT
HETATM    1  C   UNL     1       9.277  29.993  57.104  1.00  0.00     0.179 C 
HETATM    2  S   UNL     1      10.921  29.690  57.150  1.00  0.00    -0.040 SA
ENDROOT
BRANCH   1   3
HETATM    3  N   UNL     1       8.566  29.603  56.018  1.00  0.00    -0.333 N 
HETATM    4  H   UNL     1       8.167  30.367  55.482  1.00  0.00     0.168 HD
BRANCH   3   5
HETATM    5  C   UNL     1       8.166  28.310  55.635  1.00  0.00     0.034 C 
HETATM    6  C   UNL     1       8.078  27.322  56.611  1.00  0.00     0.032 C 
HETATM    7  C   UNL     1       7.569  26.052  56.293  1.00  0.00     0.031 C 
HETATM    8  C   UNL     1       7.131  25.749  54.997  1.00  0.00     0.030 C 
HETATM    9  C   UNL     1       7.377  26.711  54.008  1.00  0.00     0.031 C 
HETATM   10  C   UNL     1       7.889  27.972  54.318  1.00  0.00     0.032 C 
BRANCH   8  11
HETATM   11  N   UNL     1       6.460  24.570  54.647  1.00  0.00    -0.378 N 
HETATM   12  C   UNL     1       6.649  23.468  55.626  1.00  0.00     0.150 C 
HETATM   13  C   UNL     1       7.925  22.665  55.298  1.00  0.00     0.254 C 
HETATM   14  N   UNL     1       7.833  22.113  53.872  1.00  0.00    -0.072 N 
HETATM   15  C   UNL     1       9.010  21.254  53.526  1.00  0.00     0.269 C 
HETATM   16  H   UNL     1       6.992  21.523  53.837  1.00  0.00     0.279 HD
HETATM   17  C   UNL     1       7.633  23.245  52.865  1.00  0.00     0.254 C 
HETATM   18  C   UNL     1       6.419  24.124  53.243  1.00  0.00     0.150 C 
ENDBRANCH   8  11
ENDBRANCH   3   5
ENDBRANCH   1   3
BRANCH   1  19
HETATM   19  N   UNL     1       8.699  30.575  58.197  1.00  0.00    -0.299 N 
HETATM   20  C   UNL     1       9.107  31.690  58.926  1.00  0.00     0.260 C 
HETATM   21  O   UNL     1      10.113  32.372  58.771  1.00  0.00    -0.267 OA
HETATM   22  H   UNL     1       7.717  30.341  58.280  1.00  0.00     0.171 HD
BRANCH  20  23
HETATM   23  C   UNL     1       8.125  32.135  59.931  1.00  0.00     0.068 A 
HETATM   24  C   UNL     1       6.794  32.379  59.594  1.00  0.00     0.102 A 
HETATM   25  C   UNL     1       5.870  32.665  60.617  1.00  0.00     0.056 A 
HETATM   26 BR   UNL     1       4.012  32.813  60.167  1.00  0.00    -0.047 Br
HETATM   27  C   UNL     1       6.294  32.796  61.972  1.00  0.00    -0.006 A 
HETATM   28  C   UNL     1       7.666  32.584  62.271  1.00  0.00    -0.024 A 
HETATM   29  C   UNL     1       5.442  33.120  63.059  1.00  0.00     0.014 A 
HETATM   30  C   UNL     1       8.561  32.240  61.253  1.00  0.00     0.032 A 
HETATM   31  C   UNL     1       8.133  32.699  63.590  1.00  0.00     0.012 A 
HETATM   32  C   UNL     1       7.268  33.025  64.631  1.00  0.00     0.001 A 
HETATM   33  C   UNL     1       5.922  33.235  64.366  1.00  0.00     0.001 A 
BRANCH  24  34
HETATM   34  O   UNL     1       6.411  32.259  58.281  1.00  0.00    -0.353 OA
HETATM   35  C   UNL     1       5.661  31.059  58.056  1.00  0.00     0.210 C 
ENDBRANCH  24  34
ENDBRANCH  20  23
ENDBRANCH   1  19
TORSDOF 6
ENDMDL
MODEL 5
REMARK VINA RESULT:      -9.6      3.888      9.814
REMARK  6 active torsions:
REMARK  status: ('A' for Active; 'I' for Inactive)
REMARK    1  A    between atoms: N_6  and  C_7 
REMARK    2  A    between atoms: C_10  and  N_11 
REMARK    3  A    between atoms: N_11  and  C_12 
REMARK    4  A    between atoms: C_12  and  N_13 
REMARK       I    between atoms: N_13  and  C_14 
REMARK    5  A    between atoms: C_14  and  C_15 
REMARK    6  A    between atoms: C_16  and  O_17 
ROOT
HETATM    1  C   UNL     1       9.252  29.490  57.745  1.00  0.00     0.179 C 
HETATM    2  S   UNL     1      10.645  30.039  57.001  1.00  0.00    -0.040 SA
ENDROOT
BRANCH   1   3
HETATM    3  N   UNL     1       8.751  28.281  57.395  1.00  0.00    -0.333 N 
HETATM    4  H   UNL     1       9.219  27.492  57.830  1.00  0.00     0.168 HD
BRANCH   3   5
HETATM    5  C   UNL     1       7.807  27.962  56.402  1.00  0.00     0.034 C 
HETATM    6  C   UNL     1       7.643  26.628  56.041  1.00  0.00     0.032 C 
HETATM    7  C   UNL     1       6.630  26.254  55.143  1.00  0.00     0.031 C 
HETATM    8  C   UNL     1       5.759  27.204  54.595  1.00  0.00     0.030 C 
HETATM    9  C   UNL     1       6.048  28.551  54.857  1.00  0.00     0.031 C 
HETATM   10  C   UNL     1       7.058  28.927  55.744  1.00  0.00     0.032 C 
BRANCH   8  11
HETATM   11  N   UNL     1       4.627  26.890  53.831  1.00  0.00    -0.378 N 
HETATM   12  C   UNL     1       4.815  25.703  52.957  1.00  0.00     0.150 C 
HETATM   13  C   UNL     1       5.432  26.116  51.604  1.00  0.00     0.254 C 
HETATM   14  N   UNL     1       4.531  27.152  50.925  1.00  0.00    -0.072 N 
HETATM   15  C   UNL     1       5.039  27.532  49.568  1.00  0.00     0.269 C 
HETATM   16  H   UNL     1       3.611  26.711  50.804  1.00  0.00     0.279 HD
HETATM   17  C   UNL     1       4.333  28.372  51.824  1.00  0.00     0.254 C 
HETATM   18  C   UNL     1       3.817  27.960  53.222  1.00  0.00     0.150 C 
ENDBRANCH   8  11
ENDBRANCH   3   5
ENDBRANCH   1   3
BRANCH   1  19
HETATM   19  N   UNL     1       8.699  30.265  58.726  1.00  0.00    -0.299 N 
HETATM   20  C   UNL     1       9.023  31.562  59.119  1.00  0.00     0.260 C 
HETATM   21  O   UNL     1       9.918  32.281  58.695  1.00  0.00    -0.267 OA
HETATM   22  H   UNL     1       7.764  29.960  58.971  1.00  0.00     0.171 HD
BRANCH  20  23
HETATM   23  C   UNL     1       8.080  32.140  60.093  1.00  0.00     0.068 A 
HETATM   24  C   UNL     1       6.793  32.529  59.722  1.00  0.00     0.102 A 
HETATM   25  C   UNL     1       5.890  32.944  60.719  1.00  0.00     0.056 A 
HETATM   26 BR   UNL     1       4.070  33.295  60.226  1.00  0.00    -0.047 Br
HETATM   27  C   UNL     1       6.300  33.057  62.080  1.00  0.00    -0.006 A 
HETATM   28  C   UNL     1       7.633  32.694  62.413  1.00  0.00    -0.024 A 
HETATM   29  C   UNL     1       5.472  33.503  63.141  1.00  0.00     0.014 A 
HETATM   30  C   UNL     1       8.501  32.225  61.421  1.00  0.00     0.032 A 
HETATM   31  C   UNL     1       8.085  32.785  63.739  1.00  0.00     0.012 A 
HETATM   32  C   UNL     1       7.244  33.234  64.753  1.00  0.00     0.001 A 
HETATM   33  C   UNL     1       5.937  33.592  64.455  1.00  0.00     0.001 A 
BRANCH  24  34
HETATM   34  O   UNL     1       6.424  32.423  58.405  1.00  0.00    -0.353 OA
HETATM   35  C   UNL     1       5.585  31.284  58.179  1.00  0.00     0.210 C 
ENDBRANCH  24  34
ENDBRANCH  20  23
ENDBRANCH   1  19
TORSDOF 6
ENDMDL
MODEL 6
REMARK VINA RESULT:      -9.3      3.723     10.510
REMARK  6 active torsions:
REMARK  status: ('A' for Active; 'I' for Inactive)
REMARK    1  A    between atoms: N_6  and  C_7 
REMARK    2  A    between atoms: C_10  and  N_11 
REMARK    3  A    between atoms: N_11  and  C_12 
REMARK    4  A    between atoms: C_12  and  N_13 
REMARK       I    between atoms: N_13  and  C_14 
REMARK    5  A    between atoms: C_14  and  C_15 
REMARK    6  A    between atoms: C_16  and  O_17 
ROOT
HETATM    1  C   UNL     1       7.339  29.972  57.736  1.00  0.00     0.179 C 
HETATM    2  S   UNL     1       8.556  28.827  57.787  1.00  0.00    -0.040 SA
ENDROOT
BRANCH   1   3
HETATM    3  N   UNL     1       6.646  30.148  56.585  1.00  0.00    -0.333 N 
HETATM    4  H   UNL     1       6.169  31.041  56.515  1.00  0.00     0.168 HD
BRANCH   3   5
HETATM    5  C   UNL     1       6.359  29.218  55.569  1.00  0.00     0.034 C 
HETATM    6  C   UNL     1       7.402  28.765  54.765  1.00  0.00     0.032 C 
HETATM    7  C   UNL     1       7.181  27.749  53.821  1.00  0.00     0.031 C 
HETATM    8  C   UNL     1       5.918  27.163  53.666  1.00  0.00     0.030 C 
HETATM    9  C   UNL     1       4.861  27.747  54.378  1.00  0.00     0.031 C 
HETATM   10  C   UNL     1       5.074  28.761  55.313  1.00  0.00     0.032 C 
BRANCH   8  11
HETATM   11  N   UNL     1       5.662  26.038  52.871  1.00  0.00    -0.378 N 
HETATM   12  C   UNL     1       5.214  24.854  53.648  1.00  0.00     0.150 C 
HETATM   13  C   UNL     1       6.427  24.042  54.149  1.00  0.00     0.254 C 
HETATM   14  N   UNL     1       7.286  23.613  52.955  1.00  0.00    -0.072 N 
HETATM   15  C   UNL     1       8.436  22.751  53.373  1.00  0.00     0.269 C 
HETATM   16  H   UNL     1       6.680  23.054  52.340  1.00  0.00     0.279 HD
HETATM   17  C   UNL     1       7.743  24.830  52.151  1.00  0.00     0.254 C 
HETATM   18  C   UNL     1       6.543  25.711  51.736  1.00  0.00     0.150 C 
ENDBRANCH   8  11
ENDBRANCH   3   5
ENDBRANCH   1   3
BRANCH   1  19
HETATM   19  N   UNL     1       7.048  30.653  58.886  1.00  0.00    -0.299 N 
HETATM   20  C   UNL     1       7.693  31.751  59.451  1.00  0.00     0.260 C 
HETATM   21  O   UNL     1       8.702  32.323  59.060  1.00  0.00    -0.267 OA
HETATM   22  H   UNL     1       6.086  30.521  59.175  1.00  0.00     0.171 HD
BRANCH  20  23
HETATM   23  C   UNL     1       6.978  32.331  60.602  1.00  0.00     0.068 A 
HETATM   24  C   UNL     1       5.623  32.654  60.534  1.00  0.00     0.102 A 
HETATM   25  C   UNL     1       4.960  33.073  61.703  1.00  0.00     0.056 A 
HETATM   26 BR   UNL     1       3.060  33.332  61.643  1.00  0.00    -0.047 Br
HETATM   27  C   UNL     1       5.672  33.257  62.925  1.00  0.00    -0.006 A 
HETATM   28  C   UNL     1       7.061  32.960  62.944  1.00  0.00    -0.024 A 
HETATM   29  C   UNL     1       5.095  33.712  64.138  1.00  0.00     0.014 A 
HETATM   30  C   UNL     1       7.694  32.486  61.790  1.00  0.00     0.032 A 
HETATM   31  C   UNL     1       7.806  33.123  64.123  1.00  0.00     0.012 A 
HETATM   32  C   UNL     1       7.207  33.579  65.293  1.00  0.00     0.001 A 
HETATM   33  C   UNL     1       5.850  33.873  65.302  1.00  0.00     0.001 A 
BRANCH  24  34
HETATM   34  O   UNL     1       4.960  32.480  59.345  1.00  0.00    -0.353 OA
HETATM   35  C   UNL     1       4.899  33.696  58.590  1.00  0.00     0.210 C 
ENDBRANCH  24  34
ENDBRANCH  20  23
ENDBRANCH   1  19
TORSDOF 6
ENDMDL
MODEL 7
REMARK VINA RESULT:      -9.2      2.386      3.124
REMARK  6 active torsions:
REMARK  status: ('A' for Active; 'I' for Inactive)
REMARK    1  A    between atoms: N_6  and  C_7 
REMARK    2  A    between atoms: C_10  and  N_11 
REMARK    3  A    between atoms: N_11  and  C_12 
REMARK    4  A    between atoms: C_12  and  N_13 
REMARK       I    between atoms: N_13  and  C_14 
REMARK    5  A    between atoms: C_14  and  C_15 
REMARK    6  A    between atoms: C_16  and  O_17 
ROOT
HETATM    1  C   UNL     1       9.082  30.034  58.237  1.00  0.00     0.179 C 
HETATM    2  S   UNL     1      10.352  30.984  57.710  1.00  0.00    -0.040 SA
ENDROOT
BRANCH   1   3
HETATM    3  N   UNL     1       8.749  30.047  59.551  1.00  0.00    -0.333 N 
HETATM    4  H   UNL     1       8.791  29.140  60.003  1.00  0.00     0.168 HD
BRANCH   3   5
HETATM    5  C   UNL     1       8.198  31.090  60.317  1.00  0.00     0.034 C 
HETATM    6  C   UNL     1       7.138  31.820  59.787  1.00  0.00     0.032 C 
HETATM    7  C   UNL     1       6.482  32.788  60.565  1.00  0.00     0.031 C 
HETATM    8  C   UNL     1       6.868  33.041  61.888  1.00  0.00     0.030 C 
HETATM    9  C   UNL     1       8.034  32.402  62.337  1.00  0.00     0.031 C 
HETATM   10  C   UNL     1       8.692  31.445  61.565  1.00  0.00     0.032 C 
BRANCH   8  11
HETATM   11  N   UNL     1       6.160  33.863  62.774  1.00  0.00    -0.378 N 
HETATM   12  C   UNL     1       5.072  33.155  63.497  1.00  0.00     0.150 C 
HETATM   13  C   UNL     1       3.769  33.173  62.670  1.00  0.00     0.254 C 
HETATM   14  N   UNL     1       3.369  34.621  62.373  1.00  0.00    -0.072 N 
HETATM   15  C   UNL     1       2.066  34.704  61.641  1.00  0.00     0.269 C 
HETATM   16  H   UNL     1       3.250  35.088  63.281  1.00  0.00     0.279 HD
HETATM   17  C   UNL     1       4.489  35.353  61.633  1.00  0.00     0.254 C 
HETATM   18  C   UNL     1       5.828  35.250  62.400  1.00  0.00     0.150 C 
ENDBRANCH   8  11
ENDBRANCH   3   5
ENDBRANCH   1   3
BRANCH   1  19
HETATM   19  N   UNL     1       8.384  29.317  57.305  1.00  0.00    -0.299 N 
HETATM   20  C   UNL     1       7.801  28.056  57.412  1.00  0.00     0.260 C 
HETATM   21  O   UNL     1       7.828  27.286  58.363  1.00  0.00    -0.267 OA
HETATM   22  H   UNL     1       8.004  29.908  56.575  1.00  0.00     0.171 HD
BRANCH  20  23
HETATM   23  C   UNL     1       6.968  27.687  56.253  1.00  0.00     0.068 A 
HETATM   24  C   UNL     1       6.011  28.558  55.733  1.00  0.00     0.102 A 
HETATM   25  C   UNL     1       5.344  28.211  54.544  1.00  0.00     0.056 A 
HETATM   26 BR   UNL     1       4.170  29.494  53.736  1.00  0.00    -0.047 Br
HETATM   27  C   UNL     1       5.568  26.948  53.918  1.00  0.00    -0.006 A 
HETATM   28  C   UNL     1       6.519  26.069  54.501  1.00  0.00    -0.024 A 
HETATM   29  C   UNL     1       4.914  26.499  52.743  1.00  0.00     0.014 A 
HETATM   30  C   UNL     1       7.219  26.453  55.650  1.00  0.00     0.032 A 
HETATM   31  C   UNL     1       6.777  24.816  53.923  1.00  0.00     0.012 A 
HETATM   32  C   UNL     1       6.110  24.407  52.772  1.00  0.00     0.001 A 
HETATM   33  C   UNL     1       5.179  25.249  52.181  1.00  0.00     0.001 A 
BRANCH  24  34
HETATM   34  O   UNL     1       5.803  29.762  56.359  1.00  0.00    -0.353 OA
HETATM   35  C   UNL     1       4.766  29.676  57.343  1.00  0.00     0.210 C 
ENDBRANCH  24  34
ENDBRANCH  20  23
ENDBRANCH   1  19
TORSDOF 6
ENDMDL
MODEL 8
REMARK VINA RESULT:      -9.1      3.809     10.381
REMARK  6 active torsions:
REMARK  status: ('A' for Active; 'I' for Inactive)
REMARK    1  A    between atoms: N_6  and  C_7 
REMARK    2  A    between atoms: C_10  and  N_11 
REMARK    3  A    between atoms: N_11  and  C_12 
REMARK    4  A    between atoms: C_12  and  N_13 
REMARK       I    between atoms: N_13  and  C_14 
REMARK    5  A    between atoms: C_14  and  C_15 
REMARK    6  A    between atoms: C_16  and  O_17 
ROOT
HETATM    1  C   UNL     1       4.734  30.125  57.324  1.00  0.00     0.179 C 
HETATM    2  S   UNL     1       4.635  30.934  55.864  1.00  0.00    -0.040 SA
ENDROOT
BRANCH   1   3
HETATM    3  N   UNL     1       4.590  28.778  57.342  1.00  0.00    -0.333 N 
HETATM    4  H   UNL     1       3.693  28.457  57.692  1.00  0.00     0.168 HD
BRANCH   3   5
HETATM    5  C   UNL     1       5.552  27.778  57.113  1.00  0.00     0.034 C 
HETATM    6  C   UNL     1       5.126  26.537  56.646  1.00  0.00     0.032 C 
HETATM    7  C   UNL     1       6.062  25.552  56.290  1.00  0.00     0.031 C 
HETATM    8  C   UNL     1       7.439  25.790  56.388  1.00  0.00     0.030 C 
HETATM    9  C   UNL     1       7.830  26.986  57.006  1.00  0.00     0.031 C 
HETATM   10  C   UNL     1       6.903  27.965  57.366  1.00  0.00     0.032 C 
BRANCH   8  11
HETATM   11  N   UNL     1       8.426  24.925  55.896  1.00  0.00    -0.378 N 
HETATM   12  C   UNL     1       8.074  24.307  54.592  1.00  0.00     0.150 C 
HETATM   13  C   UNL     1       7.257  23.016  54.805  1.00  0.00     0.254 C 
HETATM   14  N   UNL     1       8.058  22.038  55.669  1.00  0.00    -0.072 N 
HETATM   15  C   UNL     1       7.347  20.731  55.843  1.00  0.00     0.269 C 
HETATM   16  H   UNL     1       8.938  21.853  55.170  1.00  0.00     0.279 HD
HETATM   17  C   UNL     1       8.425  22.673  57.010  1.00  0.00     0.254 C 
HETATM   18  C   UNL     1       9.150  24.024  56.810  1.00  0.00     0.150 C 
ENDBRANCH   8  11
ENDBRANCH   3   5
ENDBRANCH   1   3
BRANCH   1  19
HETATM   19  N   UNL     1       5.017  30.854  58.445  1.00  0.00    -0.299 N 
HETATM   20  C   UNL     1       6.183  31.535  58.789  1.00  0.00     0.260 C 
HETATM   21  O   UNL     1       7.240  31.589  58.172  1.00  0.00    -0.267 OA
HETATM   22  H   UNL     1       4.177  31.171  58.916  1.00  0.00     0.171 HD
BRANCH  20  23
HETATM   23  C   UNL     1       6.051  32.367  59.998  1.00  0.00     0.068 A 
HETATM   24  C   UNL     1       5.008  33.281  60.146  1.00  0.00     0.102 A 
HETATM   25  C   UNL     1       4.851  33.947  61.376  1.00  0.00     0.056 A 
HETATM   26 BR   UNL     1       3.308  35.057  61.634  1.00  0.00    -0.047 Br
HETATM   27  C   UNL     1       5.791  33.767  62.433  1.00  0.00    -0.006 A 
HETATM   28  C   UNL     1       6.866  32.860  62.230  1.00  0.00    -0.024 A 
HETATM   29  C   UNL     1       5.734  34.424  63.689  1.00  0.00     0.014 A 
HETATM   30  C   UNL     1       6.974  32.160  61.024  1.00  0.00     0.032 A 
HETATM   31  C   UNL     1       7.817  32.646  63.240  1.00  0.00     0.012 A 
HETATM   32  C   UNL     1       7.732  33.315  64.458  1.00  0.00     0.001 A 
HETATM   33  C   UNL     1       6.689  34.203  64.683  1.00  0.00     0.001 A 
BRANCH  24  34
HETATM   34  O   UNL     1       4.122  33.448  59.111  1.00  0.00    -0.353 OA
HETATM   35  C   UNL     1       4.525  34.506  58.233  1.00  0.00     0.210 C 
ENDBRANCH  24  34
ENDBRANCH  20  23
ENDBRANCH   1  19
TORSDOF 6
ENDMDL
MODEL 9
REMARK VINA RESULT:      -9.1      5.652      8.814
REMARK  6 active torsions:
REMARK  status: ('A' for Active; 'I' for Inactive)
REMARK    1  A    between atoms: N_6  and  C_7 
REMARK    2  A    between atoms: C_10  and  N_11 
REMARK    3  A    between atoms: N_11  and  C_12 
REMARK    4  A    between atoms: C_12  and  N_13 
REMARK       I    between atoms: N_13  and  C_14 
REMARK    5  A    between atoms: C_14  and  C_15 
REMARK    6  A    between atoms: C_16  and  O_17 
ROOT
HETATM    1  C   UNL     1       6.774  28.047  54.556  1.00  0.00     0.179 C 
HETATM    2  S   UNL     1       6.622  29.071  55.870  1.00  0.00    -0.040 SA
ENDROOT
BRANCH   1   3
HETATM    3  N   UNL     1       6.656  28.557  53.306  1.00  0.00    -0.333 N 
HETATM    4  H   UNL     1       7.264  29.348  53.118  1.00  0.00     0.168 HD
BRANCH   3   5
HETATM    5  C   UNL     1       5.707  28.262  52.311  1.00  0.00     0.034 C 
HETATM    6  C   UNL     1       4.558  29.044  52.232  1.00  0.00     0.032 C 
HETATM    7  C   UNL     1       3.644  28.860  51.181  1.00  0.00     0.031 C 
HETATM    8  C   UNL     1       3.864  27.897  50.188  1.00  0.00     0.030 C 
HETATM    9  C   UNL     1       4.946  27.026  50.382  1.00  0.00     0.031 C 
HETATM   10  C   UNL     1       5.852  27.201  51.428  1.00  0.00     0.032 C 
BRANCH   8  11
HETATM   11  N   UNL     1       3.091  27.772  49.026  1.00  0.00    -0.378 N 
HETATM   12  C   UNL     1       3.900  27.550  47.799  1.00  0.00     0.150 C 
HETATM   13  C   UNL     1       4.337  28.896  47.186  1.00  0.00     0.254 C 
HETATM   14  N   UNL     1       3.100  29.744  46.874  1.00  0.00    -0.072 N 
HETATM   15  C   UNL     1       3.459  31.033  46.200  1.00  0.00     0.269 C 
HETATM   16  H   UNL     1       2.524  29.198  46.221  1.00  0.00     0.279 HD
HETATM   17  C   UNL     1       2.265  29.969  48.133  1.00  0.00     0.254 C 
HETATM   18  C   UNL     1       1.911  28.629  48.818  1.00  0.00     0.150 C 
ENDBRANCH   8  11
ENDBRANCH   3   5
ENDBRANCH   1   3
BRANCH   1  19
HETATM   19  N   UNL     1       7.069  26.734  54.795  1.00  0.00    -0.299 N 
HETATM   20  C   UNL     1       6.239  25.616  54.745  1.00  0.00     0.260 C 
HETATM   21  O   UNL     1       5.036  25.574  54.520  1.00  0.00    -0.267 OA
HETATM   22  H   UNL     1       8.059  26.542  54.696  1.00  0.00     0.171 HD
BRANCH  20  23
HETATM   23  C   UNL     1       6.958  24.337  54.881  1.00  0.00     0.068 A 
HETATM   24  C   UNL     1       7.394  23.871  56.122  1.00  0.00     0.102 A 
HETATM   25  C   UNL     1       7.949  22.581  56.211  1.00  0.00     0.056 A 
HETATM   26 BR   UNL     1       8.370  21.876  57.945  1.00  0.00    -0.047 Br
HETATM   27  C   UNL     1       8.153  21.787  55.044  1.00  0.00    -0.006 A 
HETATM   28  C   UNL     1       7.737  22.313  53.792  1.00  0.00    -0.024 A 
HETATM   29  C   UNL     1       8.740  20.496  55.035  1.00  0.00     0.014 A 
HETATM   30  C   UNL     1       7.131  23.572  53.726  1.00  0.00     0.032 A 
HETATM   31  C   UNL     1       7.914  21.570  52.614  1.00  0.00     0.012 A 
HETATM   32  C   UNL     1       8.500  20.308  52.644  1.00  0.00     0.001 A 
HETATM   33  C   UNL     1       8.913  19.770  53.854  1.00  0.00     0.001 A 
BRANCH  24  34
HETATM   34  O   UNL     1       7.198  24.657  57.229  1.00  0.00    -0.353 OA
HETATM   35  C   UNL     1       8.386  25.370  57.590  1.00  0.00     0.210 C 
ENDBRANCH  24  34
ENDBRANCH  20  23
ENDBRANCH   1  19
TORSDOF 6
ENDMDL
MODEL 10
REMARK VINA RESULT:      -9.1      3.652     10.248
REMARK  6 active torsions:
REMARK  status: ('A' for Active; 'I' for Inactive)
REMARK    1  A    between atoms: N_6  and  C_7 
REMARK    2  A    between atoms: C_10  and  N_11 
REMARK    3  A    between atoms: N_11  and  C_12 
REMARK    4  A    between atoms: C_12  and  N_13 
REMARK       I    between atoms: N_13  and  C_14 
REMARK    5  A    between atoms: C_14  and  C_15 
REMARK    6  A    between atoms: C_16  and  O_17 
ROOT
HETATM    1  C   UNL     1       9.013  29.945  57.014  1.00  0.00     0.179 C 
HETATM    2  S   UNL     1      10.628  29.527  57.117  1.00  0.00    -0.040 SA
ENDROOT
BRANCH   1   3
HETATM    3  N   UNL     1       8.338  29.692  55.866  1.00  0.00    -0.333 N 
HETATM    4  H   UNL     1       8.186  30.507  55.281  1.00  0.00     0.168 HD
BRANCH   3   5
HETATM    5  C   UNL     1       7.681  28.516  55.462  1.00  0.00     0.034 C 
HETATM    6  C   UNL     1       7.894  28.043  54.170  1.00  0.00     0.032 C 
HETATM    7  C   UNL     1       7.354  26.810  53.767  1.00  0.00     0.031 C 
HETATM    8  C   UNL     1       6.598  26.026  54.647  1.00  0.00     0.030 C 
HETATM    9  C   UNL     1       6.273  26.601  55.884  1.00  0.00     0.031 C 
HETATM   10  C   UNL     1       6.802  27.828  56.287  1.00  0.00     0.032 C 
BRANCH   8  11
HETATM   11  N   UNL     1       6.173  24.719  54.372  1.00  0.00    -0.378 N 
HETATM   12  C   UNL     1       6.435  23.767  55.483  1.00  0.00     0.150 C 
HETATM   13  C   UNL     1       7.854  23.173  55.365  1.00  0.00     0.254 C 
HETATM   14  N   UNL     1       8.010  22.480  54.007  1.00  0.00    -0.072 N 
HETATM   15  C   UNL     1       9.343  21.813  53.868  1.00  0.00     0.269 C 
HETATM   16  H   UNL     1       7.287  21.750  53.963  1.00  0.00     0.279 HD
HETATM   17  C   UNL     1       7.735  23.456  52.865  1.00  0.00     0.254 C 
HETATM   18  C   UNL     1       6.359  24.141  53.030  1.00  0.00     0.150 C 
ENDBRANCH   8  11
ENDBRANCH   3   5
ENDBRANCH   1   3
BRANCH   1  19
HETATM   19  N   UNL     1       8.415  30.480  58.121  1.00  0.00    -0.299 N 
HETATM   20  C   UNL     1       8.777  31.597  58.871  1.00  0.00     0.260 C 
HETATM   21  O   UNL     1       9.751  32.325  58.726  1.00  0.00    -0.267 OA
HETATM   22  H   UNL     1       7.444  30.201  58.202  1.00  0.00     0.171 HD
BRANCH  20  23
HETATM   23  C   UNL     1       7.781  31.978  59.888  1.00  0.00     0.068 A 
HETATM   24  C   UNL     1       8.116  32.078  61.238  1.00  0.00     0.102 A 
HETATM   25  C   UNL     1       7.163  32.580  62.144  1.00  0.00     0.056 A 
HETATM   26 BR   UNL     1       7.692  32.891  63.962  1.00  0.00    -0.047 Br
HETATM   27  C   UNL     1       5.840  32.899  61.717  1.00  0.00    -0.006 A 
HETATM   28  C   UNL     1       5.522  32.742  60.341  1.00  0.00    -0.024 A 
HETATM   29  C   UNL     1       4.806  33.371  62.565  1.00  0.00     0.014 A 
HETATM   30  C   UNL     1       6.498  32.300  59.441  1.00  0.00     0.032 A 
HETATM   31  C   UNL     1       4.235  33.044  59.869  1.00  0.00     0.012 A 
HETATM   32  C   UNL     1       3.244  33.500  60.733  1.00  0.00     0.001 A 
HETATM   33  C   UNL     1       3.529  33.665  62.081  1.00  0.00     0.001 A 
BRANCH  24  34
HETATM   34  O   UNL     1       9.391  31.754  61.629  1.00  0.00    -0.353 OA
HETATM   35  C   UNL     1       9.511  30.362  61.945  1.00  0.00     0.210 C 
ENDBRANCH  24  34
ENDBRANCH  20  23
ENDBRANCH   1  19
TORSDOF 6
ENDMDL
