MODEL 1
REMARK VINA RESULT:      -8.6      0.000      0.000
REMARK  6 active torsions:
REMARK  status: ('A' for Active; 'I' for Inactive)
REMARK    1  A    between atoms: C_9  and  C_10 
REMARK    2  A    between atoms: C_12  and  N_13 
REMARK    3  A    between atoms: N_13  and  C_14 
REMARK    4  A    between atoms: C_14  and  C_15 
REMARK    5  A    between atoms: C_15  and  C_16 
REMARK    6  A    between atoms: C_16  and  N_17 
ROOT
HETATM    1  C   UNL     1       6.823  25.906  55.968  1.00  0.00     0.071 A 
HETATM    2  N   UNL     1       5.580  26.403  55.729  1.00  0.00    -0.218 NA
HETATM    3  C   UNL     1       5.226  27.486  56.445  1.00  0.00     0.202 A 
HETATM    4  N   UNL     1       6.004  28.101  57.332  1.00  0.00    -0.231 NA
HETATM    5  C   UNL     1       7.226  27.577  57.539  1.00  0.00     0.122 A 
HETATM    6  C   UNL     1       7.690  26.465  56.883  1.00  0.00     0.052 A 
ENDROOT
BRANCH   1   7
HETATM    7  C   UNL     1       7.170  24.717  55.182  1.00  0.00    -0.006 A 
HETATM    8  C   UNL     1       7.277  24.774  53.786  1.00  0.00     0.014 A 
HETATM    9  C   UNL     1       7.658  23.648  53.052  1.00  0.00     0.013 A 
HETATM   10  C   UNL     1       7.947  22.437  53.694  1.00  0.00    -0.026 A 
HETATM   11  C   UNL     1       8.342  21.302  52.967  1.00  0.00     0.012 A 
HETATM   12  C   UNL     1       7.831  22.354  55.100  1.00  0.00    -0.025 A 
HETATM   13  C   UNL     1       8.625  20.102  53.621  1.00  0.00     0.001 A 
HETATM   14  C   UNL     1       8.508  20.019  55.005  1.00  0.00     0.001 A 
HETATM   15  C   UNL     1       8.111  21.137  55.741  1.00  0.00     0.012 A 
HETATM   16  C   UNL     1       7.437  23.493  55.822  1.00  0.00     0.026 A 
ENDBRANCH   1   7
BRANCH   3  17
HETATM   17  N   UNL     1       3.965  28.040  56.240  1.00  0.00    -0.261 NA
HETATM   18  H   UNL     1       3.512  27.353  55.632  1.00  0.00     0.130 HD
BRANCH  17  19
HETATM   19  C   UNL     1       3.992  29.368  55.651  1.00  0.00     0.097 C 
BRANCH  19  20
HETATM   20  C   UNL     1       4.456  29.293  54.196  1.00  0.00     0.042 C 
BRANCH  20  21
HETATM   21  C   UNL     1       3.512  28.573  53.239  1.00  0.00     0.230 C 
BRANCH  21  22
HETATM   22  N   UNL     1       3.759  27.117  53.214  1.00  0.00    -0.079 N 
HETATM   23  H   UNL     1       4.223  26.862  52.316  1.00  0.00     0.274 HD
HETATM   24  H   UNL     1       4.357  26.778  53.975  1.00  0.00     0.274 HD
HETATM   25  H   UNL     1       2.886  26.580  53.233  1.00  0.00     0.274 HD
ENDBRANCH  21  22
ENDBRANCH  20  21
ENDBRANCH  19  20
ENDBRANCH  17  19
ENDBRANCH   3  17
TORSDOF 6
ENDMDL
MODEL 2
REMARK VINA RESULT:      -8.4      1.731      3.437
REMARK  6 active torsions:
REMARK  status: ('A' for Active; 'I' for Inactive)
REMARK    1  A    between atoms: C_9  and  C_10 
REMARK    2  A    between atoms: C_12  and  N_13 
REMARK    3  A    between atoms: N_13  and  C_14 
REMARK    4  A    between atoms: C_14  and  C_15 
REMARK    5  A    between atoms: C_15  and  C_16 
REMARK    6  A    between atoms: C_16  and  N_17 
ROOT
HETATM    1  C   UNL     1       6.559  26.216  55.800  1.00  0.00     0.071 A 
HETATM    2  N   UNL     1       7.548  26.693  56.602  1.00  0.00    -0.218 NA
HETATM    3  C   UNL     1       7.256  27.798  57.312  1.00  0.00     0.202 A 
HETATM    4  N   UNL     1       6.082  28.425  57.299  1.00  0.00    -0.231 NA
HETATM    5  C   UNL     1       5.131  27.920  56.492  1.00  0.00     0.122 A 
HETATM    6  C   UNL     1       5.318  26.811  55.706  1.00  0.00     0.052 A 
ENDROOT
BRANCH   1   7
HETATM    7  C   UNL     1       6.917  25.022  55.029  1.00  0.00    -0.006 A 
HETATM    8  C   UNL     1       7.089  25.078  53.639  1.00  0.00     0.014 A 
HETATM    9  C   UNL     1       7.481  23.945  52.921  1.00  0.00     0.013 A 
HETATM   10  C   UNL     1       7.716  22.727  53.574  1.00  0.00    -0.026 A 
HETATM   11  C   UNL     1       8.121  21.586  52.864  1.00  0.00     0.012 A 
HETATM   12  C   UNL     1       7.534  22.646  54.973  1.00  0.00    -0.025 A 
HETATM   13  C   UNL     1       8.349  20.380  53.527  1.00  0.00     0.001 A 
HETATM   14  C   UNL     1       8.167  20.297  54.905  1.00  0.00     0.001 A 
HETATM   15  C   UNL     1       7.759  21.422  55.624  1.00  0.00     0.012 A 
HETATM   16  C   UNL     1       7.130  23.792  55.678  1.00  0.00     0.026 A 
ENDBRANCH   1   7
BRANCH   3  17
HETATM   17  N   UNL     1       8.230  28.330  58.153  1.00  0.00    -0.261 NA
HETATM   18  H   UNL     1       7.712  28.503  59.019  1.00  0.00     0.130 HD
BRANCH  17  19
HETATM   19  C   UNL     1       8.864  29.532  57.637  1.00  0.00     0.097 C 
BRANCH  19  20
HETATM   20  C   UNL     1       9.234  30.470  58.787  1.00  0.00     0.042 C 
BRANCH  20  21
HETATM   21  C   UNL     1       8.139  30.715  59.818  1.00  0.00     0.230 C 
BRANCH  21  22
HETATM   22  N   UNL     1       6.821  30.919  59.182  1.00  0.00    -0.079 N 
HETATM   23  H   UNL     1       6.141  30.232  59.571  1.00  0.00     0.274 HD
HETATM   24  H   UNL     1       6.426  31.854  59.322  1.00  0.00     0.274 HD
HETATM   25  H   UNL     1       6.849  30.734  58.174  1.00  0.00     0.274 HD
ENDBRANCH  21  22
ENDBRANCH  20  21
ENDBRANCH  19  20
ENDBRANCH  17  19
ENDBRANCH   3  17
TORSDOF 6
ENDMDL
MODEL 3
REMARK VINA RESULT:      -8.4      1.310      3.211
REMARK  6 active torsions:
REMARK  status: ('A' for Active; 'I' for Inactive)
REMARK    1  A    between atoms: C_9  and  C_10 
REMARK    2  A    between atoms: C_12  and  N_13 
REMARK    3  A    between atoms: N_13  and  C_14 
REMARK    4  A    between atoms: C_14  and  C_15 
REMARK    5  A    between atoms: C_15  and  C_16 
REMARK    6  A    between atoms: C_16  and  N_17 
ROOT
HETATM    1  C   UNL     1       5.973  25.477  52.982  1.00  0.00     0.071 A 
HETATM    2  N   UNL     1       5.132  26.242  53.727  1.00  0.00    -0.218 NA
HETATM    3  C   UNL     1       4.528  27.259  53.084  1.00  0.00     0.202 A 
HETATM    4  N   UNL     1       4.679  27.541  51.793  1.00  0.00    -0.231 NA
HETATM    5  C   UNL     1       5.521  26.760  51.092  1.00  0.00     0.122 A 
HETATM    6  C   UNL     1       6.207  25.707  51.642  1.00  0.00     0.052 A 
ENDROOT
BRANCH   1   7
HETATM    7  C   UNL     1       6.626  24.389  53.717  1.00  0.00    -0.006 A 
HETATM    8  C   UNL     1       6.720  24.411  55.115  1.00  0.00     0.014 A 
HETATM    9  C   UNL     1       7.298  23.344  55.809  1.00  0.00     0.013 A 
HETATM   10  C   UNL     1       7.792  22.226  55.124  1.00  0.00    -0.026 A 
HETATM   11  C   UNL     1       8.364  21.144  55.812  1.00  0.00     0.012 A 
HETATM   12  C   UNL     1       7.719  22.191  53.714  1.00  0.00    -0.025 A 
HETATM   13  C   UNL     1       8.853  20.038  55.117  1.00  0.00     0.001 A 
HETATM   14  C   UNL     1       8.785  20.003  53.728  1.00  0.00     0.001 A 
HETATM   15  C   UNL     1       8.224  21.074  53.029  1.00  0.00     0.012 A 
HETATM   16  C   UNL     1       7.145  23.276  53.031  1.00  0.00     0.026 A 
ENDBRANCH   1   7
BRANCH   3  17
HETATM   17  N   UNL     1       3.653  28.075  53.797  1.00  0.00    -0.261 NA
HETATM   18  H   UNL     1       2.975  28.358  53.084  1.00  0.00     0.130 HD
BRANCH  17  19
HETATM   19  C   UNL     1       4.293  29.213  54.435  1.00  0.00     0.097 C 
BRANCH  19  20
HETATM   20  C   UNL     1       4.074  29.164  55.948  1.00  0.00     0.042 C 
BRANCH  20  21
HETATM   21  C   UNL     1       4.999  28.230  56.719  1.00  0.00     0.230 C 
BRANCH  21  22
HETATM   22  N   UNL     1       4.484  26.846  56.747  1.00  0.00    -0.079 N 
HETATM   23  H   UNL     1       3.458  26.864  56.925  1.00  0.00     0.274 HD
HETATM   24  H   UNL     1       4.636  26.322  55.880  1.00  0.00     0.274 HD
HETATM   25  H   UNL     1       4.885  26.304  57.520  1.00  0.00     0.274 HD
ENDBRANCH  21  22
ENDBRANCH  20  21
ENDBRANCH  19  20
ENDBRANCH  17  19
ENDBRANCH   3  17
TORSDOF 6
ENDMDL
MODEL 4
REMARK VINA RESULT:      -8.4      2.932      4.321
REMARK  6 active torsions:
REMARK  status: ('A' for Active; 'I' for Inactive)
REMARK    1  A    between atoms: C_9  and  C_10 
REMARK    2  A    between atoms: C_12  and  N_13 
REMARK    3  A    between atoms: N_13  and  C_14 
REMARK    4  A    between atoms: C_14  and  C_15 
REMARK    5  A    between atoms: C_15  and  C_16 
REMARK    6  A    between atoms: C_16  and  N_17 
ROOT
HETATM    1  C   UNL     1       6.310  25.750  52.895  1.00  0.00     0.071 A 
HETATM    2  N   UNL     1       5.587  25.416  51.793  1.00  0.00    -0.218 NA
HETATM    3  C   UNL     1       5.091  26.440  51.075  1.00  0.00     0.202 A 
HETATM    4  N   UNL     1       5.277  27.728  51.354  1.00  0.00    -0.231 NA
HETATM    5  C   UNL     1       5.997  28.015  52.454  1.00  0.00     0.122 A 
HETATM    6  C   UNL     1       6.537  27.056  53.274  1.00  0.00     0.052 A 
ENDROOT
BRANCH   1   7
HETATM    7  C   UNL     1       6.822  24.609  53.661  1.00  0.00    -0.006 A 
HETATM    8  C   UNL     1       6.806  24.609  55.063  1.00  0.00     0.014 A 
HETATM    9  C   UNL     1       7.249  23.496  55.782  1.00  0.00     0.013 A 
HETATM   10  C   UNL     1       7.714  22.352  55.120  1.00  0.00    -0.026 A 
HETATM   11  C   UNL     1       8.151  21.224  55.833  1.00  0.00     0.012 A 
HETATM   12  C   UNL     1       7.752  22.338  53.708  1.00  0.00    -0.025 A 
HETATM   13  C   UNL     1       8.614  20.093  55.160  1.00  0.00     0.001 A 
HETATM   14  C   UNL     1       8.654  20.078  53.769  1.00  0.00     0.001 A 
HETATM   15  C   UNL     1       8.229  21.195  53.046  1.00  0.00     0.012 A 
HETATM   16  C   UNL     1       7.313  23.469  53.000  1.00  0.00     0.026 A 
ENDBRANCH   1   7
BRANCH   3  17
HETATM   17  N   UNL     1       4.344  26.158  49.934  1.00  0.00    -0.261 NA
HETATM   18  H   UNL     1       4.660  25.216  49.684  1.00  0.00     0.130 HD
BRANCH  17  19
HETATM   19  C   UNL     1       4.534  27.110  48.852  1.00  0.00     0.097 C 
BRANCH  19  20
HETATM   20  C   UNL     1       3.933  26.566  47.556  1.00  0.00     0.042 C 
BRANCH  20  21
HETATM   21  C   UNL     1       2.566  25.904  47.690  1.00  0.00     0.230 C 
BRANCH  21  22
HETATM   22  N   UNL     1       1.599  26.776  48.387  1.00  0.00    -0.079 N 
HETATM   23  H   UNL     1       1.587  27.712  47.929  1.00  0.00     0.274 HD
HETATM   24  H   UNL     1       0.637  26.422  48.386  1.00  0.00     0.274 HD
HETATM   25  H   UNL     1       1.872  26.951  49.359  1.00  0.00     0.274 HD
ENDBRANCH  21  22
ENDBRANCH  20  21
ENDBRANCH  19  20
ENDBRANCH  17  19
ENDBRANCH   3  17
TORSDOF 6
ENDMDL
MODEL 5
REMARK VINA RESULT:      -8.3      2.808      4.844
REMARK  6 active torsions:
REMARK  status: ('A' for Active; 'I' for Inactive)
REMARK    1  A    between atoms: C_9  and  C_10 
REMARK    2  A    between atoms: C_12  and  N_13 
REMARK    3  A    between atoms: N_13  and  C_14 
REMARK    4  A    between atoms: C_14  and  C_15 
REMARK    5  A    between atoms: C_15  and  C_16 
REMARK    6  A    between atoms: C_16  and  N_17 
ROOT
HETATM    1  C   UNL     1       7.449  27.587  56.720  1.00  0.00     0.071 A 
HETATM    2  N   UNL     1       7.967  28.010  57.904  1.00  0.00    -0.218 NA
HETATM    3  C   UNL     1       7.657  29.267  58.274  1.00  0.00     0.202 A 
HETATM    4  N   UNL     1       6.875  30.093  57.583  1.00  0.00    -0.231 NA
HETATM    5  C   UNL     1       6.384  29.635  56.417  1.00  0.00     0.122 A 
HETATM    6  C   UNL     1       6.646  28.381  55.928  1.00  0.00     0.052 A 
ENDROOT
BRANCH   1   7
HETATM    7  C   UNL     1       7.820  26.220  56.342  1.00  0.00    -0.006 A 
HETATM    8  C   UNL     1       8.460  25.363  57.248  1.00  0.00     0.014 A 
HETATM    9  C   UNL     1       8.763  24.046  56.893  1.00  0.00     0.013 A 
HETATM   10  C   UNL     1       8.429  23.549  55.627  1.00  0.00    -0.026 A 
HETATM   11  C   UNL     1       8.718  22.223  55.265  1.00  0.00     0.012 A 
HETATM   12  C   UNL     1       7.797  24.401  54.694  1.00  0.00    -0.025 A 
HETATM   13  C   UNL     1       8.382  21.743  53.999  1.00  0.00     0.001 A 
HETATM   14  C   UNL     1       7.761  22.581  53.078  1.00  0.00     0.001 A 
HETATM   15  C   UNL     1       7.472  23.903  53.421  1.00  0.00     0.012 A 
HETATM   16  C   UNL     1       7.508  25.725  55.062  1.00  0.00     0.026 A 
ENDBRANCH   1   7
BRANCH   3  17
HETATM   17  N   UNL     1       8.157  29.752  59.479  1.00  0.00    -0.261 NA
HETATM   18  H   UNL     1       7.725  29.133  60.170  1.00  0.00     0.130 HD
BRANCH  17  19
HETATM   19  C   UNL     1       7.854  31.153  59.723  1.00  0.00     0.097 C 
BRANCH  19  20
HETATM   20  C   UNL     1       7.696  31.405  61.223  1.00  0.00     0.042 C 
BRANCH  20  21
HETATM   21  C   UNL     1       8.913  31.076  62.079  1.00  0.00     0.230 C 
BRANCH  21  22
HETATM   22  N   UNL     1       8.864  29.694  62.598  1.00  0.00    -0.079 N 
HETATM   23  H   UNL     1       9.420  29.073  61.974  1.00  0.00     0.274 HD
HETATM   24  H   UNL     1       9.234  29.587  63.547  1.00  0.00     0.274 HD
HETATM   25  H   UNL     1       7.912  29.314  62.584  1.00  0.00     0.274 HD
ENDBRANCH  21  22
ENDBRANCH  20  21
ENDBRANCH  19  20
ENDBRANCH  17  19
ENDBRANCH   3  17
TORSDOF 6
ENDMDL
MODEL 6
REMARK VINA RESULT:      -8.2      1.914      2.592
REMARK  6 active torsions:
REMARK  status: ('A' for Active; 'I' for Inactive)
REMARK    1  A    between atoms: C_9  and  C_10 
REMARK    2  A    between atoms: C_12  and  N_13 
REMARK    3  A    between atoms: N_13  and  C_14 
REMARK    4  A    between atoms: C_14  and  C_15 
REMARK    5  A    between atoms: C_15  and  C_16 
REMARK    6  A    between atoms: C_16  and  N_17 
ROOT
HETATM    1  C   UNL     1       7.370  26.294  55.450  1.00  0.00     0.071 A 
HETATM    2  N   UNL     1       7.165  26.823  54.214  1.00  0.00    -0.218 NA
HETATM    3  C   UNL     1       6.806  28.120  54.176  1.00  0.00     0.202 A 
HETATM    4  N   UNL     1       6.666  28.904  55.241  1.00  0.00    -0.231 NA
HETATM    5  C   UNL     1       6.878  28.341  56.445  1.00  0.00     0.122 A 
HETATM    6  C   UNL     1       7.229  27.025  56.611  1.00  0.00     0.052 A 
ENDROOT
BRANCH   1   7
HETATM    7  C   UNL     1       7.744  24.876  55.455  1.00  0.00    -0.006 A 
HETATM    8  C   UNL     1       8.088  24.219  56.645  1.00  0.00     0.014 A 
HETATM    9  C   UNL     1       8.392  22.855  56.646  1.00  0.00     0.013 A 
HETATM   10  C   UNL     1       8.357  22.111  55.459  1.00  0.00    -0.026 A 
HETATM   11  C   UNL     1       8.650  20.738  55.451  1.00  0.00     0.012 A 
HETATM   12  C   UNL     1       8.027  22.758  54.247  1.00  0.00    -0.025 A 
HETATM   13  C   UNL     1       8.613  20.011  54.261  1.00  0.00     0.001 A 
HETATM   14  C   UNL     1       8.291  20.646  53.066  1.00  0.00     0.001 A 
HETATM   15  C   UNL     1       8.003  22.013  53.057  1.00  0.00     0.012 A 
HETATM   16  C   UNL     1       7.733  24.132  54.262  1.00  0.00     0.026 A 
ENDBRANCH   1   7
BRANCH   3  17
HETATM   17  N   UNL     1       6.585  28.715  52.937  1.00  0.00    -0.261 NA
HETATM   18  H   UNL     1       6.793  29.701  53.119  1.00  0.00     0.130 HD
BRANCH  17  19
HETATM   19  C   UNL     1       5.241  28.520  52.419  1.00  0.00     0.097 C 
BRANCH  19  20
HETATM   20  C   UNL     1       5.297  28.058  50.962  1.00  0.00     0.042 C 
BRANCH  20  21
HETATM   21  C   UNL     1       5.224  26.551  50.745  1.00  0.00     0.230 C 
BRANCH  21  22
HETATM   22  N   UNL     1       6.420  25.861  51.268  1.00  0.00    -0.079 N 
HETATM   23  H   UNL     1       7.128  26.570  51.555  1.00  0.00     0.274 HD
HETATM   24  H   UNL     1       6.240  25.262  52.079  1.00  0.00     0.274 HD
HETATM   25  H   UNL     1       6.879  25.292  50.549  1.00  0.00     0.274 HD
ENDBRANCH  21  22
ENDBRANCH  20  21
ENDBRANCH  19  20
ENDBRANCH  17  19
ENDBRANCH   3  17
TORSDOF 6
ENDMDL
MODEL 7
REMARK VINA RESULT:      -8.2      2.269      3.971
REMARK  6 active torsions:
REMARK  status: ('A' for Active; 'I' for Inactive)
REMARK    1  A    between atoms: C_9  and  C_10 
REMARK    2  A    between atoms: C_12  and  N_13 
REMARK    3  A    between atoms: N_13  and  C_14 
REMARK    4  A    between atoms: C_14  and  C_15 
REMARK    5  A    between atoms: C_15  and  C_16 
REMARK    6  A    between atoms: C_16  and  N_17 
ROOT
HETATM    1  C   UNL     1       7.564  26.487  55.977  1.00  0.00     0.071 A 
HETATM    2  N   UNL     1       7.884  26.977  57.204  1.00  0.00    -0.218 NA
HETATM    3  C   UNL     1       7.665  28.291  57.395  1.00  0.00     0.202 A 
HETATM    4  N   UNL     1       7.145  29.116  56.490  1.00  0.00    -0.231 NA
HETATM    5  C   UNL     1       6.843  28.590  55.288  1.00  0.00     0.122 A 
HETATM    6  C   UNL     1       7.040  27.271  54.971  1.00  0.00     0.052 A 
ENDROOT
BRANCH   1   7
HETATM    7  C   UNL     1       7.831  25.056  55.800  1.00  0.00    -0.006 A 
HETATM    8  C   UNL     1       8.160  24.237  56.889  1.00  0.00     0.014 A 
HETATM    9  C   UNL     1       8.362  22.865  56.716  1.00  0.00     0.013 A 
HETATM   10  C   UNL     1       8.234  22.274  55.452  1.00  0.00    -0.026 A 
HETATM   11  C   UNL     1       8.424  20.895  55.269  1.00  0.00     0.012 A 
HETATM   12  C   UNL     1       7.918  23.085  54.339  1.00  0.00    -0.025 A 
HETATM   13  C   UNL     1       8.295  20.322  54.004  1.00  0.00     0.001 A 
HETATM   14  C   UNL     1       7.986  21.118  52.906  1.00  0.00     0.001 A 
HETATM   15  C   UNL     1       7.801  22.493  53.071  1.00  0.00     0.012 A 
HETATM   16  C   UNL     1       7.728  24.464  54.528  1.00  0.00     0.026 A 
ENDBRANCH   1   7
BRANCH   3  17
HETATM   17  N   UNL     1       7.971  28.848  58.634  1.00  0.00    -0.261 NA
HETATM   18  H   UNL     1       7.156  28.600  59.201  1.00  0.00     0.130 HD
BRANCH  17  19
HETATM   19  C   UNL     1       8.205  30.282  58.596  1.00  0.00     0.097 C 
BRANCH  19  20
HETATM   20  C   UNL     1       9.694  30.580  58.776  1.00  0.00     0.042 C 
BRANCH  20  21
HETATM   21  C   UNL     1      10.477  30.828  57.493  1.00  0.00     0.230 C 
BRANCH  21  22
HETATM   22  N   UNL     1      11.162  29.608  57.021  1.00  0.00    -0.079 N 
HETATM   23  H   UNL     1      11.999  29.431  57.616  1.00  0.00     0.274 HD
HETATM   24  H   UNL     1      10.582  28.763  57.048  1.00  0.00     0.274 HD
HETATM   25  H   UNL     1      11.523  29.715  56.067  1.00  0.00     0.274 HD
ENDBRANCH  21  22
ENDBRANCH  20  21
ENDBRANCH  19  20
ENDBRANCH  17  19
ENDBRANCH   3  17
TORSDOF 6
ENDMDL
MODEL 8
REMARK VINA RESULT:      -8.2      1.925      2.410
REMARK  6 active torsions:
REMARK  status: ('A' for Active; 'I' for Inactive)
REMARK    1  A    between atoms: C_9  and  C_10 
REMARK    2  A    between atoms: C_12  and  N_13 
REMARK    3  A    between atoms: N_13  and  C_14 
REMARK    4  A    between atoms: C_14  and  C_15 
REMARK    5  A    between atoms: C_15  and  C_16 
REMARK    6  A    between atoms: C_16  and  N_17 
ROOT
HETATM    1  C   UNL     1       6.682  26.136  54.357  1.00  0.00     0.071 A 
HETATM    2  N   UNL     1       6.634  26.930  53.253  1.00  0.00    -0.218 NA
HETATM    3  C   UNL     1       6.220  28.195  53.449  1.00  0.00     0.202 A 
HETATM    4  N   UNL     1       5.885  28.713  54.628  1.00  0.00    -0.231 NA
HETATM    5  C   UNL     1       5.946  27.894  55.694  1.00  0.00     0.122 A 
HETATM    6  C   UNL     1       6.335  26.581  55.615  1.00  0.00     0.052 A 
ENDROOT
BRANCH   1   7
HETATM    7  C   UNL     1       7.123  24.761  54.104  1.00  0.00    -0.006 A 
HETATM    8  C   UNL     1       7.475  24.335  52.816  1.00  0.00     0.014 A 
HETATM    9  C   UNL     1       7.943  23.037  52.595  1.00  0.00     0.013 A 
HETATM   10  C   UNL     1       8.077  22.132  53.657  1.00  0.00    -0.026 A 
HETATM   11  C   UNL     1       8.557  20.829  53.447  1.00  0.00     0.012 A 
HETATM   12  C   UNL     1       7.714  22.537  54.960  1.00  0.00    -0.025 A 
HETATM   13  C   UNL     1       8.683  19.938  54.514  1.00  0.00     0.001 A 
HETATM   14  C   UNL     1       8.323  20.335  55.799  1.00  0.00     0.001 A 
HETATM   15  C   UNL     1       7.838  21.625  56.021  1.00  0.00     0.012 A 
HETATM   16  C   UNL     1       7.235  23.842  55.164  1.00  0.00     0.026 A 
ENDBRANCH   1   7
BRANCH   3  17
HETATM   17  N   UNL     1       6.153  29.054  52.355  1.00  0.00    -0.261 NA
HETATM   18  H   UNL     1       6.231  29.978  52.788  1.00  0.00     0.130 HD
BRANCH  17  19
HETATM   19  C   UNL     1       4.941  28.912  51.566  1.00  0.00     0.097 C 
BRANCH  19  20
HETATM   20  C   UNL     1       5.283  28.444  50.151  1.00  0.00     0.042 C 
BRANCH  20  21
HETATM   21  C   UNL     1       4.955  26.988  49.840  1.00  0.00     0.230 C 
BRANCH  21  22
HETATM   22  N   UNL     1       4.635  26.224  51.063  1.00  0.00    -0.079 N 
HETATM   23  H   UNL     1       3.743  25.705  50.920  1.00  0.00     0.274 HD
HETATM   24  H   UNL     1       5.349  25.539  51.331  1.00  0.00     0.274 HD
HETATM   25  H   UNL     1       4.467  26.839  51.866  1.00  0.00     0.274 HD
ENDBRANCH  21  22
ENDBRANCH  20  21
ENDBRANCH  19  20
ENDBRANCH  17  19
ENDBRANCH   3  17
TORSDOF 6
ENDMDL
MODEL 9
REMARK VINA RESULT:      -8.0      1.970      3.448
REMARK  6 active torsions:
REMARK  status: ('A' for Active; 'I' for Inactive)
REMARK    1  A    between atoms: C_9  and  C_10 
REMARK    2  A    between atoms: C_12  and  N_13 
REMARK    3  A    between atoms: N_13  and  C_14 
REMARK    4  A    between atoms: C_14  and  C_15 
REMARK    5  A    between atoms: C_15  and  C_16 
REMARK    6  A    between atoms: C_16  and  N_17 
ROOT
HETATM    1  C   UNL     1       6.793  25.733  53.316  1.00  0.00     0.071 A 
HETATM    2  N   UNL     1       7.171  26.663  54.233  1.00  0.00    -0.218 NA
HETATM    3  C   UNL     1       6.807  27.933  53.976  1.00  0.00     0.202 A 
HETATM    4  N   UNL     1       6.098  28.323  52.920  1.00  0.00    -0.231 NA
HETATM    5  C   UNL     1       5.745  27.371  52.036  1.00  0.00     0.122 A 
HETATM    6  C   UNL     1       6.075  26.048  52.182  1.00  0.00     0.052 A 
ENDROOT
BRANCH   1   7
HETATM    7  C   UNL     1       7.220  24.363  53.620  1.00  0.00    -0.006 A 
HETATM    8  C   UNL     1       7.530  23.455  52.598  1.00  0.00     0.014 A 
HETATM    9  C   UNL     1       7.986  22.168  52.900  1.00  0.00     0.013 A 
HETATM   10  C   UNL     1       8.149  21.758  54.230  1.00  0.00    -0.026 A 
HETATM   11  C   UNL     1       8.616  20.472  54.544  1.00  0.00     0.012 A 
HETATM   12  C   UNL     1       7.828  22.654  55.274  1.00  0.00    -0.025 A 
HETATM   13  C   UNL     1       8.772  20.077  55.873  1.00  0.00     0.001 A 
HETATM   14  C   UNL     1       8.454  20.957  56.903  1.00  0.00     0.001 A 
HETATM   15  C   UNL     1       7.982  22.238  56.606  1.00  0.00     0.012 A 
HETATM   16  C   UNL     1       7.362  23.940  54.954  1.00  0.00     0.026 A 
ENDBRANCH   1   7
BRANCH   3  17
HETATM   17  N   UNL     1       7.164  28.927  54.882  1.00  0.00    -0.261 NA
HETATM   18  H   UNL     1       7.053  29.784  54.333  1.00  0.00     0.130 HD
BRANCH  17  19
HETATM   19  C   UNL     1       8.507  28.784  55.418  1.00  0.00     0.097 C 
BRANCH  19  20
HETATM   20  C   UNL     1       8.512  29.076  56.919  1.00  0.00     0.042 C 
BRANCH  20  21
HETATM   21  C   UNL     1       7.614  28.183  57.768  1.00  0.00     0.230 C 
BRANCH  21  22
HETATM   22  N   UNL     1       7.663  26.775  57.326  1.00  0.00    -0.079 N 
HETATM   23  H   UNL     1       7.801  26.743  56.293  1.00  0.00     0.274 HD
HETATM   24  H   UNL     1       8.415  26.225  57.752  1.00  0.00     0.274 HD
HETATM   25  H   UNL     1       6.777  26.288  57.498  1.00  0.00     0.274 HD
ENDBRANCH  21  22
ENDBRANCH  20  21
ENDBRANCH  19  20
ENDBRANCH  17  19
ENDBRANCH   3  17
TORSDOF 6
ENDMDL
MODEL 10
REMARK VINA RESULT:      -7.7      1.509      2.771
REMARK  6 active torsions:
REMARK  status: ('A' for Active; 'I' for Inactive)
REMARK    1  A    between atoms: C_9  and  C_10 
REMARK    2  A    between atoms: C_12  and  N_13 
REMARK    3  A    between atoms: N_13  and  C_14 
REMARK    4  A    between atoms: C_14  and  C_15 
REMARK    5  A    between atoms: C_15  and  C_16 
REMARK    6  A    between atoms: C_16  and  N_17 
ROOT
HETATM    1  C   UNL     1       5.908  25.871  55.017  1.00  0.00     0.071 A 
HETATM    2  N   UNL     1       5.744  26.544  56.187  1.00  0.00    -0.218 NA
HETATM    3  C   UNL     1       5.050  27.695  56.117  1.00  0.00     0.202 A 
HETATM    4  N   UNL     1       4.507  28.192  55.009  1.00  0.00    -0.231 NA
HETATM    5  C   UNL     1       4.693  27.495  53.873  1.00  0.00     0.122 A 
HETATM    6  C   UNL     1       5.399  26.319  53.817  1.00  0.00     0.052 A 
ENDROOT
BRANCH   1   7
HETATM    7  C   UNL     1       6.682  24.630  55.127  1.00  0.00    -0.006 A 
HETATM    8  C   UNL     1       7.208  24.208  56.356  1.00  0.00     0.014 A 
HETATM    9  C   UNL     1       7.899  22.998  56.459  1.00  0.00     0.013 A 
HETATM   10  C   UNL     1       8.079  22.176  55.339  1.00  0.00    -0.026 A 
HETATM   11  C   UNL     1       8.762  20.953  55.434  1.00  0.00     0.012 A 
HETATM   12  C   UNL     1       7.569  22.590  54.088  1.00  0.00    -0.025 A 
HETATM   13  C   UNL     1       8.935  20.146  54.309  1.00  0.00     0.001 A 
HETATM   14  C   UNL     1       8.436  20.554  53.076  1.00  0.00     0.001 A 
HETATM   15  C   UNL     1       7.759  21.770  52.964  1.00  0.00     0.012 A 
HETATM   16  C   UNL     1       6.885  23.814  53.999  1.00  0.00     0.026 A 
ENDBRANCH   1   7
BRANCH   3  17
HETATM   17  N   UNL     1       4.848  28.426  57.285  1.00  0.00    -0.261 NA
HETATM   18  H   UNL     1       3.868  28.712  57.207  1.00  0.00     0.130 HD
BRANCH  17  19
HETATM   19  C   UNL     1       5.745  29.560  57.435  1.00  0.00     0.097 C 
BRANCH  19  20
HETATM   20  C   UNL     1       4.957  30.811  57.825  1.00  0.00     0.042 C 
BRANCH  20  21
HETATM   21  C   UNL     1       3.448  30.729  57.624  1.00  0.00     0.230 C 
BRANCH  21  22
HETATM   22  N   UNL     1       3.080  30.794  56.195  1.00  0.00    -0.079 N 
HETATM   23  H   UNL     1       3.388  31.708  55.801  1.00  0.00     0.274 HD
HETATM   24  H   UNL     1       3.496  30.056  55.618  1.00  0.00     0.274 HD
HETATM   25  H   UNL     1       2.064  30.767  56.059  1.00  0.00     0.274 HD
ENDBRANCH  21  22
ENDBRANCH  20  21
ENDBRANCH  19  20
ENDBRANCH  17  19
ENDBRANCH   3  17
TORSDOF 6
ENDMDL
