MODEL 1
REMARK VINA RESULT:      -9.0      0.000      0.000
REMARK  6 active torsions:
REMARK  status: ('A' for Active; 'I' for Inactive)
REMARK    1  A    between atoms: C_2  and  C_3 
REMARK    2  A    between atoms: C_3  and  O_4 
REMARK    3  A    between atoms: O_4  and  C_5 
REMARK    4  A    between atoms: C_6  and  O_7 
REMARK    5  A    between atoms: C_10  and  C_11 
REMARK    6  A    between atoms: C_25  and  O_26 
ROOT
HETATM    1  C   UNL     1       6.712  27.776  55.305  1.00  0.00     0.269 C 
HETATM    2  N   UNL     1       6.828  28.302  53.896  1.00  0.00    -0.061 N 
HETATM    3  H   UNL     1       7.816  28.515  53.724  1.00  0.00     0.278 HD
HETATM    4  H   UNL     1       6.326  29.194  53.839  1.00  0.00     0.278 HD
HETATM    5  C   UNL     1       6.341  27.341  52.837  1.00  0.00     0.238 C 
HETATM    6  C   UNL     1       7.194  26.057  52.827  1.00  0.00     0.069 C 
HETATM    7  C   UNL     1       7.403  25.562  54.218  1.00  0.00    -0.019 A 
HETATM    8  C   UNL     1       7.190  26.364  55.324  1.00  0.00     0.052 A 
HETATM    9  N   UNL     1       7.456  25.621  56.445  1.00  0.00    -0.356 N 
HETATM   10  H   UNL     1       7.394  25.934  57.407  1.00  0.00     0.166 HD
HETATM   11  C   UNL     1       7.862  24.357  56.076  1.00  0.00     0.043 A 
HETATM   12  C   UNL     1       7.837  24.293  54.682  1.00  0.00     0.002 A 
HETATM   13  C   UNL     1       8.248  23.271  56.869  1.00  0.00     0.033 A 
HETATM   14  C   UNL     1       8.617  22.085  56.220  1.00  0.00     0.039 A 
HETATM   15  C   UNL     1       8.602  21.988  54.830  1.00  0.00     0.069 A 
HETATM   16  C   UNL     1       8.213  23.090  54.055  1.00  0.00     0.051 A 
ENDROOT
BRANCH   1  17
HETATM   17  C   UNL     1       7.444  28.688  56.268  1.00  0.00    -0.019 A 
HETATM   18  C   UNL     1       8.768  29.101  56.022  1.00  0.00     0.049 A 
HETATM   19  C   UNL     1       9.429  29.960  56.906  1.00  0.00     0.102 A 
HETATM   20  C   UNL     1       8.764  30.430  58.054  1.00  0.00     0.102 A 
HETATM   21  C   UNL     1       7.450  30.025  58.301  1.00  0.00     0.040 A 
HETATM   22  C   UNL     1       6.796  29.162  57.417  1.00  0.00     0.012 A 
BRANCH  19  23
HETATM   23  O   UNL     1      10.706  30.420  56.710  1.00  0.00    -0.353 OA
HETATM   24  C   UNL     1      11.774  29.637  57.224  1.00  0.00     0.210 C 
ENDBRANCH  19  23
BRANCH  20  25
HETATM   25  O   UNL     1       9.480  31.278  58.858  1.00  0.00    -0.348 OA
BRANCH  25  26
HETATM   26  C   UNL     1       8.771  32.038  59.836  1.00  0.00     0.175 C 
BRANCH  26  27
HETATM   27  C   UNL     1       9.515  31.901  61.161  1.00  0.00     0.022 C 
HETATM   28  C   UNL     1       9.292  30.540  61.797  1.00  0.00     0.007 C 
ENDBRANCH  26  27
ENDBRANCH  25  26
ENDBRANCH  20  25
ENDBRANCH   1  17
BRANCH  15  29
HETATM   29  O   UNL     1       8.942  20.882  54.098  1.00  0.00    -0.356 OA
HETATM   30  C   UNL     1       8.193  20.635  52.914  1.00  0.00     0.210 C 
ENDBRANCH  15  29
TORSDOF 6
ENDMDL
MODEL 2
REMARK VINA RESULT:      -9.0      1.529      8.132
REMARK  6 active torsions:
REMARK  status: ('A' for Active; 'I' for Inactive)
REMARK    1  A    between atoms: C_2  and  C_3 
REMARK    2  A    between atoms: C_3  and  O_4 
REMARK    3  A    between atoms: O_4  and  C_5 
REMARK    4  A    between atoms: C_6  and  O_7 
REMARK    5  A    between atoms: C_10  and  C_11 
REMARK    6  A    between atoms: C_25  and  O_26 
ROOT
HETATM    1  C   UNL     1       6.446  27.760  54.851  1.00  0.00     0.269 C 
HETATM    2  N   UNL     1       5.139  27.543  55.571  1.00  0.00    -0.061 N 
HETATM    3  H   UNL     1       5.297  26.835  56.297  1.00  0.00     0.278 HD
HETATM    4  H   UNL     1       4.468  27.135  54.912  1.00  0.00     0.278 HD
HETATM    5  C   UNL     1       4.575  28.788  56.214  1.00  0.00     0.238 C 
HETATM    6  C   UNL     1       5.520  29.317  57.310  1.00  0.00     0.069 C 
HETATM    7  C   UNL     1       6.928  29.326  56.820  1.00  0.00    -0.019 A 
HETATM    8  C   UNL     1       7.326  28.602  55.710  1.00  0.00     0.052 A 
HETATM    9  N   UNL     1       8.665  28.826  55.515  1.00  0.00    -0.356 N 
HETATM   10  H   UNL     1       9.243  28.431  54.782  1.00  0.00     0.166 HD
HETATM   11  C   UNL     1       9.141  29.665  56.498  1.00  0.00     0.043 A 
HETATM   12  C   UNL     1       8.071  29.995  57.331  1.00  0.00     0.002 A 
HETATM   13  C   UNL     1      10.434  30.155  56.710  1.00  0.00     0.033 A 
HETATM   14  C   UNL     1      10.641  31.007  57.803  1.00  0.00     0.039 A 
HETATM   15  C   UNL     1       9.593  31.356  58.654  1.00  0.00     0.069 A 
HETATM   16  C   UNL     1       8.305  30.853  58.422  1.00  0.00     0.051 A 
ENDROOT
BRANCH   1  17
HETATM   17  C   UNL     1       7.057  26.430  54.458  1.00  0.00    -0.019 A 
HETATM   18  C   UNL     1       7.260  25.410  55.406  1.00  0.00     0.049 A 
HETATM   19  C   UNL     1       7.805  24.177  55.031  1.00  0.00     0.102 A 
HETATM   20  C   UNL     1       8.148  23.944  53.686  1.00  0.00     0.102 A 
HETATM   21  C   UNL     1       7.946  24.953  52.741  1.00  0.00     0.040 A 
HETATM   22  C   UNL     1       7.406  26.185  53.122  1.00  0.00     0.012 A 
BRANCH  19  23
HETATM   23  O   UNL     1       8.002  23.135  55.900  1.00  0.00    -0.353 OA
HETATM   24  C   UNL     1       8.500  23.442  57.194  1.00  0.00     0.210 C 
ENDBRANCH  19  23
BRANCH  20  25
HETATM   25  O   UNL     1       8.664  22.707  53.403  1.00  0.00    -0.348 OA
BRANCH  25  26
HETATM   26  C   UNL     1       7.775  21.701  52.918  1.00  0.00     0.175 C 
BRANCH  26  27
HETATM   27  C   UNL     1       8.461  20.350  53.092  1.00  0.00     0.022 C 
HETATM   28  C   UNL     1       8.705  20.024  54.555  1.00  0.00     0.007 C 
ENDBRANCH  26  27
ENDBRANCH  25  26
ENDBRANCH  20  25
ENDBRANCH   1  17
BRANCH  15  29
HETATM   29  O   UNL     1       9.684  32.177  59.746  1.00  0.00    -0.356 OA
HETATM   30  C   UNL     1       8.489  32.408  60.483  1.00  0.00     0.210 C 
ENDBRANCH  15  29
TORSDOF 6
ENDMDL
MODEL 3
REMARK VINA RESULT:      -8.5      1.355      2.177
REMARK  6 active torsions:
REMARK  status: ('A' for Active; 'I' for Inactive)
REMARK    1  A    between atoms: C_2  and  C_3 
REMARK    2  A    between atoms: C_3  and  O_4 
REMARK    3  A    between atoms: O_4  and  C_5 
REMARK    4  A    between atoms: C_6  and  O_7 
REMARK    5  A    between atoms: C_10  and  C_11 
REMARK    6  A    between atoms: C_25  and  O_26 
ROOT
HETATM    1  C   UNL     1       5.764  26.906  55.609  1.00  0.00     0.269 C 
HETATM    2  N   UNL     1       5.465  27.324  54.190  1.00  0.00    -0.061 N 
HETATM    3  H   UNL     1       6.343  27.650  53.771  1.00  0.00     0.278 HD
HETATM    4  H   UNL     1       4.838  28.135  54.216  1.00  0.00     0.278 HD
HETATM    5  C   UNL     1       4.889  26.223  53.332  1.00  0.00     0.238 C 
HETATM    6  C   UNL     1       5.894  25.066  53.175  1.00  0.00     0.069 C 
HETATM    7  C   UNL     1       6.496  24.718  54.494  1.00  0.00    -0.019 A 
HETATM    8  C   UNL     1       6.435  25.575  55.578  1.00  0.00     0.052 A 
HETATM    9  N   UNL     1       7.065  24.968  56.635  1.00  0.00    -0.356 N 
HETATM   10  H   UNL     1       7.186  25.349  57.566  1.00  0.00     0.166 HD
HETATM   11  C   UNL     1       7.553  23.742  56.238  1.00  0.00     0.043 A 
HETATM   12  C   UNL     1       7.209  23.560  54.898  1.00  0.00     0.002 A 
HETATM   13  C   UNL     1       8.270  22.785  56.964  1.00  0.00     0.033 A 
HETATM   14  C   UNL     1       8.646  21.608  56.303  1.00  0.00     0.039 A 
HETATM   15  C   UNL     1       8.317  21.395  54.966  1.00  0.00     0.069 A 
HETATM   16  C   UNL     1       7.598  22.369  54.257  1.00  0.00     0.051 A 
ENDROOT
BRANCH   1  17
HETATM   17  C   UNL     1       6.560  27.982  56.317  1.00  0.00    -0.019 A 
HETATM   18  C   UNL     1       5.921  29.021  57.022  1.00  0.00     0.049 A 
HETATM   19  C   UNL     1       6.664  30.000  57.691  1.00  0.00     0.102 A 
HETATM   20  C   UNL     1       8.070  29.945  57.672  1.00  0.00     0.102 A 
HETATM   21  C   UNL     1       8.708  28.916  56.977  1.00  0.00     0.040 A 
HETATM   22  C   UNL     1       7.961  27.943  56.305  1.00  0.00     0.012 A 
BRANCH  19  23
HETATM   23  O   UNL     1       6.102  31.019  58.416  1.00  0.00    -0.353 OA
HETATM   24  C   UNL     1       5.375  32.011  57.704  1.00  0.00     0.210 C 
ENDBRANCH  19  23
BRANCH  20  25
HETATM   25  O   UNL     1       8.719  30.934  58.363  1.00  0.00    -0.348 OA
BRANCH  25  26
HETATM   26  C   UNL     1       9.254  30.620  59.648  1.00  0.00     0.175 C 
BRANCH  26  27
HETATM   27  C   UNL     1       9.478  31.931  60.393  1.00  0.00     0.022 C 
HETATM   28  C   UNL     1       8.170  32.555  60.847  1.00  0.00     0.007 C 
ENDBRANCH  26  27
ENDBRANCH  25  26
ENDBRANCH  20  25
ENDBRANCH   1  17
BRANCH  15  29
HETATM   29  O   UNL     1       8.634  20.287  54.227  1.00  0.00    -0.356 OA
HETATM   30  C   UNL     1       8.361  20.340  52.831  1.00  0.00     0.210 C 
ENDBRANCH  15  29
TORSDOF 6
ENDMDL
MODEL 4
REMARK VINA RESULT:      -8.2      3.307      5.497
REMARK  6 active torsions:
REMARK  status: ('A' for Active; 'I' for Inactive)
REMARK    1  A    between atoms: C_2  and  C_3 
REMARK    2  A    between atoms: C_3  and  O_4 
REMARK    3  A    between atoms: O_4  and  C_5 
REMARK    4  A    between atoms: C_6  and  O_7 
REMARK    5  A    between atoms: C_10  and  C_11 
REMARK    6  A    between atoms: C_25  and  O_26 
ROOT
HETATM    1  C   UNL     1       8.604  31.198  58.527  1.00  0.00     0.269 C 
HETATM    2  N   UNL     1      10.104  31.031  58.507  1.00  0.00    -0.061 N 
HETATM    3  H   UNL     1      10.358  30.413  59.285  1.00  0.00     0.278 HD
HETATM    4  H   UNL     1      10.534  31.940  58.708  1.00  0.00     0.278 HD
HETATM    5  C   UNL     1      10.642  30.451  57.222  1.00  0.00     0.238 C 
HETATM    6  C   UNL     1      10.106  29.024  56.996  1.00  0.00     0.069 C 
HETATM    7  C   UNL     1       8.639  28.973  57.257  1.00  0.00    -0.019 A 
HETATM    8  C   UNL     1       7.984  29.964  57.965  1.00  0.00     0.052 A 
HETATM    9  N   UNL     1       6.654  29.635  58.024  1.00  0.00    -0.356 N 
HETATM   10  H   UNL     1       5.919  30.164  58.480  1.00  0.00     0.166 HD
HETATM   11  C   UNL     1       6.447  28.431  57.386  1.00  0.00     0.043 A 
HETATM   12  C   UNL     1       7.678  27.994  56.894  1.00  0.00     0.002 A 
HETATM   13  C   UNL     1       5.267  27.702  57.207  1.00  0.00     0.033 A 
HETATM   14  C   UNL     1       5.346  26.491  56.507  1.00  0.00     0.039 A 
HETATM   15  C   UNL     1       6.559  26.026  56.002  1.00  0.00     0.069 A 
HETATM   16  C   UNL     1       7.730  26.775  56.193  1.00  0.00     0.051 A 
ENDROOT
BRANCH   1  17
HETATM   17  C   UNL     1       8.132  31.544  59.924  1.00  0.00    -0.019 A 
HETATM   18  C   UNL     1       6.991  32.342  60.134  1.00  0.00     0.049 A 
HETATM   19  C   UNL     1       6.550  32.641  61.428  1.00  0.00     0.102 A 
HETATM   20  C   UNL     1       7.246  32.131  62.539  1.00  0.00     0.102 A 
HETATM   21  C   UNL     1       8.377  31.337  62.336  1.00  0.00     0.040 A 
HETATM   22  C   UNL     1       8.817  31.046  61.041  1.00  0.00     0.012 A 
BRANCH  19  23
HETATM   23  O   UNL     1       5.432  33.388  61.698  1.00  0.00    -0.353 OA
HETATM   24  C   UNL     1       4.703  33.905  60.594  1.00  0.00     0.210 C 
ENDBRANCH  19  23
BRANCH  20  25
HETATM   25  O   UNL     1       6.739  32.461  63.769  1.00  0.00    -0.348 OA
BRANCH  25  26
HETATM   26  C   UNL     1       7.487  33.357  64.589  1.00  0.00     0.175 C 
BRANCH  26  27
HETATM   27  C   UNL     1       6.579  33.819  65.724  1.00  0.00     0.022 C 
HETATM   28  C   UNL     1       5.111  33.737  65.342  1.00  0.00     0.007 C 
ENDBRANCH  26  27
ENDBRANCH  25  26
ENDBRANCH  20  25
ENDBRANCH   1  17
BRANCH  15  29
HETATM   29  O   UNL     1       6.747  24.862  55.306  1.00  0.00    -0.356 OA
HETATM   30  C   UNL     1       7.801  24.011  55.742  1.00  0.00     0.210 C 
ENDBRANCH  15  29
TORSDOF 6
ENDMDL
MODEL 5
REMARK VINA RESULT:      -8.1      4.640      8.289
REMARK  6 active torsions:
REMARK  status: ('A' for Active; 'I' for Inactive)
REMARK    1  A    between atoms: C_2  and  C_3 
REMARK    2  A    between atoms: C_3  and  O_4 
REMARK    3  A    between atoms: O_4  and  C_5 
REMARK    4  A    between atoms: C_6  and  O_7 
REMARK    5  A    between atoms: C_10  and  C_11 
REMARK    6  A    between atoms: C_25  and  O_26 
ROOT
HETATM    1  C   UNL     1       5.988  27.521  52.246  1.00  0.00     0.269 C 
HETATM    2  N   UNL     1       5.011  28.150  53.208  1.00  0.00    -0.061 N 
HETATM    3  H   UNL     1       4.127  27.634  53.135  1.00  0.00     0.278 HD
HETATM    4  H   UNL     1       4.815  29.106  52.894  1.00  0.00     0.278 HD
HETATM    5  C   UNL     1       5.468  28.138  54.647  1.00  0.00     0.238 C 
HETATM    6  C   UNL     1       5.621  26.694  55.164  1.00  0.00     0.069 C 
HETATM    7  C   UNL     1       6.348  25.860  54.164  1.00  0.00    -0.019 A 
HETATM    8  C   UNL     1       6.489  26.251  52.844  1.00  0.00     0.052 A 
HETATM    9  N   UNL     1       7.208  25.283  52.190  1.00  0.00    -0.356 N 
HETATM   10  H   UNL     1       7.471  25.283  51.211  1.00  0.00     0.166 HD
HETATM   11  C   UNL     1       7.510  24.262  53.064  1.00  0.00     0.043 A 
HETATM   12  C   UNL     1       6.982  24.600  54.311  1.00  0.00     0.002 A 
HETATM   13  C   UNL     1       8.210  23.070  52.844  1.00  0.00     0.033 A 
HETATM   14  C   UNL     1       8.375  22.198  53.929  1.00  0.00     0.039 A 
HETATM   15  C   UNL     1       7.860  22.506  55.187  1.00  0.00     0.069 A 
HETATM   16  C   UNL     1       7.162  23.706  55.384  1.00  0.00     0.051 A 
ENDROOT
BRANCH   1  17
HETATM   17  C   UNL     1       5.349  27.352  50.883  1.00  0.00    -0.019 A 
HETATM   18  C   UNL     1       5.336  28.403  49.946  1.00  0.00     0.049 A 
HETATM   19  C   UNL     1       4.762  28.231  48.682  1.00  0.00     0.102 A 
HETATM   20  C   UNL     1       4.198  26.991  48.331  1.00  0.00     0.102 A 
HETATM   21  C   UNL     1       4.211  25.945  49.257  1.00  0.00     0.040 A 
HETATM   22  C   UNL     1       4.781  26.122  50.521  1.00  0.00     0.012 A 
BRANCH  19  23
HETATM   23  O   UNL     1       4.741  29.205  47.716  1.00  0.00    -0.353 OA
HETATM   24  C   UNL     1       3.978  30.375  47.977  1.00  0.00     0.210 C 
ENDBRANCH  19  23
BRANCH  20  25
HETATM   25  O   UNL     1       3.670  26.905  47.070  1.00  0.00    -0.348 OA
BRANCH  25  26
HETATM   26  C   UNL     1       2.450  26.186  46.897  1.00  0.00     0.175 C 
BRANCH  26  27
HETATM   27  C   UNL     1       1.325  27.027  47.492  1.00  0.00     0.022 C 
HETATM   28  C   UNL     1       1.114  28.317  46.719  1.00  0.00     0.007 C 
ENDBRANCH  26  27
ENDBRANCH  25  26
ENDBRANCH  20  25
ENDBRANCH   1  17
BRANCH  15  29
HETATM   29  O   UNL     1       7.963  21.729  56.309  1.00  0.00    -0.356 OA
HETATM   30  C   UNL     1       7.694  20.339  56.160  1.00  0.00     0.210 C 
ENDBRANCH  15  29
TORSDOF 6
ENDMDL
MODEL 6
REMARK VINA RESULT:      -7.9      4.416      7.004
REMARK  6 active torsions:
REMARK  status: ('A' for Active; 'I' for Inactive)
REMARK    1  A    between atoms: C_2  and  C_3 
REMARK    2  A    between atoms: C_3  and  O_4 
REMARK    3  A    between atoms: O_4  and  C_5 
REMARK    4  A    between atoms: C_6  and  O_7 
REMARK    5  A    between atoms: C_10  and  C_11 
REMARK    6  A    between atoms: C_25  and  O_26 
ROOT
HETATM    1  C   UNL     1       5.629  27.681  54.460  1.00  0.00     0.269 C 
HETATM    2  N   UNL     1       4.710  27.710  55.656  1.00  0.00    -0.061 N 
HETATM    3  H   UNL     1       3.836  27.243  55.388  1.00  0.00     0.278 HD
HETATM    4  H   UNL     1       4.467  28.686  55.855  1.00  0.00     0.278 HD
HETATM    5  C   UNL     1       5.273  27.032  56.882  1.00  0.00     0.238 C 
HETATM    6  C   UNL     1       5.501  25.531  56.625  1.00  0.00     0.069 C 
HETATM    7  C   UNL     1       6.172  25.326  55.309  1.00  0.00    -0.019 A 
HETATM    8  C   UNL     1       6.205  26.312  54.340  1.00  0.00     0.052 A 
HETATM    9  N   UNL     1       6.898  25.823  53.261  1.00  0.00    -0.356 N 
HETATM   10  H   UNL     1       7.087  26.310  52.393  1.00  0.00     0.166 HD
HETATM   11  C   UNL     1       7.290  24.526  53.513  1.00  0.00     0.043 A 
HETATM   12  C   UNL     1       6.847  24.190  54.793  1.00  0.00     0.002 A 
HETATM   13  C   UNL     1       8.001  23.631  52.707  1.00  0.00     0.033 A 
HETATM   14  C   UNL     1       8.269  22.356  53.222  1.00  0.00     0.039 A 
HETATM   15  C   UNL     1       7.841  21.989  54.497  1.00  0.00     0.069 A 
HETATM   16  C   UNL     1       7.130  22.902  55.287  1.00  0.00     0.051 A 
ENDROOT
BRANCH   1  17
HETATM   17  C   UNL     1       4.895  28.153  53.221  1.00  0.00    -0.019 A 
HETATM   18  C   UNL     1       5.593  28.567  52.071  1.00  0.00     0.049 A 
HETATM   19  C   UNL     1       4.907  28.982  50.924  1.00  0.00     0.102 A 
HETATM   20  C   UNL     1       3.501  28.978  50.910  1.00  0.00     0.102 A 
HETATM   21  C   UNL     1       2.804  28.566  52.048  1.00  0.00     0.040 A 
HETATM   22  C   UNL     1       3.493  28.157  53.194  1.00  0.00     0.012 A 
BRANCH  19  23
HETATM   23  O   UNL     1       5.528  29.370  49.764  1.00  0.00    -0.353 OA
HETATM   24  C   UNL     1       6.021  30.700  49.695  1.00  0.00     0.210 C 
ENDBRANCH  19  23
BRANCH  20  25
HETATM   25  O   UNL     1       2.910  29.386  49.743  1.00  0.00    -0.348 OA
BRANCH  25  26
HETATM   26  C   UNL     1       1.996  28.497  49.103  1.00  0.00     0.175 C 
BRANCH  26  27
HETATM   27  C   UNL     1       2.721  27.853  47.925  1.00  0.00     0.022 C 
HETATM   28  C   UNL     1       3.328  26.512  48.299  1.00  0.00     0.007 C 
ENDBRANCH  26  27
ENDBRANCH  25  26
ENDBRANCH  20  25
ENDBRANCH   1  17
BRANCH  15  29
HETATM   29  O   UNL     1       8.048  20.774  55.094  1.00  0.00    -0.356 OA
HETATM   30  C   UNL     1       9.245  20.619  55.848  1.00  0.00     0.210 C 
ENDBRANCH  15  29
TORSDOF 6
ENDMDL
MODEL 7
REMARK VINA RESULT:      -7.9      3.248      7.977
REMARK  6 active torsions:
REMARK  status: ('A' for Active; 'I' for Inactive)
REMARK    1  A    between atoms: C_2  and  C_3 
REMARK    2  A    between atoms: C_3  and  O_4 
REMARK    3  A    between atoms: O_4  and  C_5 
REMARK    4  A    between atoms: C_6  and  O_7 
REMARK    5  A    between atoms: C_10  and  C_11 
REMARK    6  A    between atoms: C_25  and  O_26 
ROOT
HETATM    1  C   UNL     1       6.586  26.923  56.870  1.00  0.00     0.269 C 
HETATM    2  N   UNL     1       7.566  27.887  57.492  1.00  0.00    -0.061 N 
HETATM    3  H   UNL     1       8.336  28.020  56.827  1.00  0.00     0.278 HD
HETATM    4  H   UNL     1       7.973  27.446  58.322  1.00  0.00     0.278 HD
HETATM    5  C   UNL     1       6.973  29.234  57.832  1.00  0.00     0.238 C 
HETATM    6  C   UNL     1       6.492  29.960  56.561  1.00  0.00     0.069 C 
HETATM    7  C   UNL     1       5.721  29.026  55.690  1.00  0.00    -0.019 A 
HETATM    8  C   UNL     1       5.791  27.653  55.842  1.00  0.00     0.052 A 
HETATM    9  N   UNL     1       4.968  27.080  54.906  1.00  0.00    -0.356 N 
HETATM   10  H   UNL     1       4.810  26.088  54.766  1.00  0.00     0.166 HD
HETATM   11  C   UNL     1       4.388  28.064  54.137  1.00  0.00     0.043 A 
HETATM   12  C   UNL     1       4.844  29.296  54.608  1.00  0.00     0.002 A 
HETATM   13  C   UNL     1       3.497  27.956  53.064  1.00  0.00     0.033 A 
HETATM   14  C   UNL     1       3.058  29.139  52.455  1.00  0.00     0.039 A 
HETATM   15  C   UNL     1       3.494  30.385  52.902  1.00  0.00     0.069 A 
HETATM   16  C   UNL     1       4.387  30.470  53.979  1.00  0.00     0.051 A 
ENDROOT
BRANCH   1  17
HETATM   17  C   UNL     1       7.314  25.705  56.338  1.00  0.00    -0.019 A 
HETATM   18  C   UNL     1       7.341  25.413  54.961  1.00  0.00     0.049 A 
HETATM   19  C   UNL     1       8.033  24.298  54.476  1.00  0.00     0.102 A 
HETATM   20  C   UNL     1       8.721  23.457  55.370  1.00  0.00     0.102 A 
HETATM   21  C   UNL     1       8.698  23.744  56.737  1.00  0.00     0.040 A 
HETATM   22  C   UNL     1       8.001  24.857  57.218  1.00  0.00     0.012 A 
BRANCH  19  23
HETATM   23  O   UNL     1       8.121  23.975  53.146  1.00  0.00    -0.353 OA
HETATM   24  C   UNL     1       7.976  25.027  52.202  1.00  0.00     0.210 C 
ENDBRANCH  19  23
BRANCH  20  25
HETATM   25  O   UNL     1       9.382  22.396  54.811  1.00  0.00    -0.348 OA
BRANCH  25  26
HETATM   26  C   UNL     1       9.084  21.086  55.292  1.00  0.00     0.175 C 
BRANCH  26  27
HETATM   27  C   UNL     1       7.946  20.527  54.445  1.00  0.00     0.022 C 
HETATM   28  C   UNL     1       8.300  20.498  52.968  1.00  0.00     0.007 C 
ENDBRANCH  26  27
ENDBRANCH  25  26
ENDBRANCH  20  25
ENDBRANCH   1  17
BRANCH  15  29
HETATM   29  O   UNL     1       3.130  31.598  52.381  1.00  0.00    -0.356 OA
HETATM   30  C   UNL     1       2.770  32.618  53.307  1.00  0.00     0.210 C 
ENDBRANCH  15  29
TORSDOF 6
ENDMDL
MODEL 8
REMARK VINA RESULT:      -7.5      3.247      8.053
REMARK  6 active torsions:
REMARK  status: ('A' for Active; 'I' for Inactive)
REMARK    1  A    between atoms: C_2  and  C_3 
REMARK    2  A    between atoms: C_3  and  O_4 
REMARK    3  A    between atoms: O_4  and  C_5 
REMARK    4  A    between atoms: C_6  and  O_7 
REMARK    5  A    between atoms: C_10  and  C_11 
REMARK    6  A    between atoms: C_25  and  O_26 
ROOT
HETATM    1  C   UNL     1       6.066  27.316  52.627  1.00  0.00     0.269 C 
HETATM    2  N   UNL     1       4.825  26.974  51.839  1.00  0.00    -0.061 N 
HETATM    3  H   UNL     1       4.278  26.307  52.394  1.00  0.00     0.278 HD
HETATM    4  H   UNL     1       5.108  26.478  50.988  1.00  0.00     0.278 HD
HETATM    5  C   UNL     1       3.958  28.165  51.507  1.00  0.00     0.238 C 
HETATM    6  C   UNL     1       3.415  28.824  52.790  1.00  0.00     0.069 C 
HETATM    7  C   UNL     1       4.504  28.976  53.797  1.00  0.00    -0.019 A 
HETATM    8  C   UNL     1       5.691  28.272  53.708  1.00  0.00     0.052 A 
HETATM    9  N   UNL     1       6.482  28.637  54.768  1.00  0.00    -0.356 N 
HETATM   10  H   UNL     1       7.410  28.290  54.977  1.00  0.00     0.166 HD
HETATM   11  C   UNL     1       5.810  29.549  55.552  1.00  0.00     0.043 A 
HETATM   12  C   UNL     1       4.565  29.779  54.965  1.00  0.00     0.002 A 
HETATM   13  C   UNL     1       6.211  30.184  56.733  1.00  0.00     0.033 A 
HETATM   14  C   UNL     1       5.315  31.081  57.330  1.00  0.00     0.039 A 
HETATM   15  C   UNL     1       4.065  31.334  56.769  1.00  0.00     0.069 A 
HETATM   16  C   UNL     1       3.684  30.686  55.585  1.00  0.00     0.051 A 
ENDROOT
BRANCH   1  17
HETATM   17  C   UNL     1       6.736  26.052  53.126  1.00  0.00    -0.019 A 
HETATM   18  C   UNL     1       6.679  25.680  54.483  1.00  0.00     0.049 A 
HETATM   19  C   UNL     1       7.284  24.501  54.931  1.00  0.00     0.102 A 
HETATM   20  C   UNL     1       7.951  23.665  54.017  1.00  0.00     0.102 A 
HETATM   21  C   UNL     1       8.009  24.029  52.669  1.00  0.00     0.040 A 
HETATM   22  C   UNL     1       7.407  25.211  52.227  1.00  0.00     0.012 A 
BRANCH  19  23
HETATM   23  O   UNL     1       7.241  24.070  56.232  1.00  0.00    -0.353 OA
HETATM   24  C   UNL     1       8.097  24.711  57.167  1.00  0.00     0.210 C 
ENDBRANCH  19  23
BRANCH  20  25
HETATM   25  O   UNL     1       8.504  22.525  54.537  1.00  0.00    -0.348 OA
BRANCH  25  26
HETATM   26  C   UNL     1       7.940  21.269  54.158  1.00  0.00     0.175 C 
BRANCH  26  27
HETATM   27  C   UNL     1       7.786  20.428  55.421  1.00  0.00     0.022 C 
HETATM   28  C   UNL     1       8.702  20.907  56.534  1.00  0.00     0.007 C 
ENDBRANCH  26  27
ENDBRANCH  25  26
ENDBRANCH  20  25
ENDBRANCH   1  17
BRANCH  15  29
HETATM   29  O   UNL     1       3.118  32.187  57.268  1.00  0.00    -0.356 OA
HETATM   30  C   UNL     1       3.578  33.425  57.798  1.00  0.00     0.210 C 
ENDBRANCH  15  29
TORSDOF 6
ENDMDL
MODEL 9
REMARK VINA RESULT:      -7.5      2.312      2.961
REMARK  6 active torsions:
REMARK  status: ('A' for Active; 'I' for Inactive)
REMARK    1  A    between atoms: C_2  and  C_3 
REMARK    2  A    between atoms: C_3  and  O_4 
REMARK    3  A    between atoms: O_4  and  C_5 
REMARK    4  A    between atoms: C_6  and  O_7 
REMARK    5  A    between atoms: C_10  and  C_11 
REMARK    6  A    between atoms: C_25  and  O_26 
ROOT
HETATM    1  C   UNL     1       4.828  27.333  53.588  1.00  0.00     0.269 C 
HETATM    2  N   UNL     1       5.110  27.800  52.181  1.00  0.00    -0.061 N 
HETATM    3  H   UNL     1       6.019  28.276  52.188  1.00  0.00     0.278 HD
HETATM    4  H   UNL     1       4.414  28.509  51.929  1.00  0.00     0.278 HD
HETATM    5  C   UNL     1       5.145  26.690  51.158  1.00  0.00     0.238 C 
HETATM    6  C   UNL     1       6.288  25.702  51.458  1.00  0.00     0.069 C 
HETATM    7  C   UNL     1       6.307  25.354  52.908  1.00  0.00    -0.019 A 
HETATM    8  C   UNL     1       5.648  26.117  53.856  1.00  0.00     0.052 A 
HETATM    9  N   UNL     1       5.846  25.535  55.082  1.00  0.00    -0.356 N 
HETATM   10  H   UNL     1       5.491  25.865  55.972  1.00  0.00     0.166 HD
HETATM   11  C   UNL     1       6.646  24.422  54.941  1.00  0.00     0.043 A 
HETATM   12  C   UNL     1       6.949  24.285  53.585  1.00  0.00     0.002 A 
HETATM   13  C   UNL     1       7.119  23.529  55.908  1.00  0.00     0.033 A 
HETATM   14  C   UNL     1       7.926  22.467  55.480  1.00  0.00     0.039 A 
HETATM   15  C   UNL     1       8.247  22.301  54.134  1.00  0.00     0.069 A 
HETATM   16  C   UNL     1       7.761  23.208  53.181  1.00  0.00     0.051 A 
ENDROOT
BRANCH   1  17
HETATM   17  C   UNL     1       5.058  28.461  54.573  1.00  0.00    -0.019 A 
HETATM   18  C   UNL     1       6.284  28.602  55.251  1.00  0.00     0.049 A 
HETATM   19  C   UNL     1       6.494  29.659  56.143  1.00  0.00     0.102 A 
HETATM   20  C   UNL     1       5.475  30.603  56.363  1.00  0.00     0.102 A 
HETATM   21  C   UNL     1       4.257  30.468  55.691  1.00  0.00     0.040 A 
HETATM   22  C   UNL     1       4.050  29.408  54.804  1.00  0.00     0.012 A 
BRANCH  19  23
HETATM   23  O   UNL     1       7.673  29.867  56.813  1.00  0.00    -0.353 OA
HETATM   24  C   UNL     1       8.533  28.751  56.995  1.00  0.00     0.210 C 
ENDBRANCH  19  23
BRANCH  20  25
HETATM   25  O   UNL     1       5.769  31.613  57.241  1.00  0.00    -0.348 OA
BRANCH  25  26
HETATM   26  C   UNL     1       4.686  32.334  57.827  1.00  0.00     0.175 C 
BRANCH  26  27
HETATM   27  C   UNL     1       4.812  32.214  59.342  1.00  0.00     0.022 C 
HETATM   28  C   UNL     1       3.455  32.223  60.025  1.00  0.00     0.007 C 
ENDBRANCH  26  27
ENDBRANCH  25  26
ENDBRANCH  20  25
ENDBRANCH   1  17
BRANCH  15  29
HETATM   29  O   UNL     1       9.023  21.303  53.610  1.00  0.00    -0.356 OA
HETATM   30  C   UNL     1       8.378  20.360  52.761  1.00  0.00     0.210 C 
ENDBRANCH  15  29
TORSDOF 6
ENDMDL
MODEL 10
REMARK VINA RESULT:      -7.4      3.901      9.409
REMARK  6 active torsions:
REMARK  status: ('A' for Active; 'I' for Inactive)
REMARK    1  A    between atoms: C_2  and  C_3 
REMARK    2  A    between atoms: C_3  and  O_4 
REMARK    3  A    between atoms: O_4  and  C_5 
REMARK    4  A    between atoms: C_6  and  O_7 
REMARK    5  A    between atoms: C_10  and  C_11 
REMARK    6  A    between atoms: C_25  and  O_26 
ROOT
HETATM    1  C   UNL     1       6.073  31.733  58.267  1.00  0.00     0.269 C 
HETATM    2  N   UNL     1       4.594  31.860  58.000  1.00  0.00    -0.061 N 
HETATM    3  H   UNL     1       4.135  31.029  58.389  1.00  0.00     0.278 HD
HETATM    4  H   UNL     1       4.442  31.827  56.987  1.00  0.00     0.278 HD
HETATM    5  C   UNL     1       3.963  33.094  58.600  1.00  0.00     0.238 C 
HETATM    6  C   UNL     1       4.063  33.071  60.137  1.00  0.00     0.069 C 
HETATM    7  C   UNL     1       5.438  32.678  60.562  1.00  0.00    -0.019 A 
HETATM    8  C   UNL     1       6.325  32.061  59.699  1.00  0.00     0.052 A 
HETATM    9  N   UNL     1       7.495  31.840  60.380  1.00  0.00    -0.356 N 
HETATM   10  H   UNL     1       8.333  31.400  60.017  1.00  0.00     0.166 HD
HETATM   11  C   UNL     1       7.364  32.283  61.678  1.00  0.00     0.043 A 
HETATM   12  C   UNL     1       6.081  32.815  61.819  1.00  0.00     0.002 A 
HETATM   13  C   UNL     1       8.283  32.254  62.733  1.00  0.00     0.033 A 
HETATM   14  C   UNL     1       7.881  32.783  63.966  1.00  0.00     0.039 A 
HETATM   15  C   UNL     1       6.607  33.322  64.140  1.00  0.00     0.069 A 
HETATM   16  C   UNL     1       5.703  33.340  63.068  1.00  0.00     0.051 A 
ENDROOT
BRANCH   1  17
HETATM   17  C   UNL     1       6.566  30.362  57.852  1.00  0.00    -0.019 A 
HETATM   18  C   UNL     1       5.718  29.447  57.198  1.00  0.00     0.049 A 
HETATM   19  C   UNL     1       6.188  28.190  56.800  1.00  0.00     0.102 A 
HETATM   20  C   UNL     1       7.527  27.834  57.043  1.00  0.00     0.102 A 
HETATM   21  C   UNL     1       8.372  28.740  57.688  1.00  0.00     0.040 A 
HETATM   22  C   UNL     1       7.897  29.992  58.090  1.00  0.00     0.012 A 
BRANCH  19  23
HETATM   23  O   UNL     1       5.421  27.266  56.137  1.00  0.00    -0.353 OA
HETATM   24  C   UNL     1       4.921  27.623  54.856  1.00  0.00     0.210 C 
ENDBRANCH  19  23
BRANCH  20  25
HETATM   25  O   UNL     1       7.907  26.591  56.608  1.00  0.00    -0.348 OA
BRANCH  25  26
HETATM   26  C   UNL     1       8.149  25.580  57.585  1.00  0.00     0.175 C 
BRANCH  26  27
HETATM   27  C   UNL     1       7.822  24.232  56.952  1.00  0.00     0.022 C 
HETATM   28  C   UNL     1       7.336  24.383  55.520  1.00  0.00     0.007 C 
ENDBRANCH  26  27
ENDBRANCH  25  26
ENDBRANCH  20  25
ENDBRANCH   1  17
BRANCH  15  29
HETATM   29  O   UNL     1       6.114  33.862  65.297  1.00  0.00    -0.356 OA
HETATM   30  C   UNL     1       4.710  33.768  65.508  1.00  0.00     0.210 C 
ENDBRANCH  15  29
TORSDOF 6
ENDMDL
