MODEL 1
REMARK VINA RESULT:     -12.4      0.000      0.000
REMARK  7 active torsions:
REMARK  status: ('A' for Active; 'I' for Inactive)
REMARK    1  A    between atoms: C_4  and  N_5 
REMARK    2  A    between atoms: N_8  and  C_10 
REMARK    3  A    between atoms: C_10  and  C_11 
REMARK    4  A    between atoms: C_11  and  C_12 
REMARK    5  A    between atoms: C_12  and  N_13 
REMARK       I    between atoms: N_13  and  C_14 
REMARK    6  A    between atoms: C_14  and  C_15 
REMARK    7  A    between atoms: C_21  and  C_22 
ROOT
HETATM    1  N   UNL     1       5.635  31.629  59.293  1.00  0.00    -0.357 N 
HETATM    2  C   UNL     1       6.826  31.984  59.893  1.00  0.00     0.251 C 
HETATM    3  O   UNL     1       7.860  32.096  59.234  1.00  0.00    -0.268 OA
HETATM    4  H   UNL     1       4.770  31.630  59.821  1.00  0.00     0.162 HD
ENDROOT
BRANCH   2   5
HETATM    5  C   UNL     1       6.783  32.357  61.337  1.00  0.00     0.034 A 
HETATM    6  C   UNL     1       5.616  32.783  61.984  1.00  0.00     0.048 A 
HETATM    7  C   UNL     1       5.658  33.213  63.321  1.00  0.00     0.053 A 
HETATM    8  C   UNL     1       6.860  33.209  64.025  1.00  0.00     0.032 A 
HETATM    9  N   UNL     1       4.469  33.656  63.899  1.00  0.00    -0.321 N 
HETATM   10  S   UNL     1       7.021  33.795  65.682  1.00  0.00    -0.083 SA
HETATM   11  C   UNL     1       8.018  32.747  63.387  1.00  0.00     0.022 A 
HETATM   12  C   UNL     1       5.388  34.058  66.174  1.00  0.00     0.074 C 
HETATM   13  C   UNL     1       5.048  34.297  67.457  1.00  0.00     0.036 C 
HETATM   14  C   UNL     1       4.264  34.069  65.183  1.00  0.00     0.263 C 
HETATM   15  O   UNL     1       3.125  34.425  65.490  1.00  0.00    -0.267 OA
HETATM   16  C   UNL     1       7.983  32.321  62.056  1.00  0.00     0.018 A 
HETATM   17  H   UNL     1       3.617  33.675  63.351  1.00  0.00     0.169 HD
BRANCH  13  18
HETATM   18  C   UNL     1       5.968  34.333  68.600  1.00  0.00    -0.035 A 
HETATM   19  C   UNL     1       6.844  35.411  68.758  1.00  0.00     0.011 A 
HETATM   20  C   UNL     1       7.731  35.440  69.836  1.00  0.00     0.001 A 
HETATM   21  C   UNL     1       7.743  34.395  70.759  1.00  0.00     0.000 A 
HETATM   22  C   UNL     1       6.867  33.322  70.609  1.00  0.00     0.001 A 
HETATM   23  C   UNL     1       5.979  33.290  69.532  1.00  0.00     0.011 A 
ENDBRANCH  13  18
ENDBRANCH   2   5
BRANCH   1  24
HETATM   24  C   UNL     1       5.545  31.340  57.877  1.00  0.00     0.124 C 
BRANCH  24  25
HETATM   25  C   UNL     1       5.538  29.840  57.583  1.00  0.00     0.047 C 
BRANCH  25  26
HETATM   26  C   UNL     1       6.904  29.166  57.438  1.00  0.00     0.236 C 
BRANCH  26  27
HETATM   27  N   UNL     1       6.836  27.660  57.356  1.00  0.00    -0.068 N 
HETATM   28  C   UNL     1       5.862  27.171  56.284  1.00  0.00     0.254 C 
HETATM   29  C   UNL     1       5.936  25.647  56.049  1.00  0.00     0.150 C 
HETATM   30  N   UNL     1       7.333  25.262  55.808  1.00  0.00    -0.377 N 
HETATM   31  C   UNL     1       8.200  25.544  56.966  1.00  0.00     0.150 C 
HETATM   32  C   UNL     1       8.247  27.073  57.168  1.00  0.00     0.254 C 
HETATM   33  H   UNL     1       6.550  27.312  58.293  1.00  0.00     0.280 HD
BRANCH  30  34
HETATM   34  C   UNL     1       7.608  24.092  55.091  1.00  0.00     0.036 A 
HETATM   35  C   UNL     1       7.605  22.827  55.713  1.00  0.00     0.036 A 
HETATM   36  C   UNL     1       7.832  21.638  55.000  1.00  0.00    -0.060 A 
HETATM   37  C   UNL     1       7.746  20.301  55.677  1.00  0.00     0.048 C 
HETATM   38  C   UNL     1       8.079  21.707  53.631  1.00  0.00     0.007 A 
HETATM   39  C   UNL     1       8.091  22.940  52.988  1.00  0.00     0.009 A 
HETATM   40  C   UNL     1       7.830  24.130  53.694  1.00  0.00    -0.035 A 
HETATM   41  C   UNL     1       7.781  25.400  52.884  1.00  0.00     0.050 C 
ENDBRANCH  30  34
ENDBRANCH  26  27
ENDBRANCH  25  26
ENDBRANCH  24  25
ENDBRANCH   1  24
TORSDOF 7
ENDMDL
MODEL 2
REMARK VINA RESULT:     -10.9      3.503     12.797
REMARK  7 active torsions:
REMARK  status: ('A' for Active; 'I' for Inactive)
REMARK    1  A    between atoms: C_4  and  N_5 
REMARK    2  A    between atoms: N_8  and  C_10 
REMARK    3  A    between atoms: C_10  and  C_11 
REMARK    4  A    between atoms: C_11  and  C_12 
REMARK    5  A    between atoms: C_12  and  N_13 
REMARK       I    between atoms: N_13  and  C_14 
REMARK    6  A    between atoms: C_14  and  C_15 
REMARK    7  A    between atoms: C_21  and  C_22 
ROOT
HETATM    1  N   UNL     1       4.063  31.645  55.533  1.00  0.00    -0.357 N 
HETATM    2  C   UNL     1       3.645  30.547  56.258  1.00  0.00     0.251 C 
HETATM    3  O   UNL     1       2.673  30.616  57.009  1.00  0.00    -0.268 OA
HETATM    4  H   UNL     1       4.803  31.559  54.847  1.00  0.00     0.162 HD
ENDROOT
BRANCH   2   5
HETATM    5  C   UNL     1       4.329  29.248  55.991  1.00  0.00     0.034 A 
HETATM    6  C   UNL     1       5.245  28.667  56.878  1.00  0.00     0.048 A 
HETATM    7  C   UNL     1       5.928  27.491  56.528  1.00  0.00     0.053 A 
HETATM    8  C   UNL     1       5.694  26.878  55.299  1.00  0.00     0.032 A 
HETATM    9  N   UNL     1       6.852  26.980  57.441  1.00  0.00    -0.321 N 
HETATM   10  S   UNL     1       6.555  25.440  54.747  1.00  0.00    -0.083 SA
HETATM   11  C   UNL     1       4.750  27.441  54.431  1.00  0.00     0.022 A 
HETATM   12  C   UNL     1       7.437  24.941  56.144  1.00  0.00     0.074 C 
HETATM   13  C   UNL     1       8.057  23.746  56.220  1.00  0.00     0.036 C 
HETATM   14  C   UNL     1       7.587  25.836  57.337  1.00  0.00     0.263 C 
HETATM   15  O   UNL     1       8.353  25.568  58.264  1.00  0.00    -0.267 OA
HETATM   16  C   UNL     1       4.070  28.613  54.772  1.00  0.00     0.018 A 
HETATM   17  H   UNL     1       7.022  27.465  58.313  1.00  0.00     0.169 HD
BRANCH  13  18
HETATM   18  C   UNL     1       8.051  22.705  55.186  1.00  0.00    -0.035 A 
HETATM   19  C   UNL     1       7.857  21.366  55.541  1.00  0.00     0.011 A 
HETATM   20  C   UNL     1       7.865  20.373  54.560  1.00  0.00     0.001 A 
HETATM   21  C   UNL     1       8.066  20.713  53.222  1.00  0.00     0.000 A 
HETATM   22  C   UNL     1       8.253  22.047  52.863  1.00  0.00     0.001 A 
HETATM   23  C   UNL     1       8.245  23.042  53.842  1.00  0.00     0.011 A 
ENDBRANCH  13  18
ENDBRANCH   2   5
BRANCH   1  24
HETATM   24  C   UNL     1       3.407  32.931  55.643  1.00  0.00     0.124 C 
BRANCH  24  25
HETATM   25  C   UNL     1       3.966  33.780  56.784  1.00  0.00     0.047 C 
BRANCH  25  26
HETATM   26  C   UNL     1       2.942  34.519  57.649  1.00  0.00     0.236 C 
BRANCH  26  27
HETATM   27  N   UNL     1       3.146  34.328  59.133  1.00  0.00    -0.068 N 
HETATM   28  C   UNL     1       3.620  32.919  59.488  1.00  0.00     0.254 C 
HETATM   29  C   UNL     1       4.028  32.772  60.969  1.00  0.00     0.150 C 
HETATM   30  N   UNL     1       4.987  33.831  61.314  1.00  0.00    -0.377 N 
HETATM   31  C   UNL     1       4.407  35.179  61.177  1.00  0.00     0.150 C 
HETATM   32  C   UNL     1       4.089  35.412  59.685  1.00  0.00     0.254 C 
HETATM   33  H   UNL     1       2.238  34.534  59.599  1.00  0.00     0.280 HD
BRANCH  30  34
HETATM   34  C   UNL     1       5.869  33.635  62.383  1.00  0.00     0.036 A 
HETATM   35  C   UNL     1       5.530  34.011  63.698  1.00  0.00     0.036 A 
HETATM   36  C   UNL     1       6.383  33.779  64.790  1.00  0.00    -0.060 A 
HETATM   37  C   UNL     1       5.960  34.120  66.189  1.00  0.00     0.048 C 
HETATM   38  C   UNL     1       7.613  33.164  64.569  1.00  0.00     0.007 A 
HETATM   39  C   UNL     1       7.978  32.783  63.282  1.00  0.00     0.009 A 
HETATM   40  C   UNL     1       7.111  32.984  62.191  1.00  0.00    -0.035 A 
HETATM   41  C   UNL     1       7.569  32.455  60.857  1.00  0.00     0.050 C 
ENDBRANCH  30  34
ENDBRANCH  26  27
ENDBRANCH  25  26
ENDBRANCH  24  25
ENDBRANCH   1  24
TORSDOF 7
ENDMDL
MODEL 3
REMARK VINA RESULT:     -10.9      4.214     12.321
REMARK  7 active torsions:
REMARK  status: ('A' for Active; 'I' for Inactive)
REMARK    1  A    between atoms: C_4  and  N_5 
REMARK    2  A    between atoms: N_8  and  C_10 
REMARK    3  A    between atoms: C_10  and  C_11 
REMARK    4  A    between atoms: C_11  and  C_12 
REMARK    5  A    between atoms: C_12  and  N_13 
REMARK       I    between atoms: N_13  and  C_14 
REMARK    6  A    between atoms: C_14  and  C_15 
REMARK    7  A    between atoms: C_21  and  C_22 
ROOT
HETATM    1  N   UNL     1       3.191  31.299  54.876  1.00  0.00    -0.357 N 
HETATM    2  C   UNL     1       3.349  30.464  55.964  1.00  0.00     0.251 C 
HETATM    3  O   UNL     1       2.804  30.714  57.039  1.00  0.00    -0.268 OA
HETATM    4  H   UNL     1       3.563  31.041  53.969  1.00  0.00     0.162 HD
ENDROOT
BRANCH   2   5
HETATM    5  C   UNL     1       4.087  29.185  55.747  1.00  0.00     0.034 A 
HETATM    6  C   UNL     1       4.999  28.660  56.671  1.00  0.00     0.048 A 
HETATM    7  C   UNL     1       5.735  27.503  56.368  1.00  0.00     0.053 A 
HETATM    8  C   UNL     1       5.555  26.853  55.149  1.00  0.00     0.032 A 
HETATM    9  N   UNL     1       6.652  27.048  57.316  1.00  0.00    -0.321 N 
HETATM   10  S   UNL     1       6.483  25.434  54.655  1.00  0.00    -0.083 SA
HETATM   11  C   UNL     1       4.614  27.358  54.243  1.00  0.00     0.022 A 
HETATM   12  C   UNL     1       7.345  25.002  56.085  1.00  0.00     0.074 C 
HETATM   13  C   UNL     1       8.007  23.833  56.207  1.00  0.00     0.036 C 
HETATM   14  C   UNL     1       7.431  25.930  57.259  1.00  0.00     0.263 C 
HETATM   15  O   UNL     1       8.182  25.713  58.211  1.00  0.00    -0.267 OA
HETATM   16  C   UNL     1       3.883  28.512  54.538  1.00  0.00     0.018 A 
HETATM   17  H   UNL     1       6.781  27.560  58.180  1.00  0.00     0.169 HD
BRANCH  13  18
HETATM   18  C   UNL     1       8.066  22.768  55.198  1.00  0.00    -0.035 A 
HETATM   19  C   UNL     1       8.327  23.084  53.861  1.00  0.00     0.011 A 
HETATM   20  C   UNL     1       8.368  22.074  52.898  1.00  0.00     0.001 A 
HETATM   21  C   UNL     1       8.151  20.747  53.267  1.00  0.00     0.000 A 
HETATM   22  C   UNL     1       7.897  20.427  54.600  1.00  0.00     0.001 A 
HETATM   23  C   UNL     1       7.855  21.435  55.565  1.00  0.00     0.011 A 
ENDBRANCH  13  18
ENDBRANCH   2   5
BRANCH   1  24
HETATM   24  C   UNL     1       2.413  32.517  54.951  1.00  0.00     0.124 C 
BRANCH  24  25
HETATM   25  C   UNL     1       3.265  33.740  55.288  1.00  0.00     0.047 C 
BRANCH  25  26
HETATM   26  C   UNL     1       3.168  34.265  56.722  1.00  0.00     0.236 C 
BRANCH  26  27
HETATM   27  N   UNL     1       3.737  33.323  57.757  1.00  0.00    -0.068 N 
HETATM   28  C   UNL     1       5.236  33.088  57.581  1.00  0.00     0.254 C 
HETATM   29  C   UNL     1       5.866  32.297  58.747  1.00  0.00     0.150 C 
HETATM   30  N   UNL     1       5.506  32.940  60.018  1.00  0.00    -0.377 N 
HETATM   31  C   UNL     1       4.052  32.938  60.256  1.00  0.00     0.150 C 
HETATM   32  C   UNL     1       3.390  33.816  59.173  1.00  0.00     0.254 C 
HETATM   33  H   UNL     1       3.216  32.426  57.677  1.00  0.00     0.280 HD
BRANCH  30  34
HETATM   34  C   UNL     1       6.323  32.749  61.139  1.00  0.00     0.036 A 
HETATM   35  C   UNL     1       7.216  31.662  61.225  1.00  0.00     0.036 A 
HETATM   36  C   UNL     1       8.077  31.481  62.319  1.00  0.00    -0.060 A 
HETATM   37  C   UNL     1       9.070  30.356  62.346  1.00  0.00     0.048 C 
HETATM   38  C   UNL     1       8.044  32.401  63.365  1.00  0.00     0.007 A 
HETATM   39  C   UNL     1       7.173  33.483  63.312  1.00  0.00     0.009 A 
HETATM   40  C   UNL     1       6.333  33.686  62.200  1.00  0.00    -0.035 A 
HETATM   41  C   UNL     1       5.493  34.937  62.205  1.00  0.00     0.050 C 
ENDBRANCH  30  34
ENDBRANCH  26  27
ENDBRANCH  25  26
ENDBRANCH  24  25
ENDBRANCH   1  24
TORSDOF 7
ENDMDL
MODEL 4
REMARK VINA RESULT:     -10.8      3.260     13.167
REMARK  7 active torsions:
REMARK  status: ('A' for Active; 'I' for Inactive)
REMARK    1  A    between atoms: C_4  and  N_5 
REMARK    2  A    between atoms: N_8  and  C_10 
REMARK    3  A    between atoms: C_10  and  C_11 
REMARK    4  A    between atoms: C_11  and  C_12 
REMARK    5  A    between atoms: C_12  and  N_13 
REMARK       I    between atoms: N_13  and  C_14 
REMARK    6  A    between atoms: C_14  and  C_15 
REMARK    7  A    between atoms: C_21  and  C_22 
ROOT
HETATM    1  N   UNL     1       5.406  31.474  56.462  1.00  0.00    -0.357 N 
HETATM    2  C   UNL     1       6.264  30.698  57.215  1.00  0.00     0.251 C 
HETATM    3  O   UNL     1       6.710  31.105  58.288  1.00  0.00    -0.268 OA
HETATM    4  H   UNL     1       4.968  31.099  55.629  1.00  0.00     0.162 HD
ENDROOT
BRANCH   2   5
HETATM    5  C   UNL     1       6.517  29.303  56.749  1.00  0.00     0.034 A 
HETATM    6  C   UNL     1       6.150  28.842  55.478  1.00  0.00     0.048 A 
HETATM    7  C   UNL     1       6.327  27.492  55.132  1.00  0.00     0.053 A 
HETATM    8  C   UNL     1       6.884  26.597  56.043  1.00  0.00     0.032 A 
HETATM    9  N   UNL     1       5.912  27.087  53.863  1.00  0.00    -0.321 N 
HETATM   10  S   UNL     1       7.081  24.873  55.720  1.00  0.00    -0.083 SA
HETATM   11  C   UNL     1       7.285  27.071  57.299  1.00  0.00     0.022 A 
HETATM   12  C   UNL     1       6.692  24.733  54.045  1.00  0.00     0.074 C 
HETATM   13  C   UNL     1       6.933  23.610  53.337  1.00  0.00     0.036 C 
HETATM   14  C   UNL     1       6.029  25.851  53.298  1.00  0.00     0.263 C 
HETATM   15  O   UNL     1       5.590  25.704  52.156  1.00  0.00    -0.267 OA
HETATM   16  C   UNL     1       7.107  28.412  57.651  1.00  0.00     0.018 A 
HETATM   17  H   UNL     1       5.483  27.754  53.235  1.00  0.00     0.169 HD
BRANCH  13  18
HETATM   18  C   UNL     1       7.572  22.391  53.847  1.00  0.00    -0.035 A 
HETATM   19  C   UNL     1       8.173  21.492  52.960  1.00  0.00     0.011 A 
HETATM   20  C   UNL     1       8.768  20.325  53.443  1.00  0.00     0.001 A 
HETATM   21  C   UNL     1       8.765  20.053  54.810  1.00  0.00     0.000 A 
HETATM   22  C   UNL     1       8.173  20.949  55.698  1.00  0.00     0.001 A 
HETATM   23  C   UNL     1       7.578  22.117  55.219  1.00  0.00     0.011 A 
ENDBRANCH  13  18
ENDBRANCH   2   5
BRANCH   1  24
HETATM   24  C   UNL     1       5.017  32.807  56.872  1.00  0.00     0.124 C 
BRANCH  24  25
HETATM   25  C   UNL     1       3.543  32.895  57.265  1.00  0.00     0.047 C 
BRANCH  25  26
HETATM   26  C   UNL     1       3.095  34.189  57.948  1.00  0.00     0.236 C 
BRANCH  26  27
HETATM   27  N   UNL     1       3.175  34.144  59.454  1.00  0.00    -0.068 N 
HETATM   28  C   UNL     1       3.590  32.771  59.983  1.00  0.00     0.254 C 
HETATM   29  C   UNL     1       3.876  32.768  61.500  1.00  0.00     0.150 C 
HETATM   30  N   UNL     1       4.826  33.843  61.816  1.00  0.00    -0.377 N 
HETATM   31  C   UNL     1       4.288  35.178  61.501  1.00  0.00     0.150 C 
HETATM   32  C   UNL     1       4.094  35.266  59.973  1.00  0.00     0.254 C 
HETATM   33  H   UNL     1       2.238  34.407  59.822  1.00  0.00     0.280 HD
BRANCH  30  34
HETATM   34  C   UNL     1       5.616  33.743  62.968  1.00  0.00     0.036 A 
HETATM   35  C   UNL     1       5.105  34.057  64.242  1.00  0.00     0.036 A 
HETATM   36  C   UNL     1       5.868  33.917  65.414  1.00  0.00    -0.060 A 
HETATM   37  C   UNL     1       5.271  34.186  66.764  1.00  0.00     0.048 C 
HETATM   38  C   UNL     1       7.181  33.461  65.315  1.00  0.00     0.007 A 
HETATM   39  C   UNL     1       7.715  33.145  64.071  1.00  0.00     0.009 A 
HETATM   40  C   UNL     1       6.942  33.251  62.899  1.00  0.00    -0.035 A 
HETATM   41  C   UNL     1       7.590  32.800  61.617  1.00  0.00     0.050 C 
ENDBRANCH  30  34
ENDBRANCH  26  27
ENDBRANCH  25  26
ENDBRANCH  24  25
ENDBRANCH   1  24
TORSDOF 7
ENDMDL
MODEL 5
REMARK VINA RESULT:     -10.2      2.555      3.686
REMARK  7 active torsions:
REMARK  status: ('A' for Active; 'I' for Inactive)
REMARK    1  A    between atoms: C_4  and  N_5 
REMARK    2  A    between atoms: N_8  and  C_10 
REMARK    3  A    between atoms: C_10  and  C_11 
REMARK    4  A    between atoms: C_11  and  C_12 
REMARK    5  A    between atoms: C_12  and  N_13 
REMARK       I    between atoms: N_13  and  C_14 
REMARK    6  A    between atoms: C_14  and  C_15 
REMARK    7  A    between atoms: C_21  and  C_22 
ROOT
HETATM    1  N   UNL     1       3.984  31.422  55.929  1.00  0.00    -0.357 N 
HETATM    2  C   UNL     1       5.120  31.219  56.686  1.00  0.00     0.251 C 
HETATM    3  O   UNL     1       6.121  30.692  56.199  1.00  0.00    -0.268 OA
HETATM    4  H   UNL     1       3.198  31.939  56.305  1.00  0.00     0.162 HD
ENDROOT
BRANCH   2   5
HETATM    5  C   UNL     1       5.135  31.786  58.067  1.00  0.00     0.034 A 
HETATM    6  C   UNL     1       6.261  31.746  58.899  1.00  0.00     0.048 A 
HETATM    7  C   UNL     1       6.185  32.209  60.223  1.00  0.00     0.053 A 
HETATM    8  C   UNL     1       4.991  32.728  60.721  1.00  0.00     0.032 A 
HETATM    9  N   UNL     1       7.331  32.112  61.013  1.00  0.00    -0.321 N 
HETATM   10  S   UNL     1       4.785  33.269  62.389  1.00  0.00    -0.083 SA
HETATM   11  C   UNL     1       3.879  32.802  59.874  1.00  0.00     0.022 A 
HETATM   12  C   UNL     1       6.388  33.230  63.024  1.00  0.00     0.074 C 
HETATM   13  C   UNL     1       6.711  33.784  64.211  1.00  0.00     0.036 C 
HETATM   14  C   UNL     1       7.502  32.539  62.297  1.00  0.00     0.263 C 
HETATM   15  O   UNL     1       8.605  32.352  62.815  1.00  0.00    -0.267 OA
HETATM   16  C   UNL     1       3.948  32.339  58.557  1.00  0.00     0.018 A 
HETATM   17  H   UNL     1       8.174  31.703  60.631  1.00  0.00     0.169 HD
BRANCH  13  18
HETATM   18  C   UNL     1       5.796  34.512  65.098  1.00  0.00    -0.035 A 
HETATM   19  C   UNL     1       5.361  35.795  64.754  1.00  0.00     0.011 A 
HETATM   20  C   UNL     1       4.503  36.495  65.604  1.00  0.00     0.001 A 
HETATM   21  C   UNL     1       4.077  35.916  66.799  1.00  0.00     0.000 A 
HETATM   22  C   UNL     1       4.503  34.634  67.143  1.00  0.00     0.001 A 
HETATM   23  C   UNL     1       5.361  33.932  66.294  1.00  0.00     0.011 A 
ENDBRANCH  13  18
ENDBRANCH   2   5
BRANCH   1  24
HETATM   24  C   UNL     1       3.897  30.998  54.547  1.00  0.00     0.124 C 
BRANCH  24  25
HETATM   25  C   UNL     1       3.466  29.539  54.405  1.00  0.00     0.047 C 
BRANCH  25  26
HETATM   26  C   UNL     1       4.327  28.658  53.498  1.00  0.00     0.236 C 
BRANCH  26  27
HETATM   27  N   UNL     1       4.569  27.271  54.044  1.00  0.00    -0.068 N 
HETATM   28  C   UNL     1       4.707  26.219  52.944  1.00  0.00     0.254 C 
HETATM   29  C   UNL     1       5.158  24.842  53.478  1.00  0.00     0.150 C 
HETATM   30  N   UNL     1       6.364  25.012  54.299  1.00  0.00    -0.377 N 
HETATM   31  C   UNL     1       6.122  25.854  55.484  1.00  0.00     0.150 C 
HETATM   32  C   UNL     1       5.779  27.277  54.996  1.00  0.00     0.254 C 
HETATM   33  H   UNL     1       3.768  27.041  54.668  1.00  0.00     0.280 HD
BRANCH  30  34
HETATM   34  C   UNL     1       7.236  23.930  54.468  1.00  0.00     0.036 A 
HETATM   35  C   UNL     1       7.305  23.221  55.684  1.00  0.00     0.036 A 
HETATM   36  C   UNL     1       8.139  22.104  55.857  1.00  0.00    -0.060 A 
HETATM   37  C   UNL     1       8.133  21.324  57.138  1.00  0.00     0.048 C 
HETATM   38  C   UNL     1       8.936  21.684  54.794  1.00  0.00     0.007 A 
HETATM   39  C   UNL     1       8.892  22.364  53.582  1.00  0.00     0.009 A 
HETATM   40  C   UNL     1       8.032  23.463  53.395  1.00  0.00    -0.035 A 
HETATM   41  C   UNL     1       8.000  24.071  52.017  1.00  0.00     0.050 C 
ENDBRANCH  30  34
ENDBRANCH  26  27
ENDBRANCH  25  26
ENDBRANCH  24  25
ENDBRANCH   1  24
TORSDOF 7
ENDMDL
MODEL 6
REMARK VINA RESULT:      -9.7      2.356      3.515
REMARK  7 active torsions:
REMARK  status: ('A' for Active; 'I' for Inactive)
REMARK    1  A    between atoms: C_4  and  N_5 
REMARK    2  A    between atoms: N_8  and  C_10 
REMARK    3  A    between atoms: C_10  and  C_11 
REMARK    4  A    between atoms: C_11  and  C_12 
REMARK    5  A    between atoms: C_12  and  N_13 
REMARK       I    between atoms: N_13  and  C_14 
REMARK    6  A    between atoms: C_14  and  C_15 
REMARK    7  A    between atoms: C_21  and  C_22 
ROOT
HETATM    1  N   UNL     1       4.274  31.463  56.165  1.00  0.00    -0.357 N 
HETATM    2  C   UNL     1       5.293  31.244  57.071  1.00  0.00     0.251 C 
HETATM    3  O   UNL     1       6.334  30.681  56.731  1.00  0.00    -0.268 OA
HETATM    4  H   UNL     1       3.461  32.008  56.425  1.00  0.00     0.162 HD
ENDROOT
BRANCH   2   5
HETATM    5  C   UNL     1       5.140  31.836  58.432  1.00  0.00     0.034 A 
HETATM    6  C   UNL     1       3.918  32.303  58.932  1.00  0.00     0.048 A 
HETATM    7  C   UNL     1       3.856  32.938  60.183  1.00  0.00     0.053 A 
HETATM    8  C   UNL     1       5.007  33.098  60.951  1.00  0.00     0.032 A 
HETATM    9  N   UNL     1       2.615  33.411  60.611  1.00  0.00    -0.321 N 
HETATM   10  S   UNL     1       5.036  33.943  62.501  1.00  0.00    -0.083 SA
HETATM   11  C   UNL     1       6.221  32.596  60.465  1.00  0.00     0.022 A 
HETATM   12  C   UNL     1       3.365  34.204  62.845  1.00  0.00     0.074 C 
HETATM   13  C   UNL     1       2.932  34.624  64.051  1.00  0.00     0.036 C 
HETATM   14  C   UNL     1       2.310  34.008  61.799  1.00  0.00     0.263 C 
HETATM   15  O   UNL     1       1.141  34.355  61.976  1.00  0.00    -0.267 OA
HETATM   16  C   UNL     1       6.289  31.967  59.219  1.00  0.00     0.018 A 
HETATM   17  H   UNL     1       1.802  33.305  60.017  1.00  0.00     0.169 HD
BRANCH  13  18
HETATM   18  C   UNL     1       3.772  34.880  65.227  1.00  0.00    -0.035 A 
HETATM   19  C   UNL     1       4.294  33.811  65.961  1.00  0.00     0.011 A 
HETATM   20  C   UNL     1       5.081  34.053  67.089  1.00  0.00     0.001 A 
HETATM   21  C   UNL     1       5.350  35.362  67.485  1.00  0.00     0.000 A 
HETATM   22  C   UNL     1       4.837  36.432  66.752  1.00  0.00     0.001 A 
HETATM   23  C   UNL     1       4.050  36.193  65.625  1.00  0.00     0.011 A 
ENDBRANCH  13  18
ENDBRANCH   2   5
BRANCH   1  24
HETATM   24  C   UNL     1       4.361  31.015  54.791  1.00  0.00     0.124 C 
BRANCH  24  25
HETATM   25  C   UNL     1       4.379  29.492  54.668  1.00  0.00     0.047 C 
BRANCH  25  26
HETATM   26  C   UNL     1       5.525  28.886  53.855  1.00  0.00     0.236 C 
BRANCH  26  27
HETATM   27  N   UNL     1       5.485  27.380  53.771  1.00  0.00    -0.068 N 
HETATM   28  C   UNL     1       6.560  26.811  52.846  1.00  0.00     0.254 C 
HETATM   29  C   UNL     1       6.662  25.272  52.912  1.00  0.00     0.150 C 
HETATM   30  N   UNL     1       6.797  24.855  54.314  1.00  0.00    -0.377 N 
HETATM   31  C   UNL     1       5.624  25.225  55.125  1.00  0.00     0.150 C 
HETATM   32  C   UNL     1       5.550  26.765  55.182  1.00  0.00     0.254 C 
HETATM   33  H   UNL     1       4.537  27.114  53.433  1.00  0.00     0.280 HD
BRANCH  30  34
HETATM   34  C   UNL     1       7.398  23.625  54.609  1.00  0.00     0.036 A 
HETATM   35  C   UNL     1       7.493  22.601  53.647  1.00  0.00     0.036 A 
HETATM   36  C   UNL     1       8.135  21.379  53.910  1.00  0.00    -0.060 A 
HETATM   37  C   UNL     1       8.287  20.338  52.839  1.00  0.00     0.048 C 
HETATM   38  C   UNL     1       8.690  21.164  55.169  1.00  0.00     0.007 A 
HETATM   39  C   UNL     1       8.611  22.155  56.142  1.00  0.00     0.009 A 
HETATM   40  C   UNL     1       7.999  23.393  55.870  1.00  0.00    -0.035 A 
HETATM   41  C   UNL     1       8.046  24.427  56.965  1.00  0.00     0.050 C 
ENDBRANCH  30  34
ENDBRANCH  26  27
ENDBRANCH  25  26
ENDBRANCH  24  25
ENDBRANCH   1  24
TORSDOF 7
ENDMDL
MODEL 7
REMARK VINA RESULT:      -9.7      8.324     12.336
REMARK  7 active torsions:
REMARK  status: ('A' for Active; 'I' for Inactive)
REMARK    1  A    between atoms: C_4  and  N_5 
REMARK    2  A    between atoms: N_8  and  C_10 
REMARK    3  A    between atoms: C_10  and  C_11 
REMARK    4  A    between atoms: C_11  and  C_12 
REMARK    5  A    between atoms: C_12  and  N_13 
REMARK       I    between atoms: N_13  and  C_14 
REMARK    6  A    between atoms: C_14  and  C_15 
REMARK    7  A    between atoms: C_21  and  C_22 
ROOT
HETATM    1  N   UNL     1       4.378  31.430  54.326  1.00  0.00    -0.357 N 
HETATM    2  C   UNL     1       4.097  30.543  55.346  1.00  0.00     0.251 C 
HETATM    3  O   UNL     1       3.276  30.822  56.220  1.00  0.00    -0.268 OA
HETATM    4  H   UNL     1       4.982  31.159  53.559  1.00  0.00     0.162 HD
ENDROOT
BRANCH   2   5
HETATM    5  C   UNL     1       4.718  29.188  55.269  1.00  0.00     0.034 A 
HETATM    6  C   UNL     1       5.214  28.639  54.080  1.00  0.00     0.048 A 
HETATM    7  C   UNL     1       5.700  27.322  54.052  1.00  0.00     0.053 A 
HETATM    8  C   UNL     1       5.708  26.548  55.211  1.00  0.00     0.032 A 
HETATM    9  N   UNL     1       6.150  26.821  52.830  1.00  0.00    -0.321 N 
HETATM   10  S   UNL     1       6.235  24.864  55.255  1.00  0.00    -0.083 SA
HETATM   11  C   UNL     1       5.246  27.114  56.406  1.00  0.00     0.022 A 
HETATM   12  C   UNL     1       6.917  24.617  53.689  1.00  0.00     0.074 C 
HETATM   13  C   UNL     1       7.642  23.522  53.380  1.00  0.00     0.036 C 
HETATM   14  C   UNL     1       6.704  25.600  52.578  1.00  0.00     0.263 C 
HETATM   15  O   UNL     1       7.034  25.356  51.416  1.00  0.00    -0.267 OA
HETATM   16  C   UNL     1       4.758  28.423  56.439  1.00  0.00     0.018 A 
HETATM   17  H   UNL     1       6.104  27.398  52.000  1.00  0.00     0.169 HD
BRANCH  13  18
HETATM   18  C   UNL     1       7.984  22.429  54.296  1.00  0.00    -0.035 A 
HETATM   19  C   UNL     1       8.135  21.127  53.808  1.00  0.00     0.011 A 
HETATM   20  C   UNL     1       8.446  20.083  54.681  1.00  0.00     0.001 A 
HETATM   21  C   UNL     1       8.609  20.335  56.042  1.00  0.00     0.000 A 
HETATM   22  C   UNL     1       8.466  21.633  56.533  1.00  0.00     0.001 A 
HETATM   23  C   UNL     1       8.156  22.678  55.662  1.00  0.00     0.011 A 
ENDBRANCH  13  18
ENDBRANCH   2   5
BRANCH   1  24
HETATM   24  C   UNL     1       3.757  32.735  54.251  1.00  0.00     0.124 C 
BRANCH  24  25
HETATM   25  C   UNL     1       3.912  33.383  52.876  1.00  0.00     0.047 C 
BRANCH  25  26
HETATM   26  C   UNL     1       4.610  32.546  51.802  1.00  0.00     0.236 C 
BRANCH  26  27
HETATM   27  N   UNL     1       3.662  31.899  50.821  1.00  0.00    -0.068 N 
HETATM   28  C   UNL     1       4.307  31.640  49.460  1.00  0.00     0.254 C 
HETATM   29  C   UNL     1       3.419  30.797  48.520  1.00  0.00     0.150 C 
HETATM   30  N   UNL     1       2.992  29.579  49.221  1.00  0.00    -0.377 N 
HETATM   31  C   UNL     1       2.171  29.874  50.409  1.00  0.00     0.150 C 
HETATM   32  C   UNL     1       3.057  30.620  51.428  1.00  0.00     0.254 C 
HETATM   33  H   UNL     1       2.842  32.532  50.720  1.00  0.00     0.280 HD
BRANCH  30  34
HETATM   34  C   UNL     1       2.630  28.450  48.476  1.00  0.00     0.036 A 
HETATM   35  C   UNL     1       1.501  28.452  47.634  1.00  0.00     0.036 A 
HETATM   36  C   UNL     1       1.151  27.345  46.843  1.00  0.00    -0.060 A 
HETATM   37  C   UNL     1      -0.013  27.405  45.898  1.00  0.00     0.048 C 
HETATM   38  C   UNL     1       1.939  26.197  46.899  1.00  0.00     0.007 A 
HETATM   39  C   UNL     1       3.059  26.163  47.722  1.00  0.00     0.009 A 
HETATM   40  C   UNL     1       3.432  27.283  48.490  1.00  0.00    -0.035 A 
HETATM   41  C   UNL     1       4.710  27.167  49.279  1.00  0.00     0.050 C 
ENDBRANCH  30  34
ENDBRANCH  26  27
ENDBRANCH  25  26
ENDBRANCH  24  25
ENDBRANCH   1  24
TORSDOF 7
ENDMDL
MODEL 8
REMARK VINA RESULT:      -9.6      8.102     11.679
REMARK  7 active torsions:
REMARK  status: ('A' for Active; 'I' for Inactive)
REMARK    1  A    between atoms: C_4  and  N_5 
REMARK    2  A    between atoms: N_8  and  C_10 
REMARK    3  A    between atoms: C_10  and  C_11 
REMARK    4  A    between atoms: C_11  and  C_12 
REMARK    5  A    between atoms: C_12  and  N_13 
REMARK       I    between atoms: N_13  and  C_14 
REMARK    6  A    between atoms: C_14  and  C_15 
REMARK    7  A    between atoms: C_21  and  C_22 
ROOT
HETATM    1  N   UNL     1       2.816  31.481  54.340  1.00  0.00    -0.357 N 
HETATM    2  C   UNL     1       3.193  30.841  55.504  1.00  0.00     0.251 C 
HETATM    3  O   UNL     1       2.836  31.265  56.604  1.00  0.00    -0.268 OA
HETATM    4  H   UNL     1       3.033  31.078  53.436  1.00  0.00     0.162 HD
ENDROOT
BRANCH   2   5
HETATM    5  C   UNL     1       3.927  29.549  55.371  1.00  0.00     0.034 A 
HETATM    6  C   UNL     1       4.773  29.042  56.366  1.00  0.00     0.048 A 
HETATM    7  C   UNL     1       5.512  27.869  56.143  1.00  0.00     0.053 A 
HETATM    8  C   UNL     1       5.401  27.185  54.934  1.00  0.00     0.032 A 
HETATM    9  N   UNL     1       6.362  27.433  57.159  1.00  0.00    -0.321 N 
HETATM   10  S   UNL     1       6.340  25.743  54.541  1.00  0.00    -0.083 SA
HETATM   11  C   UNL     1       4.525  27.674  53.957  1.00  0.00     0.022 A 
HETATM   12  C   UNL     1       7.106  25.344  56.035  1.00  0.00     0.074 C 
HETATM   13  C   UNL     1       7.744  24.172  56.231  1.00  0.00     0.036 C 
HETATM   14  C   UNL     1       7.129  26.305  57.184  1.00  0.00     0.263 C 
HETATM   15  O   UNL     1       7.816  26.108  58.188  1.00  0.00    -0.267 OA
HETATM   16  C   UNL     1       3.791  28.843  54.171  1.00  0.00     0.018 A 
HETATM   17  H   UNL     1       6.442  27.968  58.015  1.00  0.00     0.169 HD
BRANCH  13  18
HETATM   18  C   UNL     1       7.853  23.077  55.259  1.00  0.00    -0.035 A 
HETATM   19  C   UNL     1       8.154  23.355  53.922  1.00  0.00     0.011 A 
HETATM   20  C   UNL     1       8.243  22.317  52.994  1.00  0.00     0.001 A 
HETATM   21  C   UNL     1       8.034  20.999  53.397  1.00  0.00     0.000 A 
HETATM   22  C   UNL     1       7.740  20.716  54.731  1.00  0.00     0.001 A 
HETATM   23  C   UNL     1       7.650  21.753  55.661  1.00  0.00     0.011 A 
ENDBRANCH  13  18
ENDBRANCH   2   5
BRANCH   1  24
HETATM   24  C   UNL     1       2.020  32.690  54.352  1.00  0.00     0.124 C 
BRANCH  24  25
HETATM   25  C   UNL     1       2.409  33.662  53.238  1.00  0.00     0.047 C 
BRANCH  25  26
HETATM   26  C   UNL     1       1.509  33.677  52.001  1.00  0.00     0.236 C 
BRANCH  26  27
HETATM   27  N   UNL     1       2.062  32.894  50.835  1.00  0.00    -0.068 N 
HETATM   28  C   UNL     1       3.564  32.639  50.954  1.00  0.00     0.254 C 
HETATM   29  C   UNL     1       4.100  31.668  49.880  1.00  0.00     0.150 C 
HETATM   30  N   UNL     1       3.284  30.447  49.880  1.00  0.00    -0.377 N 
HETATM   31  C   UNL     1       1.877  30.712  49.532  1.00  0.00     0.150 C 
HETATM   32  C   UNL     1       1.266  31.590  50.644  1.00  0.00     0.254 C 
HETATM   33  H   UNL     1       1.853  33.436  49.971  1.00  0.00     0.280 HD
BRANCH  30  34
HETATM   34  C   UNL     1       3.834  29.254  49.396  1.00  0.00     0.036 A 
HETATM   35  C   UNL     1       4.209  28.209  50.263  1.00  0.00     0.036 A 
HETATM   36  C   UNL     1       4.718  26.987  49.792  1.00  0.00    -0.060 A 
HETATM   37  C   UNL     1       5.035  25.865  50.736  1.00  0.00     0.048 C 
HETATM   38  C   UNL     1       4.868  26.801  48.419  1.00  0.00     0.007 A 
HETATM   39  C   UNL     1       4.510  27.815  47.537  1.00  0.00     0.009 A 
HETATM   40  C   UNL     1       3.967  29.027  48.005  1.00  0.00    -0.035 A 
HETATM   41  C   UNL     1       3.532  30.021  46.960  1.00  0.00     0.050 C 
ENDBRANCH  30  34
ENDBRANCH  26  27
ENDBRANCH  25  26
ENDBRANCH  24  25
ENDBRANCH   1  24
TORSDOF 7
ENDMDL
MODEL 9
REMARK VINA RESULT:      -9.5      7.601     11.702
REMARK  7 active torsions:
REMARK  status: ('A' for Active; 'I' for Inactive)
REMARK    1  A    between atoms: C_4  and  N_5 
REMARK    2  A    between atoms: N_8  and  C_10 
REMARK    3  A    between atoms: C_10  and  C_11 
REMARK    4  A    between atoms: C_11  and  C_12 
REMARK    5  A    between atoms: C_12  and  N_13 
REMARK       I    between atoms: N_13  and  C_14 
REMARK    6  A    between atoms: C_14  and  C_15 
REMARK    7  A    between atoms: C_21  and  C_22 
ROOT
HETATM    1  N   UNL     1       4.508  31.606  56.113  1.00  0.00    -0.357 N 
HETATM    2  C   UNL     1       3.870  30.464  56.555  1.00  0.00     0.251 C 
HETATM    3  O   UNL     1       2.750  30.520  57.064  1.00  0.00    -0.268 OA
HETATM    4  H   UNL     1       5.385  31.545  55.610  1.00  0.00     0.162 HD
ENDROOT
BRANCH   2   5
HETATM    5  C   UNL     1       4.526  29.155  56.266  1.00  0.00     0.034 A 
HETATM    6  C   UNL     1       5.486  28.578  57.107  1.00  0.00     0.048 A 
HETATM    7  C   UNL     1       6.138  27.391  56.733  1.00  0.00     0.053 A 
HETATM    8  C   UNL     1       5.828  26.765  55.528  1.00  0.00     0.032 A 
HETATM    9  N   UNL     1       7.109  26.883  57.597  1.00  0.00    -0.321 N 
HETATM   10  S   UNL     1       6.644  25.311  54.946  1.00  0.00    -0.083 SA
HETATM   11  C   UNL     1       4.840  27.325  54.708  1.00  0.00     0.022 A 
HETATM   12  C   UNL     1       7.600  24.822  56.297  1.00  0.00     0.074 C 
HETATM   13  C   UNL     1       8.214  23.622  56.352  1.00  0.00     0.036 C 
HETATM   14  C   UNL     1       7.827  25.731  57.466  1.00  0.00     0.263 C 
HETATM   15  O   UNL     1       8.643  25.467  58.351  1.00  0.00    -0.267 OA
HETATM   16  C   UNL     1       4.191  28.507  55.073  1.00  0.00     0.018 A 
HETATM   17  H   UNL     1       7.333  27.378  58.452  1.00  0.00     0.169 HD
BRANCH  13  18
HETATM   18  C   UNL     1       8.139  22.568  55.334  1.00  0.00    -0.035 A 
HETATM   19  C   UNL     1       7.908  21.242  55.714  1.00  0.00     0.011 A 
HETATM   20  C   UNL     1       7.852  20.236  54.748  1.00  0.00     0.001 A 
HETATM   21  C   UNL     1       8.023  20.551  53.400  1.00  0.00     0.000 A 
HETATM   22  C   UNL     1       8.246  21.873  53.016  1.00  0.00     0.001 A 
HETATM   23  C   UNL     1       8.303  22.880  53.980  1.00  0.00     0.011 A 
ENDBRANCH  13  18
ENDBRANCH   2   5
BRANCH   1  24
HETATM   24  C   UNL     1       3.916  32.919  56.255  1.00  0.00     0.124 C 
BRANCH  24  25
HETATM   25  C   UNL     1       3.138  33.352  55.013  1.00  0.00     0.047 C 
BRANCH  25  26
HETATM   26  C   UNL     1       3.803  33.082  53.662  1.00  0.00     0.236 C 
BRANCH  26  27
HETATM   27  N   UNL     1       3.051  32.100  52.797  1.00  0.00    -0.068 N 
HETATM   28  C   UNL     1       2.892  32.584  51.356  1.00  0.00     0.254 C 
HETATM   29  C   UNL     1       2.311  31.505  50.416  1.00  0.00     0.150 C 
HETATM   30  N   UNL     1       3.098  30.272  50.550  1.00  0.00    -0.377 N 
HETATM   31  C   UNL     1       3.034  29.711  51.911  1.00  0.00     0.150 C 
HETATM   32  C   UNL     1       3.710  30.711  52.872  1.00  0.00     0.254 C 
HETATM   33  H   UNL     1       2.119  31.952  53.235  1.00  0.00     0.280 HD
BRANCH  30  34
HETATM   34  C   UNL     1       3.115  29.352  49.495  1.00  0.00     0.036 A 
HETATM   35  C   UNL     1       1.927  28.806  48.972  1.00  0.00     0.036 A 
HETATM   36  C   UNL     1       1.922  27.919  47.883  1.00  0.00    -0.060 A 
HETATM   37  C   UNL     1       0.635  27.414  47.300  1.00  0.00     0.048 C 
HETATM   38  C   UNL     1       3.135  27.555  47.301  1.00  0.00     0.007 A 
HETATM   39  C   UNL     1       4.326  28.075  47.796  1.00  0.00     0.009 A 
HETATM   40  C   UNL     1       4.331  28.991  48.865  1.00  0.00    -0.035 A 
HETATM   41  C   UNL     1       5.668  29.559  49.264  1.00  0.00     0.050 C 
ENDBRANCH  30  34
ENDBRANCH  26  27
ENDBRANCH  25  26
ENDBRANCH  24  25
ENDBRANCH   1  24
TORSDOF 7
ENDMDL
MODEL 10
REMARK VINA RESULT:      -9.5      7.384     13.168
REMARK  7 active torsions:
REMARK  status: ('A' for Active; 'I' for Inactive)
REMARK    1  A    between atoms: C_4  and  N_5 
REMARK    2  A    between atoms: N_8  and  C_10 
REMARK    3  A    between atoms: C_10  and  C_11 
REMARK    4  A    between atoms: C_11  and  C_12 
REMARK    5  A    between atoms: C_12  and  N_13 
REMARK       I    between atoms: N_13  and  C_14 
REMARK    6  A    between atoms: C_14  and  C_15 
REMARK    7  A    between atoms: C_21  and  C_22 
ROOT
HETATM    1  N   UNL     1       4.735  30.741  55.601  1.00  0.00    -0.357 N 
HETATM    2  C   UNL     1       4.415  31.714  54.674  1.00  0.00     0.251 C 
HETATM    3  O   UNL     1       4.725  32.891  54.858  1.00  0.00    -0.268 OA
HETATM    4  H   UNL     1       4.562  29.763  55.403  1.00  0.00     0.162 HD
ENDROOT
BRANCH   2   5
HETATM    5  C   UNL     1       3.808  31.262  53.388  1.00  0.00     0.034 A 
HETATM    6  C   UNL     1       4.219  30.108  52.709  1.00  0.00     0.048 A 
HETATM    7  C   UNL     1       3.675  29.788  51.455  1.00  0.00     0.053 A 
HETATM    8  C   UNL     1       2.708  30.607  50.875  1.00  0.00     0.032 A 
HETATM    9  N   UNL     1       4.150  28.644  50.813  1.00  0.00    -0.321 N 
HETATM   10  S   UNL     1       2.020  30.320  49.275  1.00  0.00    -0.083 SA
HETATM   11  C   UNL     1       2.272  31.739  51.574  1.00  0.00     0.022 A 
HETATM   12  C   UNL     1       2.627  28.761  48.852  1.00  0.00     0.074 C 
HETATM   13  C   UNL     1       2.161  28.066  47.794  1.00  0.00     0.036 C 
HETATM   14  C   UNL     1       3.737  28.116  49.625  1.00  0.00     0.263 C 
HETATM   15  O   UNL     1       4.296  27.090  49.235  1.00  0.00    -0.267 OA
HETATM   16  C   UNL     1       2.812  32.065  52.821  1.00  0.00     0.018 A 
HETATM   17  H   UNL     1       4.875  28.085  51.247  1.00  0.00     0.169 HD
BRANCH  13  18
HETATM   18  C   UNL     1       1.082  28.488  46.894  1.00  0.00    -0.035 A 
HETATM   19  C   UNL     1       1.103  29.766  46.328  1.00  0.00     0.011 A 
HETATM   20  C   UNL     1       0.069  30.175  45.482  1.00  0.00     0.001 A 
HETATM   21  C   UNL     1      -0.986  29.308  45.199  1.00  0.00     0.000 A 
HETATM   22  C   UNL     1      -1.007  28.030  45.756  1.00  0.00     0.001 A 
HETATM   23  C   UNL     1       0.025  27.619  46.601  1.00  0.00     0.011 A 
ENDBRANCH  13  18
ENDBRANCH   2   5
BRANCH   1  24
HETATM   24  C   UNL     1       5.413  31.057  56.841  1.00  0.00     0.124 C 
BRANCH  24  25
HETATM   25  C   UNL     1       5.718  29.815  57.678  1.00  0.00     0.047 C 
BRANCH  25  26
HETATM   26  C   UNL     1       7.030  29.091  57.372  1.00  0.00     0.236 C 
BRANCH  26  27
HETATM   27  N   UNL     1       6.892  27.590  57.278  1.00  0.00    -0.068 N 
HETATM   28  C   UNL     1       5.961  27.153  56.148  1.00  0.00     0.254 C 
HETATM   29  C   UNL     1       5.973  25.627  55.911  1.00  0.00     0.150 C 
HETATM   30  N   UNL     1       7.361  25.173  55.752  1.00  0.00    -0.377 N 
HETATM   31  C   UNL     1       8.170  25.409  56.961  1.00  0.00     0.150 C 
HETATM   32  C   UNL     1       8.281  26.933  57.172  1.00  0.00     0.254 C 
HETATM   33  H   UNL     1       6.533  27.255  58.196  1.00  0.00     0.280 HD
BRANCH  30  34
HETATM   34  C   UNL     1       7.620  23.991  55.047  1.00  0.00     0.036 A 
HETATM   35  C   UNL     1       7.651  22.739  55.692  1.00  0.00     0.036 A 
HETATM   36  C   UNL     1       7.861  21.539  54.994  1.00  0.00    -0.060 A 
HETATM   37  C   UNL     1       7.812  20.214  55.698  1.00  0.00     0.048 C 
HETATM   38  C   UNL     1       8.057  21.584  53.615  1.00  0.00     0.007 A 
HETATM   39  C   UNL     1       8.035  22.804  52.949  1.00  0.00     0.009 A 
HETATM   40  C   UNL     1       7.790  24.005  53.642  1.00  0.00    -0.035 A 
HETATM   41  C   UNL     1       7.700  25.259  52.811  1.00  0.00     0.050 C 
ENDBRANCH  30  34
ENDBRANCH  26  27
ENDBRANCH  25  26
ENDBRANCH  24  25
ENDBRANCH   1  24
TORSDOF 7
ENDMDL
