MODEL 1
REMARK VINA RESULT:      -8.1      0.000      0.000
REMARK  2 active torsions:
REMARK  status: ('A' for Active; 'I' for Inactive)
REMARK    1  A    between atoms: C_8  and  S_9 
REMARK    2  A    between atoms: S_9  and  C_10 
ROOT
HETATM    1  C   UNL     1       8.357  20.045  55.446  1.00  0.00     0.002 A 
HETATM    2  C   UNL     1       7.786  21.234  55.899  1.00  0.00     0.034 A 
HETATM    3  C   UNL     1       7.642  22.333  55.060  1.00  0.00     0.087 A 
HETATM    4  C   UNL     1       8.082  22.230  53.714  1.00  0.00     0.087 A 
HETATM    5  N   UNL     1       7.951  23.258  52.855  1.00  0.00    -0.232 NA
HETATM    6  C   UNL     1       7.371  24.380  53.330  1.00  0.00     0.164 A 
HETATM    7 CL   UNL     1       7.201  25.616  52.155  1.00  0.00    -0.059 Cl
HETATM    8  C   UNL     1       6.952  24.486  54.647  1.00  0.00     0.165 A 
HETATM    9  N   UNL     1       7.090  23.472  55.536  1.00  0.00    -0.234 NA
HETATM   10  C   UNL     1       8.654  21.043  53.276  1.00  0.00     0.034 A 
HETATM   11  C   UNL     1       8.796  19.950  54.131  1.00  0.00     0.002 A 
ENDROOT
BRANCH   8  12
HETATM   12  S   UNL     1       6.161  25.944  55.337  1.00  0.00     0.078 S 
HETATM   13  O   UNL     1       5.418  26.585  54.194  1.00  0.00    -0.251 OA
BRANCH  12  14
HETATM   14  C   UNL     1       7.611  27.042  55.646  1.00  0.00     0.112 C 
HETATM   15  C   UNL     1       7.587  28.231  54.676  1.00  0.00     0.250 C 
HETATM   16  N   UNL     1       6.437  29.144  54.999  1.00  0.00    -0.074 N 
HETATM   17  H   UNL     1       5.560  28.587  54.894  1.00  0.00     0.277 HD
HETATM   18  H   UNL     1       6.364  29.894  54.301  1.00  0.00     0.277 HD
HETATM   19  C   UNL     1       6.476  29.710  56.374  1.00  0.00     0.232 C 
HETATM   20  C   UNL     1       6.491  28.576  57.388  1.00  0.00     0.029 C 
HETATM   21  C   UNL     1       7.584  27.541  57.102  1.00  0.00     0.021 C 
ENDBRANCH  12  14
ENDBRANCH   8  12
TORSDOF 2
ENDMDL
MODEL 2
REMARK VINA RESULT:      -8.0      2.560      3.223
REMARK  2 active torsions:
REMARK  status: ('A' for Active; 'I' for Inactive)
REMARK    1  A    between atoms: C_8  and  S_9 
REMARK    2  A    between atoms: S_9  and  C_10 
ROOT
HETATM    1  C   UNL     1       8.378  20.365  53.477  1.00  0.00     0.002 A 
HETATM    2  C   UNL     1       7.829  21.635  53.294  1.00  0.00     0.034 A 
HETATM    3  C   UNL     1       7.810  22.569  54.322  1.00  0.00     0.087 A 
HETATM    4  C   UNL     1       8.370  22.218  55.579  1.00  0.00     0.087 A 
HETATM    5  N   UNL     1       8.393  23.091  56.603  1.00  0.00    -0.232 NA
HETATM    6  C   UNL     1       7.874  24.315  56.373  1.00  0.00     0.164 A 
HETATM    7 CL   UNL     1       7.991  25.374  57.716  1.00  0.00    -0.059 Cl
HETATM    8  C   UNL     1       7.316  24.656  55.151  1.00  0.00     0.165 A 
HETATM    9  N   UNL     1       7.264  23.788  54.110  1.00  0.00    -0.234 NA
HETATM   10  C   UNL     1       8.908  20.949  55.750  1.00  0.00     0.034 A 
HETATM   11  C   UNL     1       8.916  20.020  54.710  1.00  0.00     0.002 A 
ENDROOT
BRANCH   8  12
HETATM   12  S   UNL     1       6.623  26.269  54.776  1.00  0.00     0.078 S 
HETATM   13  O   UNL     1       5.375  26.383  55.613  1.00  0.00    -0.251 OA
BRANCH  12  14
HETATM   14  C   UNL     1       6.023  26.024  53.049  1.00  0.00     0.112 C 
HETATM   15  C   UNL     1       4.504  25.810  53.043  1.00  0.00     0.250 C 
HETATM   16  N   UNL     1       3.798  27.078  53.436  1.00  0.00    -0.074 N 
HETATM   17  H   UNL     1       4.115  27.324  54.400  1.00  0.00     0.277 HD
HETATM   18  H   UNL     1       2.786  26.918  53.518  1.00  0.00     0.277 HD
HETATM   19  C   UNL     1       4.073  28.232  52.538  1.00  0.00     0.232 C 
HETATM   20  C   UNL     1       5.570  28.503  52.507  1.00  0.00     0.029 C 
HETATM   21  C   UNL     1       6.392  27.249  52.192  1.00  0.00     0.021 C 
ENDBRANCH  12  14
ENDBRANCH   8  12
TORSDOF 2
ENDMDL
MODEL 3
REMARK VINA RESULT:      -7.9      1.694      2.161
REMARK  2 active torsions:
REMARK  status: ('A' for Active; 'I' for Inactive)
REMARK    1  A    between atoms: C_8  and  S_9 
REMARK    2  A    between atoms: S_9  and  C_10 
ROOT
HETATM    1  C   UNL     1       8.148  20.715  52.942  1.00  0.00     0.002 A 
HETATM    2  C   UNL     1       7.479  21.922  53.146  1.00  0.00     0.034 A 
HETATM    3  C   UNL     1       7.624  22.638  54.329  1.00  0.00     0.087 A 
HETATM    4  C   UNL     1       8.478  22.125  55.341  1.00  0.00     0.087 A 
HETATM    5  N   UNL     1       8.667  22.786  56.498  1.00  0.00    -0.232 NA
HETATM    6  C   UNL     1       8.020  23.961  56.641  1.00  0.00     0.164 A 
HETATM    7 CL   UNL     1       8.358  24.755  58.123  1.00  0.00    -0.059 Cl
HETATM    8  C   UNL     1       7.176  24.457  55.660  1.00  0.00     0.165 A 
HETATM    9  N   UNL     1       6.955  23.801  54.494  1.00  0.00    -0.234 NA
HETATM   10  C   UNL     1       9.134  20.920  55.127  1.00  0.00     0.034 A 
HETATM   11  C   UNL     1       8.975  20.210  53.937  1.00  0.00     0.002 A 
ENDROOT
BRANCH   8  12
HETATM   12  S   UNL     1       6.298  26.019  55.783  1.00  0.00     0.078 S 
HETATM   13  O   UNL     1       5.580  26.190  54.470  1.00  0.00    -0.251 OA
BRANCH  12  14
HETATM   14  C   UNL     1       7.688  27.232  55.733  1.00  0.00     0.112 C 
HETATM   15  C   UNL     1       7.453  28.256  54.616  1.00  0.00     0.250 C 
HETATM   16  N   UNL     1       6.286  29.141  54.957  1.00  0.00    -0.074 N 
HETATM   17  H   UNL     1       5.447  28.526  55.052  1.00  0.00     0.277 HD
HETATM   18  H   UNL     1       6.070  29.772  54.176  1.00  0.00     0.277 HD
HETATM   19  C   UNL     1       6.454  29.911  56.219  1.00  0.00     0.232 C 
HETATM   20  C   UNL     1       6.682  28.946  57.373  1.00  0.00     0.029 C 
HETATM   21  C   UNL     1       7.806  27.943  57.093  1.00  0.00     0.021 C 
ENDBRANCH  12  14
ENDBRANCH   8  12
TORSDOF 2
ENDMDL
MODEL 4
REMARK VINA RESULT:      -7.5      2.290      2.965
REMARK  2 active torsions:
REMARK  status: ('A' for Active; 'I' for Inactive)
REMARK    1  A    between atoms: C_8  and  S_9 
REMARK    2  A    between atoms: S_9  and  C_10 
ROOT
HETATM    1  C   UNL     1       7.941  21.528  53.085  1.00  0.00     0.002 A 
HETATM    2  C   UNL     1       7.728  22.903  52.974  1.00  0.00     0.034 A 
HETATM    3  C   UNL     1       7.613  23.709  54.100  1.00  0.00     0.087 A 
HETATM    4  C   UNL     1       7.723  23.114  55.385  1.00  0.00     0.087 A 
HETATM    5  N   UNL     1       7.636  23.852  56.507  1.00  0.00    -0.232 NA
HETATM    6  C   UNL     1       7.455  25.180  56.351  1.00  0.00     0.164 A 
HETATM    7 CL   UNL     1       7.405  26.045  57.831  1.00  0.00    -0.059 Cl
HETATM    8  C   UNL     1       7.334  25.761  55.099  1.00  0.00     0.165 A 
HETATM    9  N   UNL     1       7.400  25.037  53.954  1.00  0.00    -0.234 NA
HETATM   10  C   UNL     1       7.929  21.745  55.482  1.00  0.00     0.034 A 
HETATM   11  C   UNL     1       8.038  20.947  54.343  1.00  0.00     0.002 A 
ENDROOT
BRANCH   8  12
HETATM   12  S   UNL     1       7.107  27.521  54.823  1.00  0.00     0.078 S 
HETATM   13  O   UNL     1       8.153  28.206  55.663  1.00  0.00    -0.251 OA
BRANCH  12  14
HETATM   14  C   UNL     1       5.511  27.830  55.695  1.00  0.00     0.112 C 
HETATM   15  C   UNL     1       5.648  29.037  56.633  1.00  0.00     0.250 C 
HETATM   16  N   UNL     1       5.811  30.301  55.835  1.00  0.00    -0.074 N 
HETATM   17  H   UNL     1       6.680  30.198  55.265  1.00  0.00     0.277 HD
HETATM   18  H   UNL     1       5.990  31.100  56.456  1.00  0.00     0.277 HD
HETATM   19  C   UNL     1       4.676  30.594  54.919  1.00  0.00     0.232 C 
HETATM   20  C   UNL     1       4.493  29.433  53.953  1.00  0.00     0.029 C 
HETATM   21  C   UNL     1       4.395  28.080  54.664  1.00  0.00     0.021 C 
ENDBRANCH  12  14
ENDBRANCH   8  12
TORSDOF 2
ENDMDL
MODEL 5
REMARK VINA RESULT:      -7.4      2.156      6.524
REMARK  2 active torsions:
REMARK  status: ('A' for Active; 'I' for Inactive)
REMARK    1  A    between atoms: C_8  and  S_9 
REMARK    2  A    between atoms: S_9  and  C_10 
ROOT
HETATM    1  C   UNL     1       7.751  29.201  57.591  1.00  0.00     0.002 A 
HETATM    2  C   UNL     1       7.932  27.818  57.541  1.00  0.00     0.034 A 
HETATM    3  C   UNL     1       7.277  27.037  56.597  1.00  0.00     0.087 A 
HETATM    4  C   UNL     1       6.415  27.670  55.663  1.00  0.00     0.087 A 
HETATM    5  N   UNL     1       5.770  26.962  54.716  1.00  0.00    -0.232 NA
HETATM    6  C   UNL     1       5.993  25.632  54.691  1.00  0.00     0.164 A 
HETATM    7 CL   UNL     1       5.170  24.821  53.424  1.00  0.00    -0.059 Cl
HETATM    8  C   UNL     1       6.825  25.011  55.609  1.00  0.00     0.165 A 
HETATM    9  N   UNL     1       7.472  25.700  56.583  1.00  0.00    -0.234 NA
HETATM   10  C   UNL     1       6.239  29.045  55.726  1.00  0.00     0.034 A 
HETATM   11  C   UNL     1       6.900  29.816  56.682  1.00  0.00     0.002 A 
ENDROOT
BRANCH   8  12
HETATM   12  S   UNL     1       7.176  23.250  55.620  1.00  0.00     0.078 S 
HETATM   13  O   UNL     1       7.811  22.968  56.957  1.00  0.00    -0.251 OA
BRANCH  12  14
HETATM   14  C   UNL     1       8.554  23.138  54.399  1.00  0.00     0.112 C 
HETATM   15  C   UNL     1       9.653  22.207  54.928  1.00  0.00     0.250 C 
HETATM   16  N   UNL     1       9.160  20.787  54.964  1.00  0.00    -0.074 N 
HETATM   17  H   UNL     1       8.337  20.761  55.607  1.00  0.00     0.277 HD
HETATM   18  H   UNL     1       9.859  20.172  55.398  1.00  0.00     0.277 HD
HETATM   19  C   UNL     1       8.743  20.253  53.640  1.00  0.00     0.232 C 
HETATM   20  C   UNL     1       7.643  21.131  53.063  1.00  0.00     0.029 C 
HETATM   21  C   UNL     1       8.016  22.618  53.054  1.00  0.00     0.021 C 
ENDBRANCH  12  14
ENDBRANCH   8  12
TORSDOF 2
ENDMDL
MODEL 6
REMARK VINA RESULT:      -7.4      4.041      8.411
REMARK  2 active torsions:
REMARK  status: ('A' for Active; 'I' for Inactive)
REMARK    1  A    between atoms: C_8  and  S_9 
REMARK    2  A    between atoms: S_9  and  C_10 
ROOT
HETATM    1  C   UNL     1       8.807  31.859  62.217  1.00  0.00     0.002 A 
HETATM    2  C   UNL     1       9.105  30.854  61.296  1.00  0.00     0.034 A 
HETATM    3  C   UNL     1       8.354  30.689  60.138  1.00  0.00     0.087 A 
HETATM    4  C   UNL     1       7.268  31.570  59.893  1.00  0.00     0.087 A 
HETATM    5  N   UNL     1       6.520  31.465  58.779  1.00  0.00    -0.232 NA
HETATM    6  C   UNL     1       6.859  30.495  57.906  1.00  0.00     0.164 A 
HETATM    7 CL   UNL     1       5.883  30.467  56.496  1.00  0.00    -0.059 Cl
HETATM    8  C   UNL     1       7.911  29.626  58.149  1.00  0.00     0.165 A 
HETATM    9  N   UNL     1       8.668  29.700  59.272  1.00  0.00    -0.234 NA
HETATM   10  C   UNL     1       6.978  32.563  60.820  1.00  0.00     0.034 A 
HETATM   11  C   UNL     1       7.738  32.714  61.980  1.00  0.00     0.002 A 
ENDROOT
BRANCH   8  12
HETATM   12  S   UNL     1       8.423  28.325  57.022  1.00  0.00     0.078 S 
HETATM   13  O   UNL     1       8.361  28.930  55.643  1.00  0.00    -0.251 OA
BRANCH  12  14
HETATM   14  C   UNL     1       6.984  27.173  57.106  1.00  0.00     0.112 C 
HETATM   15  C   UNL     1       6.421  26.929  55.700  1.00  0.00     0.250 C 
HETATM   16  N   UNL     1       7.399  26.137  54.877  1.00  0.00    -0.074 N 
HETATM   17  H   UNL     1       8.277  26.700  54.812  1.00  0.00     0.277 HD
HETATM   18  H   UNL     1       7.067  26.045  53.910  1.00  0.00     0.277 HD
HETATM   19  C   UNL     1       7.734  24.804  55.444  1.00  0.00     0.232 C 
HETATM   20  C   UNL     1       8.310  24.978  56.842  1.00  0.00     0.029 C 
HETATM   21  C   UNL     1       7.422  25.842  57.744  1.00  0.00     0.021 C 
ENDBRANCH  12  14
ENDBRANCH   8  12
TORSDOF 2
ENDMDL
MODEL 7
REMARK VINA RESULT:      -7.2      4.204      8.337
REMARK  2 active torsions:
REMARK  status: ('A' for Active; 'I' for Inactive)
REMARK    1  A    between atoms: C_8  and  S_9 
REMARK    2  A    between atoms: S_9  and  C_10 
ROOT
HETATM    1  C   UNL     1       7.433  32.385  61.811  1.00  0.00     0.002 A 
HETATM    2  C   UNL     1       6.873  31.826  60.662  1.00  0.00     0.034 A 
HETATM    3  C   UNL     1       7.665  31.225  59.690  1.00  0.00     0.087 A 
HETATM    4  C   UNL     1       9.071  31.178  59.885  1.00  0.00     0.087 A 
HETATM    5  N   UNL     1       9.882  30.592  58.984  1.00  0.00    -0.232 NA
HETATM    6  C   UNL     1       9.295  30.044  57.900  1.00  0.00     0.164 A 
HETATM    7 CL   UNL     1      10.398  29.280  56.833  1.00  0.00    -0.059 Cl
HETATM    8  C   UNL     1       7.924  30.101  57.702  1.00  0.00     0.165 A 
HETATM    9  N   UNL     1       7.088  30.701  58.586  1.00  0.00    -0.234 NA
HETATM   10  C   UNL     1       9.617  31.741  61.030  1.00  0.00     0.034 A 
HETATM   11  C   UNL     1       8.809  32.345  61.994  1.00  0.00     0.002 A 
ENDROOT
BRANCH   8  12
HETATM   12  S   UNL     1       7.080  29.380  56.291  1.00  0.00     0.078 S 
HETATM   13  O   UNL     1       5.774  30.122  56.171  1.00  0.00    -0.251 OA
BRANCH  12  14
HETATM   14  C   UNL     1       6.629  27.713  56.940  1.00  0.00     0.112 C 
HETATM   15  C   UNL     1       5.141  27.434  56.687  1.00  0.00     0.250 C 
HETATM   16  N   UNL     1       4.885  27.268  55.215  1.00  0.00    -0.074 N 
HETATM   17  H   UNL     1       5.159  28.163  54.750  1.00  0.00     0.277 HD
HETATM   18  H   UNL     1       3.879  27.168  55.032  1.00  0.00     0.277 HD
HETATM   19  C   UNL     1       5.645  26.156  54.585  1.00  0.00     0.232 C 
HETATM   20  C   UNL     1       7.136  26.379  54.794  1.00  0.00     0.029 C 
HETATM   21  C   UNL     1       7.496  26.638  56.260  1.00  0.00     0.021 C 
ENDBRANCH  12  14
ENDBRANCH   8  12
TORSDOF 2
ENDMDL
MODEL 8
REMARK VINA RESULT:      -7.1      3.593      6.524
REMARK  2 active torsions:
REMARK  status: ('A' for Active; 'I' for Inactive)
REMARK    1  A    between atoms: C_8  and  S_9 
REMARK    2  A    between atoms: S_9  and  C_10 
ROOT
HETATM    1  C   UNL     1       4.340  26.965  48.287  1.00  0.00     0.002 A 
HETATM    2  C   UNL     1       4.502  26.101  49.371  1.00  0.00     0.034 A 
HETATM    3  C   UNL     1       5.035  26.545  50.575  1.00  0.00     0.087 A 
HETATM    4  C   UNL     1       5.412  27.909  50.698  1.00  0.00     0.087 A 
HETATM    5  N   UNL     1       5.916  28.395  51.847  1.00  0.00    -0.232 NA
HETATM    6  C   UNL     1       6.032  27.530  52.876  1.00  0.00     0.164 A 
HETATM    7 CL   UNL     1       6.637  28.246  54.311  1.00  0.00    -0.059 Cl
HETATM    8  C   UNL     1       5.677  26.195  52.755  1.00  0.00     0.165 A 
HETATM    9  N   UNL     1       5.183  25.678  51.602  1.00  0.00    -0.234 NA
HETATM   10  C   UNL     1       5.250  28.757  49.610  1.00  0.00     0.034 A 
HETATM   11  C   UNL     1       4.718  28.296  48.406  1.00  0.00     0.002 A 
ENDROOT
BRANCH   8  12
HETATM   12  S   UNL     1       5.793  24.998  54.088  1.00  0.00     0.078 S 
HETATM   13  O   UNL     1       5.423  25.745  55.342  1.00  0.00    -0.251 OA
BRANCH  12  14
HETATM   14  C   UNL     1       7.617  24.742  54.200  1.00  0.00     0.112 C 
HETATM   15  C   UNL     1       7.968  24.017  55.506  1.00  0.00     0.250 C 
HETATM   16  N   UNL     1       7.462  22.601  55.467  1.00  0.00    -0.074 N 
HETATM   17  H   UNL     1       6.424  22.646  55.357  1.00  0.00     0.277 HD
HETATM   18  H   UNL     1       7.617  22.138  56.370  1.00  0.00     0.277 HD
HETATM   19  C   UNL     1       8.021  21.784  54.357  1.00  0.00     0.232 C 
HETATM   20  C   UNL     1       7.696  22.449  53.027  1.00  0.00     0.029 C 
HETATM   21  C   UNL     1       8.102  23.926  52.989  1.00  0.00     0.021 C 
ENDBRANCH  12  14
ENDBRANCH   8  12
TORSDOF 2
ENDMDL
MODEL 9
REMARK VINA RESULT:      -7.0      9.563     11.732
REMARK  2 active torsions:
REMARK  status: ('A' for Active; 'I' for Inactive)
REMARK    1  A    between atoms: C_8  and  S_9 
REMARK    2  A    between atoms: S_9  and  C_10 
ROOT
HETATM    1  C   UNL     1       8.567  31.302  58.727  1.00  0.00     0.002 A 
HETATM    2  C   UNL     1       7.353  31.678  59.303  1.00  0.00     0.034 A 
HETATM    3  C   UNL     1       7.270  32.045  60.641  1.00  0.00     0.087 A 
HETATM    4  C   UNL     1       8.452  32.041  61.428  1.00  0.00     0.087 A 
HETATM    5  N   UNL     1       8.431  32.404  62.724  1.00  0.00    -0.232 NA
HETATM    6  C   UNL     1       7.240  32.783  63.231  1.00  0.00     0.164 A 
HETATM    7 CL   UNL     1       7.317  33.274  64.872  1.00  0.00    -0.059 Cl
HETATM    8  C   UNL     1       6.083  32.776  62.468  1.00  0.00     0.165 A 
HETATM    9  N   UNL     1       6.075  32.397  61.166  1.00  0.00    -0.234 NA
HETATM   10  C   UNL     1       9.653  31.660  60.845  1.00  0.00     0.034 A 
HETATM   11  C   UNL     1       9.720  31.289  59.501  1.00  0.00     0.002 A 
ENDROOT
BRANCH   8  12
HETATM   12  S   UNL     1       4.471  33.282  63.078  1.00  0.00     0.078 S 
HETATM   13  O   UNL     1       3.486  32.307  62.490  1.00  0.00    -0.251 OA
BRANCH  12  14
HETATM   14  C   UNL     1       4.202  34.856  62.154  1.00  0.00     0.112 C 
HETATM   15  C   UNL     1       3.036  35.638  62.773  1.00  0.00     0.250 C 
HETATM   16  N   UNL     1       3.415  36.145  64.137  1.00  0.00    -0.074 N 
HETATM   17  H   UNL     1       3.633  35.312  64.728  1.00  0.00     0.277 HD
HETATM   18  H   UNL     1       2.611  36.594  64.592  1.00  0.00     0.277 HD
HETATM   19  C   UNL     1       4.594  37.052  64.144  1.00  0.00     0.232 C 
HETATM   20  C   UNL     1       5.792  36.328  63.548  1.00  0.00     0.029 C 
HETATM   21  C   UNL     1       5.487  35.702  62.183  1.00  0.00     0.021 C 
ENDBRANCH  12  14
ENDBRANCH   8  12
TORSDOF 2
ENDMDL
MODEL 10
REMARK VINA RESULT:      -6.9      2.760      6.782
REMARK  2 active torsions:
REMARK  status: ('A' for Active; 'I' for Inactive)
REMARK    1  A    between atoms: C_8  and  S_9 
REMARK    2  A    between atoms: S_9  and  C_10 
ROOT
HETATM    1  C   UNL     1      10.704  30.374  57.305  1.00  0.00     0.002 A 
HETATM    2  C   UNL     1      10.156  29.668  56.233  1.00  0.00     0.034 A 
HETATM    3  C   UNL     1       8.810  29.320  56.210  1.00  0.00     0.087 A 
HETATM    4  C   UNL     1       7.984  29.700  57.300  1.00  0.00     0.087 A 
HETATM    5  N   UNL     1       6.672  29.403  57.320  1.00  0.00    -0.232 NA
HETATM    6  C   UNL     1       6.180  28.741  56.252  1.00  0.00     0.164 A 
HETATM    7 CL   UNL     1       4.493  28.449  56.342  1.00  0.00    -0.059 Cl
HETATM    8  C   UNL     1       6.987  28.358  55.192  1.00  0.00     0.165 A 
HETATM    9  N   UNL     1       8.315  28.630  55.158  1.00  0.00    -0.234 NA
HETATM   10  C   UNL     1       8.543  30.397  58.363  1.00  0.00     0.034 A 
HETATM   11  C   UNL     1       9.896  30.736  58.375  1.00  0.00     0.002 A 
ENDROOT
BRANCH   8  12
HETATM   12  S   UNL     1       6.393  27.491  53.737  1.00  0.00     0.078 S 
HETATM   13  O   UNL     1       5.179  28.253  53.273  1.00  0.00    -0.251 OA
BRANCH  12  14
HETATM   14  C   UNL     1       5.731  25.935  54.476  1.00  0.00     0.112 C 
HETATM   15  C   UNL     1       5.044  25.089  53.396  1.00  0.00     0.250 C 
HETATM   16  N   UNL     1       6.062  24.558  52.425  1.00  0.00    -0.074 N 
HETATM   17  H   UNL     1       6.528  25.381  51.983  1.00  0.00     0.277 HD
HETATM   18  H   UNL     1       5.600  24.063  51.652  1.00  0.00     0.277 HD
HETATM   19  C   UNL     1       7.106  23.699  53.046  1.00  0.00     0.232 C 
HETATM   20  C   UNL     1       7.834  24.487  54.124  1.00  0.00     0.029 C 
HETATM   21  C   UNL     1       6.877  25.141  55.127  1.00  0.00     0.021 C 
ENDBRANCH  12  14
ENDBRANCH   8  12
TORSDOF 2
ENDMDL
