MODEL 1
REMARK VINA RESULT:      -9.9      0.000      0.000
REMARK  6 active torsions:
REMARK  status: ('A' for Active; 'I' for Inactive)
REMARK    1  A    between atoms: C_2  and  C_3 
REMARK    2  A    between atoms: C_3  and  C_4 
REMARK    3  A    between atoms: C_3  and  C_11 
REMARK    4  A    between atoms: C_11  and  C_12 
REMARK       I    between atoms: C_12  and  N_13 
REMARK    5  A    between atoms: N_13  and  C_14 
REMARK    6  A    between atoms: C_21  and  C_22 
REMARK       I    between atoms: C_22  and  N_23 
ROOT
HETATM    1  C   UNL     1       8.523  28.781  57.093  1.00  0.00     0.035 A 
HETATM    2  C   UNL     1       7.996  29.497  58.177  1.00  0.00     0.046 A 
HETATM    3  C   UNL     1       8.724  30.574  58.725  1.00  0.00     0.030 A 
HETATM    4  C   UNL     1       9.958  30.899  58.174  1.00  0.00     0.063 A 
HETATM    5  N   UNL     1      10.413  31.959  58.906  1.00  0.00    -0.277 N 
HETATM    6  H   UNL     1      11.288  32.457  58.786  1.00  0.00     0.189 HD
HETATM    7  N   UNL     1       9.582  32.363  59.880  1.00  0.00    -0.168 NA
HETATM    8  C   UNL     1       8.530  31.518  59.779  1.00  0.00     0.156 A 
HETATM    9  C   UNL     1      10.515  30.209  57.095  1.00  0.00     0.034 A 
HETATM   10  C   UNL     1       9.769  29.149  56.564  1.00  0.00     0.032 A 
ENDROOT
BRANCH   1  11
HETATM   11  N   UNL     1       7.858  27.704  56.468  1.00  0.00    -0.327 N 
HETATM   12  C   UNL     1       6.969  27.770  55.405  1.00  0.00     0.222 C 
HETATM   13  O   UNL     1       6.524  28.793  54.900  1.00  0.00    -0.273 OA
HETATM   14  H   UNL     1       8.028  26.786  56.860  1.00  0.00     0.169 HD
BRANCH  12  15
HETATM   15  C   UNL     1       6.540  26.386  54.938  1.00  0.00     0.112 C 
BRANCH  15  16
HETATM   16  C   UNL     1       7.164  25.255  55.780  1.00  0.00     0.027 C 
BRANCH  16  17
HETATM   17  C   UNL     1       6.345  24.881  57.040  1.00  0.00     0.005 C 
HETATM   18  C   UNL     1       4.907  25.383  57.079  1.00  0.00     0.006 C 
ENDBRANCH  16  17
BRANCH  16  19
HETATM   19  C   UNL     1       7.499  24.017  54.954  1.00  0.00    -0.053 A 
HETATM   20  C   UNL     1       7.675  24.055  53.565  1.00  0.00     0.008 A 
HETATM   21  C   UNL     1       7.959  22.888  52.847  1.00  0.00     0.007 A 
HETATM   22  C   UNL     1       8.079  21.660  53.504  1.00  0.00    -0.062 A 
HETATM   23  C   UNL     1       8.352  20.399  52.739  1.00  0.00     0.048 C 
HETATM   24  C   UNL     1       7.894  21.613  54.887  1.00  0.00     0.007 A 
HETATM   25  C   UNL     1       7.607  22.776  55.604  1.00  0.00     0.008 A 
ENDBRANCH  16  19
ENDBRANCH  15  16
ENDBRANCH  12  15
ENDBRANCH   1  11
BRANCH   8  26
HETATM   26  C   UNL     1       7.372  31.631  60.677  1.00  0.00     0.270 C 
HETATM   27  N   UNL     1       7.501  30.930  61.845  1.00  0.00    -0.365 N 
HETATM   28  H   UNL     1       8.353  30.407  62.007  1.00  0.00     0.159 HD
HETATM   29  H   UNL     1       6.759  30.957  62.526  1.00  0.00     0.159 HD
HETATM   30  O   UNL     1       6.364  32.289  60.442  1.00  0.00    -0.266 OA
ENDBRANCH   8  26
TORSDOF 6
ENDMDL
MODEL 2
REMARK VINA RESULT:      -9.9      1.791      2.805
REMARK  6 active torsions:
REMARK  status: ('A' for Active; 'I' for Inactive)
REMARK    1  A    between atoms: C_2  and  C_3 
REMARK    2  A    between atoms: C_3  and  C_4 
REMARK    3  A    between atoms: C_3  and  C_11 
REMARK    4  A    between atoms: C_11  and  C_12 
REMARK       I    between atoms: C_12  and  N_13 
REMARK    5  A    between atoms: N_13  and  C_14 
REMARK    6  A    between atoms: C_21  and  C_22 
REMARK       I    between atoms: C_22  and  N_23 
ROOT
HETATM    1  C   UNL     1       8.364  28.304  57.241  1.00  0.00     0.035 A 
HETATM    2  C   UNL     1       7.811  29.210  58.158  1.00  0.00     0.046 A 
HETATM    3  C   UNL     1       8.537  30.363  58.527  1.00  0.00     0.030 A 
HETATM    4  C   UNL     1       9.793  30.571  57.972  1.00  0.00     0.063 A 
HETATM    5  N   UNL     1      10.240  31.743  58.515  1.00  0.00    -0.277 N 
HETATM    6  H   UNL     1      11.126  32.203  58.338  1.00  0.00     0.189 HD
HETATM    7  N   UNL     1       9.383  32.324  59.369  1.00  0.00    -0.168 NA
HETATM    8  C   UNL     1       8.322  31.484  59.385  1.00  0.00     0.156 A 
HETATM    9  C   UNL     1      10.376  29.692  57.056  1.00  0.00     0.034 A 
HETATM   10  C   UNL     1       9.632  28.559  56.700  1.00  0.00     0.032 A 
ENDROOT
BRANCH   1  11
HETATM   11  N   UNL     1       7.703  27.138  56.799  1.00  0.00    -0.327 N 
HETATM   12  C   UNL     1       7.678  25.900  57.424  1.00  0.00     0.222 C 
HETATM   13  O   UNL     1       8.321  25.580  58.416  1.00  0.00    -0.273 OA
HETATM   14  H   UNL     1       7.220  27.208  55.912  1.00  0.00     0.169 HD
BRANCH  12  15
HETATM   15  C   UNL     1       6.770  24.917  56.698  1.00  0.00     0.112 C 
BRANCH  15  16
HETATM   16  C   UNL     1       7.457  24.259  55.484  1.00  0.00     0.027 C 
BRANCH  16  17
HETATM   17  C   UNL     1       7.537  22.715  55.565  1.00  0.00     0.005 C 
HETATM   18  C   UNL     1       8.910  22.101  55.317  1.00  0.00     0.006 C 
ENDBRANCH  16  17
BRANCH  16  19
HETATM   19  C   UNL     1       6.867  24.710  54.151  1.00  0.00    -0.053 A 
HETATM   20  C   UNL     1       7.634  24.838  52.986  1.00  0.00     0.008 A 
HETATM   21  C   UNL     1       7.053  25.278  51.792  1.00  0.00     0.007 A 
HETATM   22  C   UNL     1       5.692  25.593  51.736  1.00  0.00    -0.062 A 
HETATM   23  C   UNL     1       5.067  26.095  50.468  1.00  0.00     0.048 C 
HETATM   24  C   UNL     1       4.924  25.478  52.897  1.00  0.00     0.007 A 
HETATM   25  C   UNL     1       5.504  25.042  54.090  1.00  0.00     0.008 A 
ENDBRANCH  16  19
ENDBRANCH  15  16
ENDBRANCH  12  15
ENDBRANCH   1  11
BRANCH   8  26
HETATM   26  C   UNL     1       7.137  31.769  60.206  1.00  0.00     0.270 C 
HETATM   27  N   UNL     1       7.165  31.193  61.447  1.00  0.00    -0.365 N 
HETATM   28  H   UNL     1       7.971  30.636  61.707  1.00  0.00     0.159 HD
HETATM   29  H   UNL     1       6.398  31.341  62.083  1.00  0.00     0.159 HD
HETATM   30  O   UNL     1       6.188  32.460  59.852  1.00  0.00    -0.266 OA
ENDBRANCH   8  26
TORSDOF 6
ENDMDL
MODEL 3
REMARK VINA RESULT:      -9.1      3.305      9.219
REMARK  6 active torsions:
REMARK  status: ('A' for Active; 'I' for Inactive)
REMARK    1  A    between atoms: C_2  and  C_3 
REMARK    2  A    between atoms: C_3  and  C_4 
REMARK    3  A    between atoms: C_3  and  C_11 
REMARK    4  A    between atoms: C_11  and  C_12 
REMARK       I    between atoms: C_12  and  N_13 
REMARK    5  A    between atoms: N_13  and  C_14 
REMARK    6  A    between atoms: C_21  and  C_22 
REMARK       I    between atoms: C_22  and  N_23 
ROOT
HETATM    1  C   UNL     1       7.305  25.186  55.069  1.00  0.00     0.035 A 
HETATM    2  C   UNL     1       7.724  23.976  55.641  1.00  0.00     0.046 A 
HETATM    3  C   UNL     1       7.922  22.845  54.820  1.00  0.00     0.030 A 
HETATM    4  C   UNL     1       7.689  22.958  53.455  1.00  0.00     0.063 A 
HETATM    5  N   UNL     1       7.956  21.721  52.938  1.00  0.00    -0.277 N 
HETATM    6  H   UNL     1       7.890  21.434  51.969  1.00  0.00     0.189 HD
HETATM    7  N   UNL     1       8.351  20.812  53.844  1.00  0.00    -0.168 NA
HETATM    8  C   UNL     1       8.338  21.493  55.014  1.00  0.00     0.156 A 
HETATM    9  C   UNL     1       7.272  24.146  52.850  1.00  0.00     0.034 A 
HETATM   10  C   UNL     1       7.091  25.256  53.685  1.00  0.00     0.032 A 
ENDROOT
BRANCH   1  11
HETATM   11  N   UNL     1       7.102  26.372  55.807  1.00  0.00    -0.327 N 
HETATM   12  C   UNL     1       7.841  26.821  56.891  1.00  0.00     0.222 C 
HETATM   13  O   UNL     1       8.731  26.205  57.462  1.00  0.00    -0.273 OA
HETATM   14  H   UNL     1       6.312  26.940  55.531  1.00  0.00     0.169 HD
BRANCH  12  15
HETATM   15  C   UNL     1       7.385  28.198  57.356  1.00  0.00     0.112 C 
BRANCH  15  16
HETATM   16  C   UNL     1       8.551  29.072  57.859  1.00  0.00     0.027 C 
BRANCH  16  17
HETATM   17  C   UNL     1       9.429  29.665  56.729  1.00  0.00     0.005 C 
HETATM   18  C   UNL     1      10.933  29.651  56.972  1.00  0.00     0.006 C 
ENDBRANCH  16  17
BRANCH  16  19
HETATM   19  C   UNL     1       8.102  30.157  58.833  1.00  0.00    -0.053 A 
HETATM   20  C   UNL     1       7.017  31.005  58.577  1.00  0.00     0.008 A 
HETATM   21  C   UNL     1       6.657  32.002  59.490  1.00  0.00     0.007 A 
HETATM   22  C   UNL     1       7.370  32.167  60.682  1.00  0.00    -0.062 A 
HETATM   23  C   UNL     1       7.011  33.253  61.652  1.00  0.00     0.048 C 
HETATM   24  C   UNL     1       8.460  31.332  60.938  1.00  0.00     0.007 A 
HETATM   25  C   UNL     1       8.822  30.340  60.025  1.00  0.00     0.008 A 
ENDBRANCH  16  19
ENDBRANCH  15  16
ENDBRANCH  12  15
ENDBRANCH   1  11
BRANCH   8  26
HETATM   26  C   UNL     1       8.725  20.847  56.276  1.00  0.00     0.270 C 
HETATM   27  N   UNL     1       9.747  19.946  56.153  1.00  0.00    -0.365 N 
HETATM   28  H   UNL     1      10.155  19.796  55.237  1.00  0.00     0.159 HD
HETATM   29  H   UNL     1      10.085  19.461  56.968  1.00  0.00     0.159 HD
HETATM   30  O   UNL     1       8.207  21.071  57.365  1.00  0.00    -0.266 OA
ENDBRANCH   8  26
TORSDOF 6
ENDMDL
MODEL 4
REMARK VINA RESULT:      -9.1      2.160      3.133
REMARK  6 active torsions:
REMARK  status: ('A' for Active; 'I' for Inactive)
REMARK    1  A    between atoms: C_2  and  C_3 
REMARK    2  A    between atoms: C_3  and  C_4 
REMARK    3  A    between atoms: C_3  and  C_11 
REMARK    4  A    between atoms: C_11  and  C_12 
REMARK       I    between atoms: C_12  and  N_13 
REMARK    5  A    between atoms: N_13  and  C_14 
REMARK    6  A    between atoms: C_21  and  C_22 
REMARK       I    between atoms: C_22  and  N_23 
ROOT
HETATM    1  C   UNL     1       6.374  28.711  56.088  1.00  0.00     0.035 A 
HETATM    2  C   UNL     1       7.278  29.400  56.909  1.00  0.00     0.046 A 
HETATM    3  C   UNL     1       6.826  30.482  57.694  1.00  0.00     0.030 A 
HETATM    4  C   UNL     1       5.486  30.843  57.630  1.00  0.00     0.063 A 
HETATM    5  N   UNL     1       5.356  31.906  58.480  1.00  0.00    -0.277 N 
HETATM    6  H   UNL     1       4.513  32.430  58.683  1.00  0.00     0.189 HD
HETATM    7  N   UNL     1       6.491  32.264  59.102  1.00  0.00    -0.168 NA
HETATM    8  C   UNL     1       7.410  31.390  58.629  1.00  0.00     0.156 A 
HETATM    9  C   UNL     1       4.557  30.181  56.825  1.00  0.00     0.034 A 
HETATM   10  C   UNL     1       5.029  29.106  56.061  1.00  0.00     0.032 A 
ENDROOT
BRANCH   1  11
HETATM   11  N   UNL     1       6.731  27.606  55.285  1.00  0.00    -0.327 N 
HETATM   12  C   UNL     1       7.068  27.620  53.940  1.00  0.00     0.222 C 
HETATM   13  O   UNL     1       7.005  28.587  53.191  1.00  0.00    -0.273 OA
HETATM   14  H   UNL     1       6.709  26.700  55.737  1.00  0.00     0.169 HD
BRANCH  12  15
HETATM   15  C   UNL     1       7.497  26.245  53.449  1.00  0.00     0.112 C 
BRANCH  15  16
HETATM   16  C   UNL     1       6.426  25.164  53.698  1.00  0.00     0.027 C 
BRANCH  16  17
HETATM   17  C   UNL     1       5.379  25.040  52.563  1.00  0.00     0.005 C 
HETATM   18  C   UNL     1       5.684  25.809  51.283  1.00  0.00     0.006 C 
ENDBRANCH  16  17
BRANCH  16  19
HETATM   19  C   UNL     1       7.025  23.804  54.045  1.00  0.00    -0.053 A 
HETATM   20  C   UNL     1       7.154  23.346  55.362  1.00  0.00     0.008 A 
HETATM   21  C   UNL     1       7.732  22.100  55.633  1.00  0.00     0.007 A 
HETATM   22  C   UNL     1       8.184  21.284  54.592  1.00  0.00    -0.062 A 
HETATM   23  C   UNL     1       8.832  19.961  54.874  1.00  0.00     0.048 C 
HETATM   24  C   UNL     1       8.067  21.740  53.277  1.00  0.00     0.007 A 
HETATM   25  C   UNL     1       7.495  22.984  53.007  1.00  0.00     0.008 A 
ENDBRANCH  16  19
ENDBRANCH  15  16
ENDBRANCH  12  15
ENDBRANCH   1  11
BRANCH   8  26
HETATM   26  C   UNL     1       8.809  31.437  59.078  1.00  0.00     0.270 C 
HETATM   27  N   UNL     1       9.152  30.432  59.941  1.00  0.00    -0.365 N 
HETATM   28  H   UNL     1       8.449  29.749  60.197  1.00  0.00     0.159 HD
HETATM   29  H   UNL     1      10.094  30.380  60.295  1.00  0.00     0.159 HD
HETATM   30  O   UNL     1       9.629  32.279  58.729  1.00  0.00    -0.266 OA
ENDBRANCH   8  26
TORSDOF 6
ENDMDL
MODEL 5
REMARK VINA RESULT:      -9.0      2.433      3.180
REMARK  6 active torsions:
REMARK  status: ('A' for Active; 'I' for Inactive)
REMARK    1  A    between atoms: C_2  and  C_3 
REMARK    2  A    between atoms: C_3  and  C_4 
REMARK    3  A    between atoms: C_3  and  C_11 
REMARK    4  A    between atoms: C_11  and  C_12 
REMARK       I    between atoms: C_12  and  N_13 
REMARK    5  A    between atoms: N_13  and  C_14 
REMARK    6  A    between atoms: C_21  and  C_22 
REMARK       I    between atoms: C_22  and  N_23 
ROOT
HETATM    1  C   UNL     1       4.872  29.109  56.666  1.00  0.00     0.035 A 
HETATM    2  C   UNL     1       5.849  29.721  57.464  1.00  0.00     0.046 A 
HETATM    3  C   UNL     1       5.641  31.032  57.943  1.00  0.00     0.030 A 
HETATM    4  C   UNL     1       4.465  31.691  57.605  1.00  0.00     0.063 A 
HETATM    5  N   UNL     1       4.554  32.918  58.200  1.00  0.00    -0.277 N 
HETATM    6  H   UNL     1       3.873  33.668  58.166  1.00  0.00     0.189 HD
HETATM    7  N   UNL     1       5.680  33.116  58.905  1.00  0.00    -0.168 NA
HETATM    8  C   UNL     1       6.362  31.956  58.759  1.00  0.00     0.156 A 
HETATM    9  C   UNL     1       3.470  31.114  56.814  1.00  0.00     0.034 A 
HETATM   10  C   UNL     1       3.697  29.809  56.357  1.00  0.00     0.032 A 
ENDROOT
BRANCH   1  11
HETATM   11  N   UNL     1       4.984  27.796  56.160  1.00  0.00    -0.327 N 
HETATM   12  C   UNL     1       5.607  27.400  54.986  1.00  0.00     0.222 C 
HETATM   13  O   UNL     1       6.071  28.142  54.130  1.00  0.00    -0.273 OA
HETATM   14  H   UNL     1       4.533  27.069  56.701  1.00  0.00     0.169 HD
BRANCH  12  15
HETATM   15  C   UNL     1       5.615  25.885  54.832  1.00  0.00     0.112 C 
BRANCH  15  16
HETATM   16  C   UNL     1       6.851  25.228  55.478  1.00  0.00     0.027 C 
BRANCH  16  17
HETATM   17  C   UNL     1       6.746  25.060  57.014  1.00  0.00     0.005 C 
HETATM   18  C   UNL     1       7.661  25.947  57.849  1.00  0.00     0.006 C 
ENDBRANCH  16  17
BRANCH  16  19
HETATM   19  C   UNL     1       7.244  23.916  54.807  1.00  0.00    -0.053 A 
HETATM   20  C   UNL     1       7.452  22.730  55.523  1.00  0.00     0.008 A 
HETATM   21  C   UNL     1       7.835  21.555  54.866  1.00  0.00     0.007 A 
HETATM   22  C   UNL     1       8.012  21.540  53.479  1.00  0.00    -0.062 A 
HETATM   23  C   UNL     1       8.453  20.294  52.771  1.00  0.00     0.048 C 
HETATM   24  C   UNL     1       7.817  22.722  52.761  1.00  0.00     0.007 A 
HETATM   25  C   UNL     1       7.439  23.895  53.417  1.00  0.00     0.008 A 
ENDBRANCH  16  19
ENDBRANCH  15  16
ENDBRANCH  12  15
ENDBRANCH   1  11
BRANCH   8  26
HETATM   26  C   UNL     1       7.671  31.755  59.397  1.00  0.00     0.270 C 
HETATM   27  N   UNL     1       7.683  30.772  60.348  1.00  0.00    -0.365 N 
HETATM   28  H   UNL     1       6.825  30.266  60.536  1.00  0.00     0.159 HD
HETATM   29  H   UNL     1       8.540  30.558  60.833  1.00  0.00     0.159 HD
HETATM   30  O   UNL     1       8.687  32.387  59.127  1.00  0.00    -0.266 OA
ENDBRANCH   8  26
TORSDOF 6
ENDMDL
MODEL 6
REMARK VINA RESULT:      -8.9      2.313      3.003
REMARK  6 active torsions:
REMARK  status: ('A' for Active; 'I' for Inactive)
REMARK    1  A    between atoms: C_2  and  C_3 
REMARK    2  A    between atoms: C_3  and  C_4 
REMARK    3  A    between atoms: C_3  and  C_11 
REMARK    4  A    between atoms: C_11  and  C_12 
REMARK       I    between atoms: C_12  and  N_13 
REMARK    5  A    between atoms: N_13  and  C_14 
REMARK    6  A    between atoms: C_21  and  C_22 
REMARK       I    between atoms: C_22  and  N_23 
ROOT
HETATM    1  C   UNL     1       7.574  28.362  56.297  1.00  0.00     0.035 A 
HETATM    2  C   UNL     1       6.432  29.115  56.601  1.00  0.00     0.046 A 
HETATM    3  C   UNL     1       6.506  30.139  57.569  1.00  0.00     0.030 A 
HETATM    4  C   UNL     1       7.719  30.375  58.204  1.00  0.00     0.063 A 
HETATM    5  N   UNL     1       7.478  31.402  59.073  1.00  0.00    -0.277 N 
HETATM    6  H   UNL     1       8.139  31.837  59.707  1.00  0.00     0.189 HD
HETATM    7  N   UNL     1       6.218  31.865  59.055  1.00  0.00    -0.168 NA
HETATM    8  C   UNL     1       5.604  31.096  58.126  1.00  0.00     0.156 A 
HETATM    9  C   UNL     1       8.877  29.647  57.927  1.00  0.00     0.034 A 
HETATM   10  C   UNL     1       8.779  28.640  56.957  1.00  0.00     0.032 A 
ENDROOT
BRANCH   1  11
HETATM   11  N   UNL     1       7.600  27.333  55.330  1.00  0.00    -0.327 N 
HETATM   12  C   UNL     1       7.308  27.445  53.979  1.00  0.00     0.222 C 
HETATM   13  O   UNL     1       6.870  28.440  53.416  1.00  0.00    -0.273 OA
HETATM   14  H   UNL     1       7.828  26.407  55.669  1.00  0.00     0.169 HD
BRANCH  12  15
HETATM   15  C   UNL     1       7.550  26.138  53.237  1.00  0.00     0.112 C 
BRANCH  15  16
HETATM   16  C   UNL     1       6.469  25.078  53.533  1.00  0.00     0.027 C 
BRANCH  16  17
HETATM   17  C   UNL     1       5.426  24.908  52.401  1.00  0.00     0.005 C 
HETATM   18  C   UNL     1       5.576  25.840  51.205  1.00  0.00     0.006 C 
ENDBRANCH  16  17
BRANCH  16  19
HETATM   19  C   UNL     1       7.056  23.732  53.947  1.00  0.00    -0.053 A 
HETATM   20  C   UNL     1       7.141  23.320  55.284  1.00  0.00     0.008 A 
HETATM   21  C   UNL     1       7.709  22.086  55.617  1.00  0.00     0.007 A 
HETATM   22  C   UNL     1       8.196  21.234  54.621  1.00  0.00    -0.062 A 
HETATM   23  C   UNL     1       8.835  19.923  54.971  1.00  0.00     0.048 C 
HETATM   24  C   UNL     1       8.124  21.644  53.288  1.00  0.00     0.007 A 
HETATM   25  C   UNL     1       7.561  22.877  52.955  1.00  0.00     0.008 A 
ENDBRANCH  16  19
ENDBRANCH  15  16
ENDBRANCH  12  15
ENDBRANCH   1  11
BRANCH   8  26
HETATM   26  C   UNL     1       4.186  31.292  57.791  1.00  0.00     0.270 C 
HETATM   27  N   UNL     1       3.976  31.880  56.573  1.00  0.00    -0.365 N 
HETATM   28  H   UNL     1       4.779  32.126  56.007  1.00  0.00     0.159 HD
HETATM   29  H   UNL     1       3.034  32.046  56.256  1.00  0.00     0.159 HD
HETATM   30  O   UNL     1       3.245  30.965  58.506  1.00  0.00    -0.266 OA
ENDBRANCH   8  26
TORSDOF 6
ENDMDL
MODEL 7
REMARK VINA RESULT:      -8.8      4.001      9.897
REMARK  6 active torsions:
REMARK  status: ('A' for Active; 'I' for Inactive)
REMARK    1  A    between atoms: C_2  and  C_3 
REMARK    2  A    between atoms: C_3  and  C_4 
REMARK    3  A    between atoms: C_3  and  C_11 
REMARK    4  A    between atoms: C_11  and  C_12 
REMARK       I    between atoms: C_12  and  N_13 
REMARK    5  A    between atoms: N_13  and  C_14 
REMARK    6  A    between atoms: C_21  and  C_22 
REMARK       I    between atoms: C_22  and  N_23 
ROOT
HETATM    1  C   UNL     1       7.948  30.032  58.455  1.00  0.00     0.035 A 
HETATM    2  C   UNL     1       6.834  29.674  57.682  1.00  0.00     0.046 A 
HETATM    3  C   UNL     1       7.021  29.152  56.384  1.00  0.00     0.030 A 
HETATM    4  C   UNL     1       8.315  29.008  55.899  1.00  0.00     0.063 A 
HETATM    5  N   UNL     1       8.174  28.493  54.640  1.00  0.00    -0.277 N 
HETATM    6  H   UNL     1       8.912  28.261  53.986  1.00  0.00     0.189 HD
HETATM    7  N   UNL     1       6.903  28.279  54.265  1.00  0.00    -0.168 NA
HETATM    8  C   UNL     1       6.177  28.678  55.334  1.00  0.00     0.156 A 
HETATM    9  C   UNL     1       9.448  29.352  56.639  1.00  0.00     0.034 A 
HETATM   10  C   UNL     1       9.236  29.861  57.927  1.00  0.00     0.032 A 
ENDROOT
BRANCH   1  11
HETATM   11  N   UNL     1       7.859  30.542  59.768  1.00  0.00    -0.327 N 
HETATM   12  C   UNL     1       8.230  31.805  60.204  1.00  0.00     0.222 C 
HETATM   13  O   UNL     1       8.804  32.657  59.539  1.00  0.00    -0.273 OA
HETATM   14  H   UNL     1       7.513  29.902  60.472  1.00  0.00     0.169 HD
BRANCH  12  15
HETATM   15  C   UNL     1       7.883  32.022  61.670  1.00  0.00     0.112 C 
BRANCH  15  16
HETATM   16  C   UNL     1       6.675  32.960  61.863  1.00  0.00     0.027 C 
BRANCH  16  17
HETATM   17  C   UNL     1       5.383  32.478  61.159  1.00  0.00     0.005 C 
HETATM   18  C   UNL     1       4.875  33.351  60.018  1.00  0.00     0.006 C 
ENDBRANCH  16  17
BRANCH  16  19
HETATM   19  C   UNL     1       6.411  33.295  63.328  1.00  0.00    -0.053 A 
HETATM   20  C   UNL     1       5.124  33.513  63.837  1.00  0.00     0.008 A 
HETATM   21  C   UNL     1       4.934  33.840  65.184  1.00  0.00     0.007 A 
HETATM   22  C   UNL     1       6.024  33.949  66.052  1.00  0.00    -0.062 A 
HETATM   23  C   UNL     1       5.832  34.331  67.489  1.00  0.00     0.048 C 
HETATM   24  C   UNL     1       7.311  33.744  65.548  1.00  0.00     0.007 A 
HETATM   25  C   UNL     1       7.502  33.421  64.203  1.00  0.00     0.008 A 
ENDBRANCH  16  19
ENDBRANCH  15  16
ENDBRANCH  12  15
ENDBRANCH   1  11
BRANCH   8  26
HETATM   26  C   UNL     1       4.709  28.596  55.333  1.00  0.00     0.270 C 
HETATM   27  N   UNL     1       4.199  27.706  56.238  1.00  0.00    -0.365 N 
HETATM   28  H   UNL     1       4.841  27.190  56.828  1.00  0.00     0.159 HD
HETATM   29  H   UNL     1       3.201  27.590  56.314  1.00  0.00     0.159 HD
HETATM   30  O   UNL     1       3.971  29.253  54.607  1.00  0.00    -0.266 OA
ENDBRANCH   8  26
TORSDOF 6
ENDMDL
MODEL 8
REMARK VINA RESULT:      -8.6      5.543      8.109
REMARK  6 active torsions:
REMARK  status: ('A' for Active; 'I' for Inactive)
REMARK    1  A    between atoms: C_2  and  C_3 
REMARK    2  A    between atoms: C_3  and  C_4 
REMARK    3  A    between atoms: C_3  and  C_11 
REMARK    4  A    between atoms: C_11  and  C_12 
REMARK       I    between atoms: C_12  and  N_13 
REMARK    5  A    between atoms: N_13  and  C_14 
REMARK    6  A    between atoms: C_21  and  C_22 
REMARK       I    between atoms: C_22  and  N_23 
ROOT
HETATM    1  C   UNL     1       4.789  27.066  50.013  1.00  0.00     0.035 A 
HETATM    2  C   UNL     1       4.273  28.308  50.412  1.00  0.00     0.046 A 
HETATM    3  C   UNL     1       3.090  28.797  49.819  1.00  0.00     0.030 A 
HETATM    4  C   UNL     1       2.462  28.032  48.844  1.00  0.00     0.063 A 
HETATM    5  N   UNL     1       1.368  28.758  48.464  1.00  0.00    -0.277 N 
HETATM    6  H   UNL     1       0.677  28.506  47.766  1.00  0.00     0.189 HD
HETATM    7  N   UNL     1       1.220  29.924  49.112  1.00  0.00    -0.168 NA
HETATM    8  C   UNL     1       2.276  29.963  49.957  1.00  0.00     0.156 A 
HETATM    9  C   UNL     1       2.945  26.792  48.422  1.00  0.00     0.034 A 
HETATM   10  C   UNL     1       4.117  26.325  49.031  1.00  0.00     0.032 A 
ENDROOT
BRANCH   1  11
HETATM   11  N   UNL     1       5.953  26.488  50.564  1.00  0.00    -0.327 N 
HETATM   12  C   UNL     1       6.019  25.467  51.500  1.00  0.00     0.222 C 
HETATM   13  O   UNL     1       5.071  24.968  52.092  1.00  0.00    -0.273 OA
HETATM   14  H   UNL     1       6.834  26.885  50.263  1.00  0.00     0.169 HD
BRANCH  12  15
HETATM   15  C   UNL     1       7.456  25.040  51.771  1.00  0.00     0.112 C 
BRANCH  15  16
HETATM   16  C   UNL     1       7.873  25.255  53.240  1.00  0.00     0.027 C 
BRANCH  16  17
HETATM   17  C   UNL     1       7.068  26.360  53.969  1.00  0.00     0.005 C 
HETATM   18  C   UNL     1       7.640  27.769  53.889  1.00  0.00     0.006 C 
ENDBRANCH  16  17
BRANCH  16  19
HETATM   19  C   UNL     1       7.888  23.962  54.048  1.00  0.00    -0.053 A 
HETATM   20  C   UNL     1       7.988  23.941  55.446  1.00  0.00     0.008 A 
HETATM   21  C   UNL     1       8.022  22.728  56.142  1.00  0.00     0.007 A 
HETATM   22  C   UNL     1       7.951  21.511  55.458  1.00  0.00    -0.062 A 
HETATM   23  C   UNL     1       8.018  20.206  56.194  1.00  0.00     0.048 C 
HETATM   24  C   UNL     1       7.862  21.525  54.064  1.00  0.00     0.007 A 
HETATM   25  C   UNL     1       7.832  22.735  53.368  1.00  0.00     0.008 A 
ENDBRANCH  16  19
ENDBRANCH  15  16
ENDBRANCH  12  15
ENDBRANCH   1  11
BRANCH   8  26
HETATM   26  C   UNL     1       2.481  31.095  50.870  1.00  0.00     0.270 C 
HETATM   27  N   UNL     1       2.431  30.760  52.196  1.00  0.00    -0.365 N 
HETATM   28  H   UNL     1       2.268  29.792  52.447  1.00  0.00     0.159 HD
HETATM   29  H   UNL     1       2.569  31.472  52.895  1.00  0.00     0.159 HD
HETATM   30  O   UNL     1       2.687  32.252  50.518  1.00  0.00    -0.266 OA
ENDBRANCH   8  26
TORSDOF 6
ENDMDL
MODEL 9
REMARK VINA RESULT:      -8.5      5.713      8.851
REMARK  6 active torsions:
REMARK  status: ('A' for Active; 'I' for Inactive)
REMARK    1  A    between atoms: C_2  and  C_3 
REMARK    2  A    between atoms: C_3  and  C_4 
REMARK    3  A    between atoms: C_3  and  C_11 
REMARK    4  A    between atoms: C_11  and  C_12 
REMARK       I    between atoms: C_12  and  N_13 
REMARK    5  A    between atoms: N_13  and  C_14 
REMARK    6  A    between atoms: C_21  and  C_22 
REMARK       I    between atoms: C_22  and  N_23 
ROOT
HETATM    1  C   UNL     1       7.190  25.018  53.565  1.00  0.00     0.035 A 
HETATM    2  C   UNL     1       7.504  23.657  53.689  1.00  0.00     0.046 A 
HETATM    3  C   UNL     1       7.836  23.127  54.954  1.00  0.00     0.030 A 
HETATM    4  C   UNL     1       7.849  23.975  56.054  1.00  0.00     0.063 A 
HETATM    5  N   UNL     1       8.205  23.188  57.114  1.00  0.00    -0.277 N 
HETATM    6  H   UNL     1       8.317  23.474  58.079  1.00  0.00     0.189 HD
HETATM    7  N   UNL     1       8.417  21.899  56.804  1.00  0.00    -0.168 NA
HETATM    8  C   UNL     1       8.189  21.844  55.471  1.00  0.00     0.156 A 
HETATM    9  C   UNL     1       7.541  25.335  55.971  1.00  0.00     0.034 A 
HETATM   10  C   UNL     1       7.208  25.835  54.705  1.00  0.00     0.032 A 
ENDROOT
BRANCH   1  11
HETATM   11  N   UNL     1       6.826  25.630  52.347  1.00  0.00    -0.327 N 
HETATM   12  C   UNL     1       5.585  25.598  51.730  1.00  0.00     0.222 C 
HETATM   13  O   UNL     1       4.620  24.935  52.086  1.00  0.00    -0.273 OA
HETATM   14  H   UNL     1       7.563  26.122  51.857  1.00  0.00     0.169 HD
BRANCH  12  15
HETATM   15  C   UNL     1       5.551  26.467  50.480  1.00  0.00     0.112 C 
BRANCH  15  16
HETATM   16  C   UNL     1       4.550  27.634  50.594  1.00  0.00     0.027 C 
BRANCH  16  17
HETATM   17  C   UNL     1       5.216  29.028  50.700  1.00  0.00     0.005 C 
HETATM   18  C   UNL     1       5.866  29.558  49.428  1.00  0.00     0.006 C 
ENDBRANCH  16  17
BRANCH  16  19
HETATM   19  C   UNL     1       3.487  27.613  49.500  1.00  0.00    -0.053 A 
HETATM   20  C   UNL     1       2.434  28.536  49.448  1.00  0.00     0.008 A 
HETATM   21  C   UNL     1       1.469  28.463  48.437  1.00  0.00     0.007 A 
HETATM   22  C   UNL     1       1.540  27.471  47.454  1.00  0.00    -0.062 A 
HETATM   23  C   UNL     1       0.493  27.366  46.386  1.00  0.00     0.048 C 
HETATM   24  C   UNL     1       2.582  26.542  47.507  1.00  0.00     0.007 A 
HETATM   25  C   UNL     1       3.543  26.612  48.517  1.00  0.00     0.008 A 
ENDBRANCH  16  19
ENDBRANCH  15  16
ENDBRANCH  12  15
ENDBRANCH   1  11
BRANCH   8  26
HETATM   26  C   UNL     1       8.308  20.580  54.730  1.00  0.00     0.270 C 
HETATM   27  N   UNL     1       9.092  19.643  55.345  1.00  0.00    -0.365 N 
HETATM   28  H   UNL     1       9.516  19.873  56.236  1.00  0.00     0.159 HD
HETATM   29  H   UNL     1       9.224  18.742  54.913  1.00  0.00     0.159 HD
HETATM   30  O   UNL     1       7.764  20.344  53.656  1.00  0.00    -0.266 OA
ENDBRANCH   8  26
TORSDOF 6
ENDMDL
MODEL 10
REMARK VINA RESULT:      -8.4      1.819      2.515
REMARK  6 active torsions:
REMARK  status: ('A' for Active; 'I' for Inactive)
REMARK    1  A    between atoms: C_2  and  C_3 
REMARK    2  A    between atoms: C_3  and  C_4 
REMARK    3  A    between atoms: C_3  and  C_11 
REMARK    4  A    between atoms: C_11  and  C_12 
REMARK       I    between atoms: C_12  and  N_13 
REMARK    5  A    between atoms: N_13  and  C_14 
REMARK    6  A    between atoms: C_21  and  C_22 
REMARK       I    between atoms: C_22  and  N_23 
ROOT
HETATM    1  C   UNL     1       7.995  29.987  57.805  1.00  0.00     0.035 A 
HETATM    2  C   UNL     1       6.873  30.666  58.299  1.00  0.00     0.046 A 
HETATM    3  C   UNL     1       7.015  31.559  59.383  1.00  0.00     0.030 A 
HETATM    4  C   UNL     1       8.274  31.740  59.941  1.00  0.00     0.063 A 
HETATM    5  N   UNL     1       8.096  32.640  60.954  1.00  0.00    -0.277 N 
HETATM    6  H   UNL     1       8.802  33.005  61.582  1.00  0.00     0.189 HD
HETATM    7  N   UNL     1       6.832  33.071  61.100  1.00  0.00    -0.168 NA
HETATM    8  C   UNL     1       6.151  32.413  60.133  1.00  0.00     0.156 A 
HETATM    9  C   UNL     1       9.415  31.081  59.477  1.00  0.00     0.034 A 
HETATM   10  C   UNL     1       9.248  30.207  58.395  1.00  0.00     0.032 A 
ENDROOT
BRANCH   1  11
HETATM   11  N   UNL     1       7.952  29.093  56.714  1.00  0.00    -0.327 N 
HETATM   12  C   UNL     1       7.895  27.708  56.766  1.00  0.00     0.222 C 
HETATM   13  O   UNL     1       7.986  27.020  57.774  1.00  0.00    -0.273 OA
HETATM   14  H   UNL     1       7.996  29.510  55.793  1.00  0.00     0.169 HD
BRANCH  12  15
HETATM   15  C   UNL     1       7.752  27.095  55.379  1.00  0.00     0.112 C 
BRANCH  15  16
HETATM   16  C   UNL     1       6.589  26.087  55.291  1.00  0.00     0.027 C 
BRANCH  16  17
HETATM   17  C   UNL     1       5.361  26.609  54.505  1.00  0.00     0.005 C 
HETATM   18  C   UNL     1       4.843  27.985  54.906  1.00  0.00     0.006 C 
ENDBRANCH  16  17
BRANCH  16  19
HETATM   19  C   UNL     1       7.026  24.717  54.782  1.00  0.00    -0.053 A 
HETATM   20  C   UNL     1       7.235  23.623  55.632  1.00  0.00     0.008 A 
HETATM   21  C   UNL     1       7.660  22.392  55.121  1.00  0.00     0.007 A 
HETATM   22  C   UNL     1       7.876  22.226  53.750  1.00  0.00    -0.062 A 
HETATM   23  C   UNL     1       8.361  20.919  53.197  1.00  0.00     0.048 C 
HETATM   24  C   UNL     1       7.680  23.316  52.899  1.00  0.00     0.007 A 
HETATM   25  C   UNL     1       7.261  24.547  53.408  1.00  0.00     0.008 A 
ENDBRANCH  16  19
ENDBRANCH  15  16
ENDBRANCH  12  15
ENDBRANCH   1  11
BRANCH   8  26
HETATM   26  C   UNL     1       4.708  32.617  59.944  1.00  0.00     0.270 C 
HETATM   27  N   UNL     1       4.395  33.638  59.088  1.00  0.00    -0.365 N 
HETATM   28  H   UNL     1       5.149  34.159  58.657  1.00  0.00     0.159 HD
HETATM   29  H   UNL     1       3.428  33.844  58.892  1.00  0.00     0.159 HD
HETATM   30  O   UNL     1       3.830  31.950  60.481  1.00  0.00    -0.266 OA
ENDBRANCH   8  26
TORSDOF 6
ENDMDL
