MODEL 1
REMARK VINA RESULT:      -9.1      0.000      0.000
REMARK  6 active torsions:
REMARK  status: ('A' for Active; 'I' for Inactive)
REMARK    1  A    between atoms: C_4  and  C_5 
REMARK    2  A    between atoms: C_5  and  N_6 
REMARK       I    between atoms: N_6  and  C_7 
REMARK       I    between atoms: C_7  and  N_8 
REMARK    3  A    between atoms: N_8  and  C_9 
REMARK    4  A    between atoms: C_9  and  C_10 
REMARK    5  A    between atoms: C_12  and  O_13 
REMARK    6  A    between atoms: O_13  and  C_14 
ROOT
HETATM    1  N   UNL     1       7.434  25.992  55.001  1.00  0.00    -0.333 N 
HETATM    2  C   UNL     1       6.721  27.090  55.353  1.00  0.00     0.317 C 
HETATM    3  N   UNL     1       7.221  27.828  56.373  1.00  0.00    -0.339 N 
HETATM    4  O   UNL     1       5.686  27.441  54.796  1.00  0.00    -0.247 OA
HETATM    5  H   UNL     1       8.035  25.572  55.695  1.00  0.00     0.165 HD
HETATM    6  H   UNL     1       6.646  28.629  56.600  1.00  0.00     0.164 HD
ENDROOT
BRANCH   3   7
HETATM    7  C   UNL     1       8.500  27.704  57.036  1.00  0.00     0.163 C 
BRANCH   7   8
HETATM    8  C   UNL     1       9.132  29.015  57.430  1.00  0.00    -0.035 A 
HETATM    9  C   UNL     1       8.491  29.972  58.225  1.00  0.00     0.066 A 
HETATM   10  C   UNL     1       9.149  31.161  58.501  1.00  0.00     0.164 A 
HETATM   11  N   UNL     1      10.388  31.460  58.063  1.00  0.00    -0.237 NA
HETATM   12  C   UNL     1      10.999  30.525  57.310  1.00  0.00     0.120 A 
HETATM   13  C   UNL     1      10.422  29.308  56.972  1.00  0.00     0.028 A 
BRANCH  10  14
HETATM   14  O   UNL     1       8.465  32.081  59.273  1.00  0.00    -0.329 OA
BRANCH  14  15
HETATM   15  C   UNL     1       8.167  31.673  60.625  1.00  0.00     0.130 C 
HETATM   16  C   UNL     1       9.339  31.726  61.643  1.00  0.00     0.032 C 
HETATM   17  C   UNL     1       8.338  32.266  62.678  1.00  0.00     0.005 C 
HETATM   18  C   UNL     1       7.484  32.760  61.496  1.00  0.00     0.032 C 
ENDBRANCH  14  15
ENDBRANCH  10  14
ENDBRANCH   7   8
ENDBRANCH   3   7
BRANCH   1  19
HETATM   19  C   UNL     1       7.010  25.115  53.925  1.00  0.00     0.139 C 
HETATM   20  C   UNL     1       7.684  25.496  52.609  1.00  0.00     0.039 C 
BRANCH  19  21
HETATM   21  C   UNL     1       7.341  23.703  54.299  1.00  0.00     0.075 A 
HETATM   22  O   UNL     1       7.613  22.829  53.282  1.00  0.00    -0.318 OA
HETATM   23  C   UNL     1       7.894  21.625  53.851  1.00  0.00     0.049 A 
HETATM   24  C   UNL     1       8.229  20.519  52.930  1.00  0.00     0.076 C 
HETATM   25  C   UNL     1       7.800  21.713  55.222  1.00  0.00     0.035 A 
HETATM   26  C   UNL     1       7.447  23.053  55.512  1.00  0.00     0.037 A 
ENDBRANCH  19  21
ENDBRANCH   1  19
TORSDOF 6
ENDMDL
MODEL 2
REMARK VINA RESULT:      -9.0      2.022      2.821
REMARK  6 active torsions:
REMARK  status: ('A' for Active; 'I' for Inactive)
REMARK    1  A    between atoms: C_4  and  C_5 
REMARK    2  A    between atoms: C_5  and  N_6 
REMARK       I    between atoms: N_6  and  C_7 
REMARK       I    between atoms: C_7  and  N_8 
REMARK    3  A    between atoms: N_8  and  C_9 
REMARK    4  A    between atoms: C_9  and  C_10 
REMARK    5  A    between atoms: C_12  and  O_13 
REMARK    6  A    between atoms: O_13  and  C_14 
ROOT
HETATM    1  N   UNL     1       6.587  24.520  54.324  1.00  0.00    -0.333 N 
HETATM    2  C   UNL     1       5.468  25.285  54.323  1.00  0.00     0.317 C 
HETATM    3  N   UNL     1       5.191  25.944  55.474  1.00  0.00    -0.339 N 
HETATM    4  O   UNL     1       4.728  25.414  53.354  1.00  0.00    -0.247 OA
HETATM    5  H   UNL     1       6.927  24.175  55.210  1.00  0.00     0.165 HD
HETATM    6  H   UNL     1       4.342  26.492  55.422  1.00  0.00     0.164 HD
ENDROOT
BRANCH   3   7
HETATM    7  C   UNL     1       6.012  26.080  56.657  1.00  0.00     0.163 C 
BRANCH   7   8
HETATM    8  C   UNL     1       6.253  27.504  57.092  1.00  0.00    -0.035 A 
HETATM    9  C   UNL     1       7.398  27.916  57.781  1.00  0.00     0.066 A 
HETATM   10  C   UNL     1       7.506  29.244  58.166  1.00  0.00     0.164 A 
HETATM   11  N   UNL     1       6.576  30.185  57.907  1.00  0.00    -0.237 NA
HETATM   12  C   UNL     1       5.484  29.777  57.231  1.00  0.00     0.120 A 
HETATM   13  C   UNL     1       5.280  28.470  56.810  1.00  0.00     0.028 A 
BRANCH  10  14
HETATM   14  O   UNL     1       8.647  29.596  58.862  1.00  0.00    -0.329 OA
BRANCH  14  15
HETATM   15  C   UNL     1       8.502  30.677  59.807  1.00  0.00     0.130 C 
HETATM   16  C   UNL     1       9.216  30.505  61.176  1.00  0.00     0.032 C 
HETATM   17  C   UNL     1       9.598  31.993  61.096  1.00  0.00     0.005 C 
HETATM   18  C   UNL     1       9.451  31.881  59.568  1.00  0.00     0.032 C 
ENDBRANCH  14  15
ENDBRANCH  10  14
ENDBRANCH   7   8
ENDBRANCH   3   7
BRANCH   1  19
HETATM   19  C   UNL     1       6.998  23.761  53.157  1.00  0.00     0.139 C 
HETATM   20  C   UNL     1       8.034  24.530  52.341  1.00  0.00     0.039 C 
BRANCH  19  21
HETATM   21  C   UNL     1       7.552  22.446  53.610  1.00  0.00     0.075 A 
HETATM   22  O   UNL     1       7.663  22.239  54.959  1.00  0.00    -0.318 OA
HETATM   23  C   UNL     1       8.173  20.989  55.133  1.00  0.00     0.049 A 
HETATM   24  C   UNL     1       8.372  20.544  56.527  1.00  0.00     0.076 C 
HETATM   25  C   UNL     1       8.396  20.392  53.912  1.00  0.00     0.035 A 
HETATM   26  C   UNL     1       7.994  21.328  52.930  1.00  0.00     0.037 A 
ENDBRANCH  19  21
ENDBRANCH   1  19
TORSDOF 6
ENDMDL
MODEL 3
REMARK VINA RESULT:      -8.1      2.257      8.693
REMARK  6 active torsions:
REMARK  status: ('A' for Active; 'I' for Inactive)
REMARK    1  A    between atoms: C_4  and  C_5 
REMARK    2  A    between atoms: C_5  and  N_6 
REMARK       I    between atoms: N_6  and  C_7 
REMARK       I    between atoms: C_7  and  N_8 
REMARK    3  A    between atoms: N_8  and  C_9 
REMARK    4  A    between atoms: C_9  and  C_10 
REMARK    5  A    between atoms: C_12  and  O_13 
REMARK    6  A    between atoms: O_13  and  C_14 
ROOT
HETATM    1  N   UNL     1       7.774  29.071  57.348  1.00  0.00    -0.333 N 
HETATM    2  C   UNL     1       7.178  27.877  57.582  1.00  0.00     0.317 C 
HETATM    3  N   UNL     1       5.864  27.790  57.265  1.00  0.00    -0.339 N 
HETATM    4  O   UNL     1       7.761  26.900  58.040  1.00  0.00    -0.247 OA
HETATM    5  H   UNL     1       7.194  29.897  57.326  1.00  0.00     0.165 HD
HETATM    6  H   UNL     1       5.467  26.882  57.468  1.00  0.00     0.164 HD
ENDROOT
BRANCH   3   7
HETATM    7  C   UNL     1       5.041  28.744  56.555  1.00  0.00     0.163 C 
BRANCH   7   8
HETATM    8  C   UNL     1       4.749  28.375  55.122  1.00  0.00    -0.035 A 
HETATM    9  C   UNL     1       5.195  27.191  54.524  1.00  0.00     0.066 A 
HETATM   10  C   UNL     1       4.899  26.964  53.188  1.00  0.00     0.164 A 
HETATM   11  N   UNL     1       4.189  27.810  52.416  1.00  0.00    -0.237 NA
HETATM   12  C   UNL     1       3.754  28.939  53.008  1.00  0.00     0.120 A 
HETATM   13  C   UNL     1       4.005  29.262  54.335  1.00  0.00     0.028 A 
BRANCH  10  14
HETATM   14  O   UNL     1       5.380  25.790  52.639  1.00  0.00    -0.329 OA
BRANCH  14  15
HETATM   15  C   UNL     1       6.663  25.344  53.128  1.00  0.00     0.130 C 
HETATM   16  C   UNL     1       6.736  23.886  53.659  1.00  0.00     0.032 C 
HETATM   17  C   UNL     1       8.108  23.769  52.974  1.00  0.00     0.005 C 
HETATM   18  C   UNL     1       7.657  24.895  52.026  1.00  0.00     0.032 C 
ENDBRANCH  14  15
ENDBRANCH  10  14
ENDBRANCH   7   8
ENDBRANCH   3   7
BRANCH   1  19
HETATM   19  C   UNL     1       9.177  29.299  57.643  1.00  0.00     0.139 C 
HETATM   20  C   UNL     1       9.932  29.758  56.398  1.00  0.00     0.039 C 
BRANCH  19  21
HETATM   21  C   UNL     1       9.279  30.324  58.730  1.00  0.00     0.075 A 
HETATM   22  O   UNL     1       8.774  29.993  59.958  1.00  0.00    -0.318 OA
HETATM   23  C   UNL     1       8.985  31.059  60.779  1.00  0.00     0.049 A 
HETATM   24  C   UNL     1       8.522  30.920  62.175  1.00  0.00     0.076 C 
HETATM   25  C   UNL     1       9.613  32.072  60.092  1.00  0.00     0.035 A 
HETATM   26  C   UNL     1       9.806  31.600  58.771  1.00  0.00     0.037 A 
ENDBRANCH  19  21
ENDBRANCH   1  19
TORSDOF 6
ENDMDL
MODEL 4
REMARK VINA RESULT:      -8.0      2.683      3.391
REMARK  6 active torsions:
REMARK  status: ('A' for Active; 'I' for Inactive)
REMARK    1  A    between atoms: C_4  and  C_5 
REMARK    2  A    between atoms: C_5  and  N_6 
REMARK       I    between atoms: N_6  and  C_7 
REMARK       I    between atoms: C_7  and  N_8 
REMARK    3  A    between atoms: N_8  and  C_9 
REMARK    4  A    between atoms: C_9  and  C_10 
REMARK    5  A    between atoms: C_12  and  O_13 
REMARK    6  A    between atoms: O_13  and  C_14 
ROOT
HETATM    1  N   UNL     1       6.407  24.617  54.321  1.00  0.00    -0.333 N 
HETATM    2  C   UNL     1       5.374  25.493  54.275  1.00  0.00     0.317 C 
HETATM    3  N   UNL     1       5.020  26.065  55.451  1.00  0.00    -0.339 N 
HETATM    4  O   UNL     1       4.774  25.791  53.248  1.00  0.00    -0.247 OA
HETATM    5  H   UNL     1       6.602  24.156  55.197  1.00  0.00     0.165 HD
HETATM    6  H   UNL     1       4.239  26.702  55.362  1.00  0.00     0.164 HD
ENDROOT
BRANCH   3   7
HETATM    7  C   UNL     1       5.698  26.000  56.727  1.00  0.00     0.163 C 
BRANCH   7   8
HETATM    8  C   UNL     1       6.584  27.182  57.027  1.00  0.00    -0.035 A 
HETATM    9  C   UNL     1       6.094  28.443  57.381  1.00  0.00     0.066 A 
HETATM   10  C   UNL     1       6.996  29.473  57.603  1.00  0.00     0.164 A 
HETATM   11  N   UNL     1       8.334  29.340  57.514  1.00  0.00    -0.237 NA
HETATM   12  C   UNL     1       8.793  28.117  57.185  1.00  0.00     0.120 A 
HETATM   13  C   UNL     1       7.973  27.026  56.935  1.00  0.00     0.028 A 
BRANCH  10  14
HETATM   14  O   UNL     1       6.460  30.705  57.931  1.00  0.00    -0.329 OA
BRANCH  14  15
HETATM   15  C   UNL     1       5.099  30.934  57.507  1.00  0.00     0.130 C 
HETATM   16  C   UNL     1       4.222  31.821  58.432  1.00  0.00     0.032 C 
HETATM   17  C   UNL     1       3.641  32.466  57.162  1.00  0.00     0.005 C 
HETATM   18  C   UNL     1       4.931  32.043  56.436  1.00  0.00     0.032 C 
ENDBRANCH  14  15
ENDBRANCH  10  14
ENDBRANCH   7   8
ENDBRANCH   3   7
BRANCH   1  19
HETATM   19  C   UNL     1       6.885  23.934  53.132  1.00  0.00     0.139 C 
HETATM   20  C   UNL     1       7.951  24.761  52.417  1.00  0.00     0.039 C 
BRANCH  19  21
HETATM   21  C   UNL     1       7.434  22.599  53.534  1.00  0.00     0.075 A 
HETATM   22  O   UNL     1       7.438  22.296  54.868  1.00  0.00    -0.318 OA
HETATM   23  C   UNL     1       7.963  21.045  54.994  1.00  0.00     0.049 A 
HETATM   24  C   UNL     1       8.058  20.502  56.364  1.00  0.00     0.076 C 
HETATM   25  C   UNL     1       8.302  20.545  53.757  1.00  0.00     0.035 A 
HETATM   26  C   UNL     1       7.958  21.544  52.814  1.00  0.00     0.037 A 
ENDBRANCH  19  21
ENDBRANCH   1  19
TORSDOF 6
ENDMDL
MODEL 5
REMARK VINA RESULT:      -7.9      2.584      3.810
REMARK  6 active torsions:
REMARK  status: ('A' for Active; 'I' for Inactive)
REMARK    1  A    between atoms: C_4  and  C_5 
REMARK    2  A    between atoms: C_5  and  N_6 
REMARK       I    between atoms: N_6  and  C_7 
REMARK       I    between atoms: C_7  and  N_8 
REMARK    3  A    between atoms: N_8  and  C_9 
REMARK    4  A    between atoms: C_9  and  C_10 
REMARK    5  A    between atoms: C_12  and  O_13 
REMARK    6  A    between atoms: O_13  and  C_14 
ROOT
HETATM    1  N   UNL     1       6.324  25.366  53.602  1.00  0.00    -0.333 N 
HETATM    2  C   UNL     1       4.997  25.553  53.400  1.00  0.00     0.317 C 
HETATM    3  N   UNL     1       4.453  26.654  53.972  1.00  0.00    -0.339 N 
HETATM    4  O   UNL     1       4.294  24.803  52.732  1.00  0.00    -0.247 OA
HETATM    5  H   UNL     1       6.745  25.783  54.419  1.00  0.00     0.165 HD
HETATM    6  H   UNL     1       3.460  26.741  53.798  1.00  0.00     0.164 HD
ENDROOT
BRANCH   3   7
HETATM    7  C   UNL     1       5.122  27.752  54.633  1.00  0.00     0.163 C 
BRANCH   7   8
HETATM    8  C   UNL     1       6.031  27.343  55.764  1.00  0.00    -0.035 A 
HETATM    9  C   UNL     1       7.317  27.862  55.946  1.00  0.00     0.066 A 
HETATM   10  C   UNL     1       8.086  27.391  57.001  1.00  0.00     0.164 A 
HETATM   11  N   UNL     1       7.669  26.464  57.886  1.00  0.00    -0.237 NA
HETATM   12  C   UNL     1       6.423  25.983  57.707  1.00  0.00     0.120 A 
HETATM   13  C   UNL     1       5.581  26.383  56.679  1.00  0.00     0.028 A 
BRANCH  10  14
HETATM   14  O   UNL     1       9.356  27.921  57.124  1.00  0.00    -0.329 OA
BRANCH  14  15
HETATM   15  C   UNL     1       9.457  29.356  57.003  1.00  0.00     0.130 C 
HETATM   16  C   UNL     1       9.219  30.182  58.297  1.00  0.00     0.032 C 
HETATM   17  C   UNL     1      10.377  31.093  57.855  1.00  0.00     0.005 C 
HETATM   18  C   UNL     1      10.905  29.910  57.025  1.00  0.00     0.032 C 
ENDBRANCH  14  15
ENDBRANCH  10  14
ENDBRANCH   7   8
ENDBRANCH   3   7
BRANCH   1  19
HETATM   19  C   UNL     1       7.031  24.227  53.045  1.00  0.00     0.139 C 
HETATM   20  C   UNL     1       8.089  24.675  52.040  1.00  0.00     0.039 C 
BRANCH  19  21
HETATM   21  C   UNL     1       7.660  23.458  54.166  1.00  0.00     0.075 A 
HETATM   22  O   UNL     1       7.639  22.092  54.084  1.00  0.00    -0.318 OA
HETATM   23  C   UNL     1       8.269  21.613  55.192  1.00  0.00     0.049 A 
HETATM   24  C   UNL     1       8.372  20.144  55.311  1.00  0.00     0.076 C 
HETATM   25  C   UNL     1       8.690  22.655  55.987  1.00  0.00     0.035 A 
HETATM   26  C   UNL     1       8.301  23.845  55.327  1.00  0.00     0.037 A 
ENDBRANCH  19  21
ENDBRANCH   1  19
TORSDOF 6
ENDMDL
MODEL 6
REMARK VINA RESULT:      -7.8      5.170      9.234
REMARK  6 active torsions:
REMARK  status: ('A' for Active; 'I' for Inactive)
REMARK    1  A    between atoms: C_4  and  C_5 
REMARK    2  A    between atoms: C_5  and  N_6 
REMARK       I    between atoms: N_6  and  C_7 
REMARK       I    between atoms: C_7  and  N_8 
REMARK    3  A    between atoms: N_8  and  C_9 
REMARK    4  A    between atoms: C_9  and  C_10 
REMARK    5  A    between atoms: C_12  and  O_13 
REMARK    6  A    between atoms: O_13  and  C_14 
ROOT
HETATM    1  N   UNL     1       3.971  25.925  49.823  1.00  0.00    -0.333 N 
HETATM    2  C   UNL     1       4.949  26.727  50.309  1.00  0.00     0.317 C 
HETATM    3  N   UNL     1       5.204  26.627  51.636  1.00  0.00    -0.339 N 
HETATM    4  O   UNL     1       5.602  27.504  49.620  1.00  0.00    -0.247 OA
HETATM    5  H   UNL     1       3.258  25.603  50.461  1.00  0.00     0.165 HD
HETATM    6  H   UNL     1       5.934  27.253  51.947  1.00  0.00     0.164 HD
ENDROOT
BRANCH   3   7
HETATM    7  C   UNL     1       4.691  25.661  52.583  1.00  0.00     0.163 C 
BRANCH   7   8
HETATM    8  C   UNL     1       5.549  25.469  53.808  1.00  0.00    -0.035 A 
HETATM    9  C   UNL     1       6.333  24.333  54.031  1.00  0.00     0.066 A 
HETATM   10  C   UNL     1       7.059  24.241  55.208  1.00  0.00     0.164 A 
HETATM   11  N   UNL     1       7.074  25.191  56.164  1.00  0.00    -0.237 NA
HETATM   12  C   UNL     1       6.325  26.286  55.931  1.00  0.00     0.120 A 
HETATM   13  C   UNL     1       5.558  26.469  54.789  1.00  0.00     0.028 A 
BRANCH  10  14
HETATM   14  O   UNL     1       7.802  23.089  55.389  1.00  0.00    -0.329 OA
BRANCH  14  15
HETATM   15  C   UNL     1       7.707  22.105  54.336  1.00  0.00     0.130 C 
HETATM   16  C   UNL     1       8.990  21.857  53.498  1.00  0.00     0.032 C 
HETATM   17  C   UNL     1       8.646  20.358  53.526  1.00  0.00     0.005 C 
HETATM   18  C   UNL     1       7.842  20.634  54.809  1.00  0.00     0.032 C 
ENDBRANCH  14  15
ENDBRANCH  10  14
ENDBRANCH   7   8
ENDBRANCH   3   7
BRANCH   1  19
HETATM   19  C   UNL     1       3.599  25.934  48.420  1.00  0.00     0.139 C 
HETATM   20  C   UNL     1       3.113  24.558  47.973  1.00  0.00     0.039 C 
BRANCH  19  21
HETATM   21  C   UNL     1       2.530  26.964  48.214  1.00  0.00     0.075 A 
HETATM   22  O   UNL     1       1.630  26.745  47.207  1.00  0.00    -0.318 OA
HETATM   23  C   UNL     1       0.757  27.791  47.215  1.00  0.00     0.049 A 
HETATM   24  C   UNL     1      -0.320  27.760  46.205  1.00  0.00     0.076 C 
HETATM   25  C   UNL     1       1.091  28.681  48.210  1.00  0.00     0.035 A 
HETATM   26  C   UNL     1       2.232  28.149  48.857  1.00  0.00     0.037 A 
ENDBRANCH  19  21
ENDBRANCH   1  19
TORSDOF 6
ENDMDL
MODEL 7
REMARK VINA RESULT:      -7.8      6.301      8.639
REMARK  6 active torsions:
REMARK  status: ('A' for Active; 'I' for Inactive)
REMARK    1  A    between atoms: C_4  and  C_5 
REMARK    2  A    between atoms: C_5  and  N_6 
REMARK       I    between atoms: N_6  and  C_7 
REMARK       I    between atoms: C_7  and  N_8 
REMARK    3  A    between atoms: N_8  and  C_9 
REMARK    4  A    between atoms: C_9  and  C_10 
REMARK    5  A    between atoms: C_12  and  O_13 
REMARK    6  A    between atoms: O_13  and  C_14 
ROOT
HETATM    1  N   UNL     1       4.084  27.579  51.327  1.00  0.00    -0.333 N 
HETATM    2  C   UNL     1       4.055  27.781  52.666  1.00  0.00     0.317 C 
HETATM    3  N   UNL     1       4.108  26.671  53.442  1.00  0.00    -0.339 N 
HETATM    4  O   UNL     1       3.999  28.889  53.190  1.00  0.00    -0.247 OA
HETATM    5  H   UNL     1       3.770  26.687  50.973  1.00  0.00     0.165 HD
HETATM    6  H   UNL     1       4.074  26.879  54.432  1.00  0.00     0.164 HD
ENDROOT
BRANCH   3   7
HETATM    7  C   UNL     1       4.360  25.304  53.046  1.00  0.00     0.163 C 
BRANCH   7   8
HETATM    8  C   UNL     1       5.793  24.860  53.201  1.00  0.00    -0.035 A 
HETATM    9  C   UNL     1       6.305  24.307  54.380  1.00  0.00     0.066 A 
HETATM   10  C   UNL     1       7.648  23.963  54.428  1.00  0.00     0.164 A 
HETATM   11  N   UNL     1       8.505  24.113  53.399  1.00  0.00    -0.237 NA
HETATM   12  C   UNL     1       7.996  24.634  52.267  1.00  0.00     0.120 A 
HETATM   13  C   UNL     1       6.670  25.017  52.121  1.00  0.00     0.028 A 
BRANCH  10  14
HETATM   14  O   UNL     1       8.109  23.440  55.622  1.00  0.00    -0.329 OA
BRANCH  14  15
HETATM   15  C   UNL     1       8.682  22.116  55.551  1.00  0.00     0.130 C 
HETATM   16  C   UNL     1       8.515  21.218  56.807  1.00  0.00     0.032 C 
HETATM   17  C   UNL     1       8.252  20.039  55.855  1.00  0.00     0.005 C 
HETATM   18  C   UNL     1       7.812  21.072  54.803  1.00  0.00     0.032 C 
ENDBRANCH  14  15
ENDBRANCH  10  14
ENDBRANCH   7   8
ENDBRANCH   3   7
BRANCH   1  19
HETATM   19  C   UNL     1       4.033  28.681  50.384  1.00  0.00     0.139 C 
HETATM   20  C   UNL     1       5.430  29.232  50.108  1.00  0.00     0.039 C 
BRANCH  19  21
HETATM   21  C   UNL     1       3.396  28.199  49.117  1.00  0.00     0.075 A 
HETATM   22  O   UNL     1       3.514  26.869  48.818  1.00  0.00    -0.318 OA
HETATM   23  C   UNL     1       2.856  26.661  47.644  1.00  0.00     0.049 A 
HETATM   24  C   UNL     1       2.845  25.278  47.128  1.00  0.00     0.076 C 
HETATM   25  C   UNL     1       2.323  27.844  47.182  1.00  0.00     0.035 A 
HETATM   26  C   UNL     1       2.667  28.835  48.131  1.00  0.00     0.037 A 
ENDBRANCH  19  21
ENDBRANCH   1  19
TORSDOF 6
ENDMDL
MODEL 8
REMARK VINA RESULT:      -7.8      2.029      9.493
REMARK  6 active torsions:
REMARK  status: ('A' for Active; 'I' for Inactive)
REMARK    1  A    between atoms: C_4  and  C_5 
REMARK    2  A    between atoms: C_5  and  N_6 
REMARK       I    between atoms: N_6  and  C_7 
REMARK       I    between atoms: C_7  and  N_8 
REMARK    3  A    between atoms: N_8  and  C_9 
REMARK    4  A    between atoms: C_9  and  C_10 
REMARK    5  A    between atoms: C_12  and  O_13 
REMARK    6  A    between atoms: O_13  and  C_14 
ROOT
HETATM    1  N   UNL     1       6.744  31.109  58.964  1.00  0.00    -0.333 N 
HETATM    2  C   UNL     1       8.047  30.884  58.668  1.00  0.00     0.317 C 
HETATM    3  N   UNL     1       8.372  29.617  58.312  1.00  0.00    -0.339 N 
HETATM    4  O   UNL     1       8.914  31.751  58.694  1.00  0.00    -0.247 OA
HETATM    5  H   UNL     1       6.184  30.328  59.272  1.00  0.00     0.165 HD
HETATM    6  H   UNL     1       9.356  29.503  58.112  1.00  0.00     0.164 HD
ENDROOT
BRANCH   3   7
HETATM    7  C   UNL     1       7.492  28.502  58.041  1.00  0.00     0.163 C 
BRANCH   7   8
HETATM    8  C   UNL     1       7.528  28.007  56.617  1.00  0.00    -0.035 A 
HETATM    9  C   UNL     1       7.104  26.730  56.234  1.00  0.00     0.066 A 
HETATM   10  C   UNL     1       7.211  26.362  54.901  1.00  0.00     0.164 A 
HETATM   11  N   UNL     1       7.690  27.165  53.931  1.00  0.00    -0.237 NA
HETATM   12  C   UNL     1       8.083  28.396  54.311  1.00  0.00     0.120 A 
HETATM   13  C   UNL     1       8.023  28.855  55.619  1.00  0.00     0.028 A 
BRANCH  10  14
HETATM   14  O   UNL     1       6.798  25.083  54.578  1.00  0.00    -0.329 OA
BRANCH  14  15
HETATM   15  C   UNL     1       7.841  24.157  54.205  1.00  0.00     0.130 C 
HETATM   16  C   UNL     1       7.724  22.714  54.768  1.00  0.00     0.032 C 
HETATM   17  C   UNL     1       8.199  22.206  53.396  1.00  0.00     0.005 C 
HETATM   18  C   UNL     1       7.675  23.524  52.799  1.00  0.00     0.032 C 
ENDBRANCH  14  15
ENDBRANCH  10  14
ENDBRANCH   7   8
ENDBRANCH   3   7
BRANCH   1  19
HETATM   19  C   UNL     1       6.264  32.420  59.360  1.00  0.00     0.139 C 
HETATM   20  C   UNL     1       4.946  32.754  58.665  1.00  0.00     0.039 C 
BRANCH  19  21
HETATM   21  C   UNL     1       6.096  32.440  60.849  1.00  0.00     0.075 A 
HETATM   22  O   UNL     1       7.217  32.642  61.607  1.00  0.00    -0.318 OA
HETATM   23  C   UNL     1       6.826  32.633  62.911  1.00  0.00     0.049 A 
HETATM   24  C   UNL     1       7.885  32.843  63.920  1.00  0.00     0.076 C 
HETATM   25  C   UNL     1       5.469  32.421  63.000  1.00  0.00     0.035 A 
HETATM   26  C   UNL     1       4.996  32.300  61.671  1.00  0.00     0.037 A 
ENDBRANCH  19  21
ENDBRANCH   1  19
TORSDOF 6
ENDMDL
MODEL 9
REMARK VINA RESULT:      -7.6      2.286      3.358
REMARK  6 active torsions:
REMARK  status: ('A' for Active; 'I' for Inactive)
REMARK    1  A    between atoms: C_4  and  C_5 
REMARK    2  A    between atoms: C_5  and  N_6 
REMARK       I    between atoms: N_6  and  C_7 
REMARK       I    between atoms: C_7  and  N_8 
REMARK    3  A    between atoms: N_8  and  C_9 
REMARK    4  A    between atoms: C_9  and  C_10 
REMARK    5  A    between atoms: C_12  and  O_13 
REMARK    6  A    between atoms: O_13  and  C_14 
ROOT
HETATM    1  N   UNL     1       7.245  26.140  56.025  1.00  0.00    -0.333 N 
HETATM    2  C   UNL     1       7.652  26.548  57.251  1.00  0.00     0.317 C 
HETATM    3  N   UNL     1       7.135  27.719  57.696  1.00  0.00    -0.339 N 
HETATM    4  O   UNL     1       8.431  25.918  57.958  1.00  0.00    -0.247 OA
HETATM    5  H   UNL     1       6.919  26.839  55.374  1.00  0.00     0.165 HD
HETATM    6  H   UNL     1       7.479  27.981  58.611  1.00  0.00     0.164 HD
ENDROOT
BRANCH   3   7
HETATM    7  C   UNL     1       6.079  28.518  57.116  1.00  0.00     0.163 C 
BRANCH   7   8
HETATM    8  C   UNL     1       6.106  29.974  57.508  1.00  0.00    -0.035 A 
HETATM    9  C   UNL     1       7.048  30.518  58.388  1.00  0.00     0.066 A 
HETATM   10  C   UNL     1       6.963  31.865  58.708  1.00  0.00     0.164 A 
HETATM   11  N   UNL     1       6.032  32.704  58.213  1.00  0.00    -0.237 NA
HETATM   12  C   UNL     1       5.140  32.169  57.357  1.00  0.00     0.120 A 
HETATM   13  C   UNL     1       5.135  30.834  56.980  1.00  0.00     0.028 A 
BRANCH  10  14
HETATM   14  O   UNL     1       7.905  32.349  59.598  1.00  0.00    -0.329 OA
BRANCH  14  15
HETATM   15  C   UNL     1       7.804  31.858  60.952  1.00  0.00     0.130 C 
HETATM   16  C   UNL     1       9.104  31.891  61.802  1.00  0.00     0.032 C 
HETATM   17  C   UNL     1       8.242  32.343  62.993  1.00  0.00     0.005 C 
HETATM   18  C   UNL     1       7.223  32.875  61.969  1.00  0.00     0.032 C 
ENDBRANCH  14  15
ENDBRANCH  10  14
ENDBRANCH   7   8
ENDBRANCH   3   7
BRANCH   1  19
HETATM   19  C   UNL     1       7.722  24.904  55.431  1.00  0.00     0.139 C 
HETATM   20  C   UNL     1       6.989  23.698  56.012  1.00  0.00     0.039 C 
BRANCH  19  21
HETATM   21  C   UNL     1       7.525  24.978  53.947  1.00  0.00     0.075 A 
HETATM   22  O   UNL     1       6.596  25.866  53.478  1.00  0.00    -0.318 OA
HETATM   23  C   UNL     1       6.598  25.769  52.120  1.00  0.00     0.049 A 
HETATM   24  C   UNL     1       5.665  26.654  51.392  1.00  0.00     0.076 C 
HETATM   25  C   UNL     1       7.513  24.825  51.712  1.00  0.00     0.035 A 
HETATM   26  C   UNL     1       8.114  24.316  52.888  1.00  0.00     0.037 A 
ENDBRANCH  19  21
ENDBRANCH   1  19
TORSDOF 6
ENDMDL
MODEL 10
REMARK VINA RESULT:      -7.4      4.758      8.904
REMARK  6 active torsions:
REMARK  status: ('A' for Active; 'I' for Inactive)
REMARK    1  A    between atoms: C_4  and  C_5 
REMARK    2  A    between atoms: C_5  and  N_6 
REMARK       I    between atoms: N_6  and  C_7 
REMARK       I    between atoms: C_7  and  N_8 
REMARK    3  A    between atoms: N_8  and  C_9 
REMARK    4  A    between atoms: C_9  and  C_10 
REMARK    5  A    between atoms: C_12  and  O_13 
REMARK    6  A    between atoms: O_13  and  C_14 
ROOT
HETATM    1  N   UNL     1       6.118  26.609  54.957  1.00  0.00    -0.333 N 
HETATM    2  C   UNL     1       6.683  27.795  54.626  1.00  0.00     0.317 C 
HETATM    3  N   UNL     1       5.967  28.589  53.793  1.00  0.00    -0.339 N 
HETATM    4  O   UNL     1       7.771  28.175  55.045  1.00  0.00    -0.247 OA
HETATM    5  H   UNL     1       5.439  26.212  54.325  1.00  0.00     0.165 HD
HETATM    6  H   UNL     1       6.438  29.456  53.572  1.00  0.00     0.164 HD
ENDROOT
BRANCH   3   7
HETATM    7  C   UNL     1       4.606  28.422  53.336  1.00  0.00     0.163 C 
BRANCH   7   8
HETATM    8  C   UNL     1       4.476  27.965  51.905  1.00  0.00    -0.035 A 
HETATM    9  C   UNL     1       3.728  28.648  50.941  1.00  0.00     0.066 A 
HETATM   10  C   UNL     1       3.647  28.123  49.660  1.00  0.00     0.164 A 
HETATM   11  N   UNL     1       4.260  26.988  49.268  1.00  0.00    -0.237 NA
HETATM   12  C   UNL     1       4.988  26.347  50.202  1.00  0.00     0.120 A 
HETATM   13  C   UNL     1       5.124  26.787  51.511  1.00  0.00     0.028 A 
BRANCH  10  14
HETATM   14  O   UNL     1       2.878  28.825  48.751  1.00  0.00    -0.329 OA
BRANCH  14  15
HETATM   15  C   UNL     1       2.310  28.051  47.674  1.00  0.00     0.130 C 
HETATM   16  C   UNL     1       1.039  27.222  48.008  1.00  0.00     0.032 C 
HETATM   17  C   UNL     1       0.483  27.634  46.634  1.00  0.00     0.005 C 
HETATM   18  C   UNL     1       1.415  28.857  46.696  1.00  0.00     0.032 C 
ENDBRANCH  14  15
ENDBRANCH  10  14
ENDBRANCH   7   8
ENDBRANCH   3   7
BRANCH   1  19
HETATM   19  C   UNL     1       6.779  25.665  55.841  1.00  0.00     0.139 C 
HETATM   20  C   UNL     1       5.861  25.254  56.989  1.00  0.00     0.039 C 
BRANCH  19  21
HETATM   21  C   UNL     1       7.192  24.468  55.041  1.00  0.00     0.075 A 
HETATM   22  O   UNL     1       7.293  23.273  55.701  1.00  0.00    -0.318 OA
HETATM   23  C   UNL     1       7.666  22.339  54.783  1.00  0.00     0.049 A 
HETATM   24  C   UNL     1       7.830  20.956  55.277  1.00  0.00     0.076 C 
HETATM   25  C   UNL     1       7.812  22.920  53.544  1.00  0.00     0.035 A 
HETATM   26  C   UNL     1       7.504  24.292  53.707  1.00  0.00     0.037 A 
ENDBRANCH  19  21
ENDBRANCH   1  19
TORSDOF 6
ENDMDL
