MODEL 1
REMARK VINA RESULT:      -9.2      0.000      0.000
REMARK  7 active torsions:
REMARK  status: ('A' for Active; 'I' for Inactive)
REMARK    1  A    between atoms: C_2  and  C_3 
REMARK       I    between atoms: C_3  and  N_4 
REMARK    2  A    between atoms: N_7  and  C_8 
REMARK    3  A    between atoms: C_9  and  N_10 
REMARK    4  A    between atoms: N_10  and  C_11 
REMARK    5  A    between atoms: C_11  and  N_12 
REMARK       I    between atoms: N_12  and  C_13 
REMARK    6  A    between atoms: C_13  and  C_14 
REMARK    7  A    between atoms: C_15  and  O_16 
ROOT
HETATM    1  C   UNL     1       5.766  26.527  51.705  1.00  0.00     0.037 A 
HETATM    2  C   UNL     1       5.699  27.901  52.067  1.00  0.00     0.057 A 
HETATM    3  C   UNL     1       4.967  28.809  51.296  1.00  0.00     0.055 A 
HETATM    4  C   UNL     1       4.259  28.355  50.188  1.00  0.00     0.036 A 
HETATM    5 CL   UNL     1       3.338  29.468  49.251  1.00  0.00    -0.084 Cl
HETATM    6  C   UNL     1       4.297  27.012  49.823  1.00  0.00     0.026 A 
HETATM    7  C   UNL     1       5.053  26.106  50.573  1.00  0.00     0.027 A 
ENDROOT
BRANCH   2   8
HETATM    8  N   UNL     1       6.483  28.300  53.174  1.00  0.00    -0.331 N 
HETATM    9  H   UNL     1       7.450  28.480  52.911  1.00  0.00     0.168 HD
BRANCH   8  10
HETATM   10  C   UNL     1       6.150  28.596  54.448  1.00  0.00     0.179 C 
HETATM   11  S   UNL     1       4.606  28.249  54.990  1.00  0.00    -0.040 SA
BRANCH  10  12
HETATM   12  N   UNL     1       7.011  29.219  55.303  1.00  0.00    -0.299 N 
HETATM   13  C   UNL     1       7.802  28.671  56.310  1.00  0.00     0.260 C 
HETATM   14  O   UNL     1       7.897  27.484  56.599  1.00  0.00    -0.267 OA
HETATM   15  H   UNL     1       7.316  30.128  54.971  1.00  0.00     0.171 HD
BRANCH  13  16
HETATM   16  C   UNL     1       8.611  29.655  57.073  1.00  0.00     0.066 A 
HETATM   17  C   UNL     1       8.068  30.465  58.082  1.00  0.00     0.089 A 
HETATM   18  C   UNL     1       8.893  31.314  58.836  1.00  0.00    -0.028 A 
HETATM   19  C   UNL     1       8.344  32.170  59.941  1.00  0.00     0.051 C 
HETATM   20  C   UNL     1      10.256  31.396  58.508  1.00  0.00     0.009 A 
HETATM   21  C   UNL     1      10.791  30.624  57.475  1.00  0.00     0.002 A 
HETATM   22  C   UNL     1       9.972  29.753  56.758  1.00  0.00     0.020 A 
BRANCH  17  23
HETATM   23  O   UNL     1       6.728  30.396  58.384  1.00  0.00    -0.354 OA
HETATM   24  C   UNL     1       6.014  31.420  57.681  1.00  0.00     0.210 C 
ENDBRANCH  17  23
ENDBRANCH  13  16
ENDBRANCH  10  12
ENDBRANCH   8  10
ENDBRANCH   2   8
BRANCH   1  25
HETATM   25  N   UNL     1       6.519  25.642  52.515  1.00  0.00    -0.278 NA
HETATM   26  C   UNL     1       7.517  24.786  51.838  1.00  0.00     0.115 C 
HETATM   27  C   UNL     1       8.400  24.086  52.887  1.00  0.00     0.140 C 
HETATM   28  N   UNL     1       7.628  23.385  53.925  1.00  0.00    -0.350 N 
HETATM   29  C   UNL     1       8.282  22.367  54.616  1.00  0.00     0.219 C 
HETATM   30  C   UNL     1       6.490  24.137  54.480  1.00  0.00     0.140 C 
HETATM   31  O   UNL     1       9.368  21.921  54.245  1.00  0.00    -0.273 OA
HETATM   32  C   UNL     1       5.639  24.835  53.401  1.00  0.00     0.115 C 
BRANCH  29  33
HETATM   33  C   UNL     1       7.580  21.817  55.850  1.00  0.00     0.098 C 
HETATM   34  C   UNL     1       7.975  20.380  56.151  1.00  0.00     0.014 C 
ENDBRANCH  29  33
ENDBRANCH   1  25
TORSDOF 7
ENDMDL
MODEL 2
REMARK VINA RESULT:      -9.2      3.760      9.502
REMARK  7 active torsions:
REMARK  status: ('A' for Active; 'I' for Inactive)
REMARK    1  A    between atoms: C_2  and  C_3 
REMARK       I    between atoms: C_3  and  N_4 
REMARK    2  A    between atoms: N_7  and  C_8 
REMARK    3  A    between atoms: C_9  and  N_10 
REMARK    4  A    between atoms: N_10  and  C_11 
REMARK    5  A    between atoms: C_11  and  N_12 
REMARK       I    between atoms: N_12  and  C_13 
REMARK    6  A    between atoms: C_13  and  C_14 
REMARK    7  A    between atoms: C_15  and  O_16 
ROOT
HETATM    1  C   UNL     1       7.596  31.195  58.908  1.00  0.00     0.037 A 
HETATM    2  C   UNL     1       7.689  29.942  58.242  1.00  0.00     0.057 A 
HETATM    3  C   UNL     1       8.906  29.501  57.714  1.00  0.00     0.055 A 
HETATM    4  C   UNL     1      10.049  30.277  57.882  1.00  0.00     0.036 A 
HETATM    5 CL   UNL     1      11.553  29.725  57.253  1.00  0.00    -0.084 Cl
HETATM    6  C   UNL     1       9.986  31.500  58.544  1.00  0.00     0.026 A 
HETATM    7  C   UNL     1       8.764  31.959  59.047  1.00  0.00     0.027 A 
ENDROOT
BRANCH   2   8
HETATM    8  N   UNL     1       6.480  29.230  58.064  1.00  0.00    -0.331 N 
HETATM    9  H   UNL     1       5.950  29.159  58.931  1.00  0.00     0.168 HD
BRANCH   8  10
HETATM   10  C   UNL     1       5.872  28.757  56.956  1.00  0.00     0.179 C 
HETATM   11  S   UNL     1       4.499  29.526  56.389  1.00  0.00    -0.040 SA
BRANCH  10  12
HETATM   12  N   UNL     1       6.303  27.639  56.306  1.00  0.00    -0.299 N 
HETATM   13  C   UNL     1       5.823  26.334  56.386  1.00  0.00     0.260 C 
HETATM   14  O   UNL     1       4.870  25.947  57.052  1.00  0.00    -0.267 OA
HETATM   15  H   UNL     1       6.835  27.845  55.467  1.00  0.00     0.171 HD
BRANCH  13  16
HETATM   16  C   UNL     1       6.552  25.349  55.548  1.00  0.00     0.066 A 
HETATM   17  C   UNL     1       6.752  25.524  54.171  1.00  0.00     0.089 A 
HETATM   18  C   UNL     1       7.527  24.608  53.441  1.00  0.00    -0.028 A 
HETATM   19  C   UNL     1       7.781  24.785  51.972  1.00  0.00     0.051 C 
HETATM   20  C   UNL     1       8.028  23.474  54.099  1.00  0.00     0.009 A 
HETATM   21  C   UNL     1       7.793  23.274  55.461  1.00  0.00     0.002 A 
HETATM   22  C   UNL     1       7.058  24.210  56.187  1.00  0.00     0.020 A 
BRANCH  17  23
HETATM   23  O   UNL     1       6.240  26.625  53.527  1.00  0.00    -0.354 OA
HETATM   24  C   UNL     1       4.886  26.374  53.128  1.00  0.00     0.210 C 
ENDBRANCH  17  23
ENDBRANCH  13  16
ENDBRANCH  10  12
ENDBRANCH   8  10
ENDBRANCH   2   8
BRANCH   1  25
HETATM   25  N   UNL     1       6.342  31.601  59.428  1.00  0.00    -0.278 NA
HETATM   26  C   UNL     1       5.462  32.388  58.537  1.00  0.00     0.115 C 
HETATM   27  C   UNL     1       4.066  32.522  59.171  1.00  0.00     0.140 C 
HETATM   28  N   UNL     1       4.098  33.018  60.556  1.00  0.00    -0.350 N 
HETATM   29  C   UNL     1       2.933  33.605  61.042  1.00  0.00     0.219 C 
HETATM   30  C   UNL     1       5.112  32.395  61.424  1.00  0.00     0.140 C 
HETATM   31  O   UNL     1       1.993  33.899  60.302  1.00  0.00    -0.273 OA
HETATM   32  C   UNL     1       6.493  32.266  60.750  1.00  0.00     0.115 C 
BRANCH  29  33
HETATM   33  C   UNL     1       2.879  33.885  62.537  1.00  0.00     0.098 C 
HETATM   34  C   UNL     1       3.174  35.339  62.868  1.00  0.00     0.014 C 
ENDBRANCH  29  33
ENDBRANCH   1  25
TORSDOF 7
ENDMDL
MODEL 3
REMARK VINA RESULT:      -9.2      2.074      2.573
REMARK  7 active torsions:
REMARK  status: ('A' for Active; 'I' for Inactive)
REMARK    1  A    between atoms: C_2  and  C_3 
REMARK       I    between atoms: C_3  and  N_4 
REMARK    2  A    between atoms: N_7  and  C_8 
REMARK    3  A    between atoms: C_9  and  N_10 
REMARK    4  A    between atoms: N_10  and  C_11 
REMARK    5  A    between atoms: C_11  and  N_12 
REMARK       I    between atoms: N_12  and  C_13 
REMARK    6  A    between atoms: C_13  and  C_14 
REMARK    7  A    between atoms: C_15  and  O_16 
ROOT
HETATM    1  C   UNL     1       5.975  26.547  53.998  1.00  0.00     0.037 A 
HETATM    2  C   UNL     1       6.402  27.604  54.850  1.00  0.00     0.057 A 
HETATM    3  C   UNL     1       5.720  28.824  54.873  1.00  0.00     0.055 A 
HETATM    4  C   UNL     1       4.584  28.991  54.087  1.00  0.00     0.036 A 
HETATM    5 CL   UNL     1       3.729  30.484  54.132  1.00  0.00    -0.084 Cl
HETATM    6  C   UNL     1       4.138  27.966  53.258  1.00  0.00     0.026 A 
HETATM    7  C   UNL     1       4.835  26.755  53.208  1.00  0.00     0.027 A 
ENDROOT
BRANCH   2   8
HETATM    8  N   UNL     1       7.591  27.382  55.583  1.00  0.00    -0.331 N 
HETATM    9  H   UNL     1       8.409  27.340  54.977  1.00  0.00     0.168 HD
BRANCH   8  10
HETATM   10  C   UNL     1       7.834  27.346  56.910  1.00  0.00     0.179 C 
HETATM   11  S   UNL     1       7.988  25.864  57.670  1.00  0.00    -0.040 SA
BRANCH  10  12
HETATM   12  N   UNL     1       7.907  28.475  57.671  1.00  0.00    -0.299 N 
HETATM   13  C   UNL     1       8.654  29.631  57.461  1.00  0.00     0.260 C 
HETATM   14  O   UNL     1       9.382  29.866  56.504  1.00  0.00    -0.267 OA
HETATM   15  H   UNL     1       7.113  28.589  58.293  1.00  0.00     0.171 HD
BRANCH  13  16
HETATM   16  C   UNL     1       8.512  30.666  58.516  1.00  0.00     0.066 A 
HETATM   17  C   UNL     1       7.266  31.153  58.938  1.00  0.00     0.089 A 
HETATM   18  C   UNL     1       7.180  32.065  60.003  1.00  0.00    -0.028 A 
HETATM   19  C   UNL     1       5.859  32.581  60.494  1.00  0.00     0.051 C 
HETATM   20  C   UNL     1       8.368  32.539  60.581  1.00  0.00     0.009 A 
HETATM   21  C   UNL     1       9.612  32.090  60.134  1.00  0.00     0.002 A 
HETATM   22  C   UNL     1       9.686  31.153  59.104  1.00  0.00     0.020 A 
BRANCH  17  23
HETATM   23  O   UNL     1       6.107  30.701  58.353  1.00  0.00    -0.354 OA
HETATM   24  C   UNL     1       5.688  31.611  57.328  1.00  0.00     0.210 C 
ENDBRANCH  17  23
ENDBRANCH  13  16
ENDBRANCH  10  12
ENDBRANCH   8  10
ENDBRANCH   2   8
BRANCH   1  25
HETATM   25  N   UNL     1       6.696  25.328  54.008  1.00  0.00    -0.278 NA
HETATM   26  C   UNL     1       6.903  24.652  52.708  1.00  0.00     0.115 C 
HETATM   27  C   UNL     1       7.904  23.496  52.876  1.00  0.00     0.140 C 
HETATM   28  N   UNL     1       7.556  22.576  53.970  1.00  0.00    -0.350 N 
HETATM   29  C   UNL     1       8.095  21.293  53.911  1.00  0.00     0.219 C 
HETATM   30  C   UNL     1       7.142  23.221  55.228  1.00  0.00     0.140 C 
HETATM   31  O   UNL     1       8.653  20.867  52.899  1.00  0.00    -0.273 OA
HETATM   32  C   UNL     1       6.151  24.383  55.018  1.00  0.00     0.115 C 
BRANCH  29  33
HETATM   33  C   UNL     1       7.947  20.430  55.156  1.00  0.00     0.098 C 
HETATM   34  C   UNL     1       9.224  20.373  55.979  1.00  0.00     0.014 C 
ENDBRANCH  29  33
ENDBRANCH   1  25
TORSDOF 7
ENDMDL
MODEL 4
REMARK VINA RESULT:      -9.1      3.425      8.831
REMARK  7 active torsions:
REMARK  status: ('A' for Active; 'I' for Inactive)
REMARK    1  A    between atoms: C_2  and  C_3 
REMARK       I    between atoms: C_3  and  N_4 
REMARK    2  A    between atoms: N_7  and  C_8 
REMARK    3  A    between atoms: C_9  and  N_10 
REMARK    4  A    between atoms: N_10  and  C_11 
REMARK    5  A    between atoms: C_11  and  N_12 
REMARK       I    between atoms: N_12  and  C_13 
REMARK    6  A    between atoms: C_13  and  C_14 
REMARK    7  A    between atoms: C_15  and  O_16 
ROOT
HETATM    1  C   UNL     1       4.234  31.473  57.735  1.00  0.00     0.037 A 
HETATM    2  C   UNL     1       4.732  30.342  57.031  1.00  0.00     0.057 A 
HETATM    3  C   UNL     1       4.425  30.146  55.682  1.00  0.00     0.055 A 
HETATM    4  C   UNL     1       3.659  31.091  55.007  1.00  0.00     0.036 A 
HETATM    5 CL   UNL     1       3.299  30.863  53.340  1.00  0.00    -0.084 Cl
HETATM    6  C   UNL     1       3.174  32.215  55.671  1.00  0.00     0.026 A 
HETATM    7  C   UNL     1       3.453  32.399  57.028  1.00  0.00     0.027 A 
ENDROOT
BRANCH   2   8
HETATM    8  N   UNL     1       5.461  29.397  57.791  1.00  0.00    -0.331 N 
HETATM    9  H   UNL     1       4.906  29.014  58.555  1.00  0.00     0.168 HD
BRANCH   8  10
HETATM   10  C   UNL     1       6.678  28.844  57.607  1.00  0.00     0.179 C 
HETATM   11  S   UNL     1       8.016  29.567  58.303  1.00  0.00    -0.040 SA
BRANCH  10  12
HETATM   12  N   UNL     1       6.869  27.741  56.828  1.00  0.00    -0.299 N 
HETATM   13  C   UNL     1       5.981  26.712  56.525  1.00  0.00     0.260 C 
HETATM   14  O   UNL     1       4.815  26.624  56.889  1.00  0.00    -0.267 OA
HETATM   15  H   UNL     1       7.641  27.842  56.176  1.00  0.00     0.171 HD
BRANCH  13  16
HETATM   16  C   UNL     1       6.536  25.644  55.655  1.00  0.00     0.066 A 
HETATM   17  C   UNL     1       6.847  25.853  54.303  1.00  0.00     0.089 A 
HETATM   18  C   UNL     1       7.455  24.837  53.546  1.00  0.00    -0.028 A 
HETATM   19  C   UNL     1       7.824  25.042  52.106  1.00  0.00     0.051 C 
HETATM   20  C   UNL     1       7.670  23.587  54.147  1.00  0.00     0.009 A 
HETATM   21  C   UNL     1       7.321  23.363  55.480  1.00  0.00     0.002 A 
HETATM   22  C   UNL     1       6.757  24.390  56.236  1.00  0.00     0.020 A 
BRANCH  17  23
HETATM   23  O   UNL     1       6.613  27.073  53.715  1.00  0.00    -0.354 OA
HETATM   24  C   UNL     1       5.268  27.131  53.223  1.00  0.00     0.210 C 
ENDBRANCH  17  23
ENDBRANCH  13  16
ENDBRANCH  10  12
ENDBRANCH   8  10
ENDBRANCH   2   8
BRANCH   1  25
HETATM   25  N   UNL     1       4.572  31.632  59.101  1.00  0.00    -0.278 NA
HETATM   26  C   UNL     1       3.486  32.023  60.027  1.00  0.00     0.115 C 
HETATM   27  C   UNL     1       3.974  31.904  61.482  1.00  0.00     0.140 C 
HETATM   28  N   UNL     1       5.243  32.606  61.731  1.00  0.00    -0.350 N 
HETATM   29  C   UNL     1       5.521  32.955  63.051  1.00  0.00     0.219 C 
HETATM   30  C   UNL     1       6.286  32.402  60.712  1.00  0.00     0.140 C 
HETATM   31  O   UNL     1       4.669  32.883  63.937  1.00  0.00    -0.273 OA
HETATM   32  C   UNL     1       5.757  32.514  59.269  1.00  0.00     0.115 C 
BRANCH  29  33
HETATM   33  C   UNL     1       6.931  33.446  63.346  1.00  0.00     0.098 C 
HETATM   34  C   UNL     1       7.226  33.505  64.836  1.00  0.00     0.014 C 
ENDBRANCH  29  33
ENDBRANCH   1  25
TORSDOF 7
ENDMDL
MODEL 5
REMARK VINA RESULT:      -8.9      3.316      7.111
REMARK  7 active torsions:
REMARK  status: ('A' for Active; 'I' for Inactive)
REMARK    1  A    between atoms: C_2  and  C_3 
REMARK       I    between atoms: C_3  and  N_4 
REMARK    2  A    between atoms: N_7  and  C_8 
REMARK    3  A    between atoms: C_9  and  N_10 
REMARK    4  A    between atoms: N_10  and  C_11 
REMARK    5  A    between atoms: C_11  and  N_12 
REMARK       I    between atoms: N_12  and  C_13 
REMARK    6  A    between atoms: C_13  and  C_14 
REMARK    7  A    between atoms: C_15  and  O_16 
ROOT
HETATM    1  C   UNL     1       4.579  29.675  54.039  1.00  0.00     0.037 A 
HETATM    2  C   UNL     1       5.465  29.338  55.100  1.00  0.00     0.057 A 
HETATM    3  C   UNL     1       5.197  29.745  56.410  1.00  0.00     0.055 A 
HETATM    4  C   UNL     1       4.028  30.447  56.687  1.00  0.00     0.036 A 
HETATM    5 CL   UNL     1       3.686  30.928  58.304  1.00  0.00    -0.084 Cl
HETATM    6  C   UNL     1       3.139  30.774  55.667  1.00  0.00     0.026 A 
HETATM    7  C   UNL     1       3.418  30.396  54.350  1.00  0.00     0.027 A 
ENDROOT
BRANCH   2   8
HETATM    8  N   UNL     1       6.656  28.667  54.739  1.00  0.00    -0.331 N 
HETATM    9  H   UNL     1       6.978  28.935  53.811  1.00  0.00     0.168 HD
BRANCH   8  10
HETATM   10  C   UNL     1       7.478  27.858  55.440  1.00  0.00     0.179 C 
HETATM   11  S   UNL     1       8.395  28.504  56.681  1.00  0.00    -0.040 SA
BRANCH  10  12
HETATM   12  N   UNL     1       7.631  26.536  55.142  1.00  0.00    -0.299 N 
HETATM   13  C   UNL     1       6.665  25.593  54.801  1.00  0.00     0.260 C 
HETATM   14  O   UNL     1       5.464  25.793  54.670  1.00  0.00    -0.267 OA
HETATM   15  H   UNL     1       8.576  26.298  54.859  1.00  0.00     0.171 HD
BRANCH  13  16
HETATM   16  C   UNL     1       7.187  24.224  54.562  1.00  0.00     0.066 A 
HETATM   17  C   UNL     1       7.591  23.373  55.602  1.00  0.00     0.089 A 
HETATM   18  C   UNL     1       7.992  22.054  55.330  1.00  0.00    -0.028 A 
HETATM   19  C   UNL     1       8.401  21.113  56.426  1.00  0.00     0.051 C 
HETATM   20  C   UNL     1       8.056  21.632  53.993  1.00  0.00     0.009 A 
HETATM   21  C   UNL     1       7.698  22.491  52.952  1.00  0.00     0.002 A 
HETATM   22  C   UNL     1       7.262  23.785  53.235  1.00  0.00     0.020 A 
BRANCH  17  23
HETATM   23  O   UNL     1       7.546  23.799  56.908  1.00  0.00    -0.354 OA
HETATM   24  C   UNL     1       8.837  24.272  57.315  1.00  0.00     0.210 C 
ENDBRANCH  17  23
ENDBRANCH  13  16
ENDBRANCH  10  12
ENDBRANCH   8  10
ENDBRANCH   2   8
BRANCH   1  25
HETATM   25  N   UNL     1       4.890  29.241  52.726  1.00  0.00    -0.278 NA
HETATM   26  C   UNL     1       4.780  30.238  51.639  1.00  0.00     0.115 C 
HETATM   27  C   UNL     1       5.387  29.668  50.346  1.00  0.00     0.140 C 
HETATM   28  N   UNL     1       4.857  28.342  49.986  1.00  0.00    -0.350 N 
HETATM   29  C   UNL     1       4.971  27.959  48.652  1.00  0.00     0.219 C 
HETATM   30  C   UNL     1       4.759  27.382  51.098  1.00  0.00     0.140 C 
HETATM   31  O   UNL     1       5.293  28.756  47.770  1.00  0.00    -0.273 OA
HETATM   32  C   UNL     1       4.159  27.993  52.379  1.00  0.00     0.115 C 
BRANCH  29  33
HETATM   33  C   UNL     1       4.660  26.505  48.329  1.00  0.00     0.098 C 
HETATM   34  C   UNL     1       3.313  26.336  47.644  1.00  0.00     0.014 C 
ENDBRANCH  29  33
ENDBRANCH   1  25
TORSDOF 7
ENDMDL
MODEL 6
REMARK VINA RESULT:      -8.8      2.769      7.783
REMARK  7 active torsions:
REMARK  status: ('A' for Active; 'I' for Inactive)
REMARK    1  A    between atoms: C_2  and  C_3 
REMARK       I    between atoms: C_3  and  N_4 
REMARK    2  A    between atoms: N_7  and  C_8 
REMARK    3  A    between atoms: C_9  and  N_10 
REMARK    4  A    between atoms: N_10  and  C_11 
REMARK    5  A    between atoms: C_11  and  N_12 
REMARK       I    between atoms: N_12  and  C_13 
REMARK    6  A    between atoms: C_13  and  C_14 
REMARK    7  A    between atoms: C_15  and  O_16 
ROOT
HETATM    1  C   UNL     1       4.356  29.256  54.144  1.00  0.00     0.037 A 
HETATM    2  C   UNL     1       4.602  27.861  54.012  1.00  0.00     0.057 A 
HETATM    3  C   UNL     1       4.657  27.261  52.751  1.00  0.00     0.055 A 
HETATM    4  C   UNL     1       4.514  28.043  51.610  1.00  0.00     0.036 A 
HETATM    5 CL   UNL     1       4.605  27.309  50.056  1.00  0.00    -0.084 Cl
HETATM    6  C   UNL     1       4.289  29.413  51.714  1.00  0.00     0.026 A 
HETATM    7  C   UNL     1       4.202  30.013  52.974  1.00  0.00     0.027 A 
ENDROOT
BRANCH   2   8
HETATM    8  N   UNL     1       4.687  27.120  55.213  1.00  0.00    -0.331 N 
HETATM    9  H   UNL     1       3.767  26.906  55.594  1.00  0.00     0.168 HD
BRANCH   8  10
HETATM   10  C   UNL     1       5.737  26.559  55.849  1.00  0.00     0.179 C 
HETATM   11  S   UNL     1       6.481  27.398  57.091  1.00  0.00    -0.040 SA
BRANCH  10  12
HETATM   12  N   UNL     1       6.253  25.351  55.484  1.00  0.00    -0.299 N 
HETATM   13  C   UNL     1       7.180  25.055  54.488  1.00  0.00     0.260 C 
HETATM   14  O   UNL     1       7.746  25.857  53.756  1.00  0.00    -0.267 OA
HETATM   15  H   UNL     1       6.167  24.645  56.208  1.00  0.00     0.171 HD
BRANCH  13  16
HETATM   16  C   UNL     1       7.504  23.613  54.346  1.00  0.00     0.066 A 
HETATM   17  C   UNL     1       7.716  22.770  55.447  1.00  0.00     0.089 A 
HETATM   18  C   UNL     1       7.929  21.394  55.262  1.00  0.00    -0.028 A 
HETATM   19  C   UNL     1       8.130  20.464  56.424  1.00  0.00     0.051 C 
HETATM   20  C   UNL     1       8.005  20.895  53.953  1.00  0.00     0.009 A 
HETATM   21  C   UNL     1       7.839  21.739  52.853  1.00  0.00     0.002 A 
HETATM   22  C   UNL     1       7.587  23.096  53.047  1.00  0.00     0.020 A 
BRANCH  17  23
HETATM   23  O   UNL     1       7.661  23.269  56.727  1.00  0.00    -0.354 OA
HETATM   24  C   UNL     1       8.911  23.882  57.068  1.00  0.00     0.210 C 
ENDBRANCH  17  23
ENDBRANCH  13  16
ENDBRANCH  10  12
ENDBRANCH   8  10
ENDBRANCH   2   8
BRANCH   1  25
HETATM   25  N   UNL     1       4.309  29.823  55.441  1.00  0.00    -0.278 NA
HETATM   26  C   UNL     1       2.995  30.295  55.928  1.00  0.00     0.115 C 
HETATM   27  C   UNL     1       3.087  30.642  57.424  1.00  0.00     0.140 C 
HETATM   28  N   UNL     1       4.197  31.553  57.746  1.00  0.00    -0.350 N 
HETATM   29  C   UNL     1       4.093  32.279  58.929  1.00  0.00     0.219 C 
HETATM   30  C   UNL     1       5.484  31.227  57.107  1.00  0.00     0.140 C 
HETATM   31  O   UNL     1       3.044  32.333  59.571  1.00  0.00    -0.273 OA
HETATM   32  C   UNL     1       5.349  30.872  55.613  1.00  0.00     0.115 C 
BRANCH  29  33
HETATM   33  C   UNL     1       5.340  33.022  59.388  1.00  0.00     0.098 C 
HETATM   34  C   UNL     1       6.003  32.360  60.586  1.00  0.00     0.014 C 
ENDBRANCH  29  33
ENDBRANCH   1  25
TORSDOF 7
ENDMDL
MODEL 7
REMARK VINA RESULT:      -8.7      2.873      4.010
REMARK  7 active torsions:
REMARK  status: ('A' for Active; 'I' for Inactive)
REMARK    1  A    between atoms: C_2  and  C_3 
REMARK       I    between atoms: C_3  and  N_4 
REMARK    2  A    between atoms: N_7  and  C_8 
REMARK    3  A    between atoms: C_9  and  N_10 
REMARK    4  A    between atoms: N_10  and  C_11 
REMARK    5  A    between atoms: C_11  and  N_12 
REMARK       I    between atoms: N_12  and  C_13 
REMARK    6  A    between atoms: C_13  and  C_14 
REMARK    7  A    between atoms: C_15  and  O_16 
ROOT
HETATM    1  C   UNL     1       5.965  27.846  55.397  1.00  0.00     0.037 A 
HETATM    2  C   UNL     1       6.512  28.852  56.240  1.00  0.00     0.057 A 
HETATM    3  C   UNL     1       5.884  30.094  56.372  1.00  0.00     0.055 A 
HETATM    4  C   UNL     1       4.686  30.333  55.707  1.00  0.00     0.036 A 
HETATM    5 CL   UNL     1       3.900  31.853  55.887  1.00  0.00    -0.084 Cl
HETATM    6  C   UNL     1       4.123  29.357  54.888  1.00  0.00     0.026 A 
HETATM    7  C   UNL     1       4.764  28.125  54.729  1.00  0.00     0.027 A 
ENDROOT
BRANCH   2   8
HETATM    8  N   UNL     1       7.756  28.560  56.846  1.00  0.00    -0.331 N 
HETATM    9  H   UNL     1       8.065  27.611  56.643  1.00  0.00     0.168 HD
BRANCH   8  10
HETATM   10  C   UNL     1       8.633  29.337  57.517  1.00  0.00     0.179 C 
HETATM   11  S   UNL     1      10.213  29.436  56.978  1.00  0.00    -0.040 SA
BRANCH  10  12
HETATM   12  N   UNL     1       8.293  30.007  58.655  1.00  0.00    -0.299 N 
HETATM   13  C   UNL     1       8.737  31.245  59.112  1.00  0.00     0.260 C 
HETATM   14  O   UNL     1       9.516  31.998  58.540  1.00  0.00    -0.267 OA
HETATM   15  H   UNL     1       7.411  29.700  59.052  1.00  0.00     0.171 HD
BRANCH  13  16
HETATM   16  C   UNL     1       8.172  31.667  60.419  1.00  0.00     0.066 A 
HETATM   17  C   UNL     1       6.797  31.853  60.626  1.00  0.00     0.089 A 
HETATM   18  C   UNL     1       6.304  32.164  61.904  1.00  0.00    -0.028 A 
HETATM   19  C   UNL     1       4.835  32.340  62.160  1.00  0.00     0.051 C 
HETATM   20  C   UNL     1       7.219  32.364  62.948  1.00  0.00     0.009 A 
HETATM   21  C   UNL     1       8.592  32.224  62.735  1.00  0.00     0.002 A 
HETATM   22  C   UNL     1       9.069  31.874  61.473  1.00  0.00     0.020 A 
BRANCH  17  23
HETATM   23  O   UNL     1       5.907  31.677  59.593  1.00  0.00    -0.354 OA
HETATM   24  C   UNL     1       5.654  32.930  58.944  1.00  0.00     0.210 C 
ENDBRANCH  17  23
ENDBRANCH  13  16
ENDBRANCH  10  12
ENDBRANCH   8  10
ENDBRANCH   2   8
BRANCH   1  25
HETATM   25  N   UNL     1       6.635  26.602  55.294  1.00  0.00    -0.278 NA
HETATM   26  C   UNL     1       7.037  26.159  53.941  1.00  0.00     0.115 C 
HETATM   27  C   UNL     1       7.958  24.931  54.047  1.00  0.00     0.140 C 
HETATM   28  N   UNL     1       7.400  23.853  54.879  1.00  0.00    -0.350 N 
HETATM   29  C   UNL     1       7.900  22.570  54.668  1.00  0.00     0.219 C 
HETATM   30  C   UNL     1       6.800  24.286  56.152  1.00  0.00     0.140 C 
HETATM   31  O   UNL     1       8.609  22.299  53.698  1.00  0.00    -0.273 OA
HETATM   32  C   UNL     1       5.896  25.527  56.007  1.00  0.00     0.115 C 
BRANCH  29  33
HETATM   33  C   UNL     1       7.516  21.508  55.688  1.00  0.00     0.098 C 
HETATM   34  C   UNL     1       8.711  21.007  56.483  1.00  0.00     0.014 C 
ENDBRANCH  29  33
ENDBRANCH   1  25
TORSDOF 7
ENDMDL
MODEL 8
REMARK VINA RESULT:      -8.7      2.916      5.378
REMARK  7 active torsions:
REMARK  status: ('A' for Active; 'I' for Inactive)
REMARK    1  A    between atoms: C_2  and  C_3 
REMARK       I    between atoms: C_3  and  N_4 
REMARK    2  A    between atoms: N_7  and  C_8 
REMARK    3  A    between atoms: C_9  and  N_10 
REMARK    4  A    between atoms: N_10  and  C_11 
REMARK    5  A    between atoms: C_11  and  N_12 
REMARK       I    between atoms: N_12  and  C_13 
REMARK    6  A    between atoms: C_13  and  C_14 
REMARK    7  A    between atoms: C_15  and  O_16 
ROOT
HETATM    1  C   UNL     1       7.125  24.362  53.776  1.00  0.00     0.037 A 
HETATM    2  C   UNL     1       7.977  24.540  54.902  1.00  0.00     0.057 A 
HETATM    3  C   UNL     1       8.666  23.458  55.455  1.00  0.00     0.055 A 
HETATM    4  C   UNL     1       8.554  22.200  54.871  1.00  0.00     0.036 A 
HETATM    5 CL   UNL     1       9.421  20.871  55.538  1.00  0.00    -0.084 Cl
HETATM    6  C   UNL     1       7.740  22.004  53.759  1.00  0.00     0.026 A 
HETATM    7  C   UNL     1       7.024  23.078  53.221  1.00  0.00     0.027 A 
ENDROOT
BRANCH   2   8
HETATM    8  N   UNL     1       8.004  25.833  55.474  1.00  0.00    -0.331 N 
HETATM    9  H   UNL     1       8.491  26.502  54.880  1.00  0.00     0.168 HD
BRANCH   8  10
HETATM   10  C   UNL     1       7.406  26.342  56.572  1.00  0.00     0.179 C 
HETATM   11  S   UNL     1       6.117  25.520  57.252  1.00  0.00    -0.040 SA
BRANCH  10  12
HETATM   12  N   UNL     1       7.778  27.532  57.122  1.00  0.00    -0.299 N 
HETATM   13  C   UNL     1       8.287  28.669  56.499  1.00  0.00     0.260 C 
HETATM   14  O   UNL     1       8.468  28.823  55.297  1.00  0.00    -0.267 OA
HETATM   15  H   UNL     1       7.365  27.697  58.034  1.00  0.00     0.171 HD
BRANCH  13  16
HETATM   16  C   UNL     1       8.611  29.791  57.416  1.00  0.00     0.066 A 
HETATM   17  C   UNL     1       7.636  30.460  58.171  1.00  0.00     0.089 A 
HETATM   18  C   UNL     1       8.005  31.454  59.092  1.00  0.00    -0.028 A 
HETATM   19  C   UNL     1       6.986  32.166  59.934  1.00  0.00     0.051 C 
HETATM   20  C   UNL     1       9.357  31.819  59.183  1.00  0.00     0.009 A 
HETATM   21  C   UNL     1      10.325  31.186  58.400  1.00  0.00     0.002 A 
HETATM   22  C   UNL     1       9.954  30.172  57.519  1.00  0.00     0.020 A 
BRANCH  17  23
HETATM   23  O   UNL     1       6.311  30.112  58.062  1.00  0.00    -0.354 OA
HETATM   24  C   UNL     1       5.701  30.835  56.984  1.00  0.00     0.210 C 
ENDBRANCH  17  23
ENDBRANCH  13  16
ENDBRANCH  10  12
ENDBRANCH   8  10
ENDBRANCH   2   8
BRANCH   1  25
HETATM   25  N   UNL     1       6.446  25.487  53.247  1.00  0.00    -0.278 NA
HETATM   26  C   UNL     1       5.049  25.701  53.682  1.00  0.00     0.115 C 
HETATM   27  C   UNL     1       4.563  27.084  53.213  1.00  0.00     0.140 C 
HETATM   28  N   UNL     1       4.778  27.322  51.776  1.00  0.00    -0.350 N 
HETATM   29  C   UNL     1       3.984  28.295  51.173  1.00  0.00     0.219 C 
HETATM   30  C   UNL     1       6.100  26.925  51.263  1.00  0.00     0.140 C 
HETATM   31  O   UNL     1       3.006  28.783  51.742  1.00  0.00    -0.273 OA
HETATM   32  C   UNL     1       6.557  25.541  51.765  1.00  0.00     0.115 C 
BRANCH  29  33
HETATM   33  C   UNL     1       4.373  28.719  49.764  1.00  0.00     0.098 C 
HETATM   34  C   UNL     1       3.637  27.927  48.695  1.00  0.00     0.014 C 
ENDBRANCH  29  33
ENDBRANCH   1  25
TORSDOF 7
ENDMDL
MODEL 9
REMARK VINA RESULT:      -8.5      3.433      8.269
REMARK  7 active torsions:
REMARK  status: ('A' for Active; 'I' for Inactive)
REMARK    1  A    between atoms: C_2  and  C_3 
REMARK       I    between atoms: C_3  and  N_4 
REMARK    2  A    between atoms: N_7  and  C_8 
REMARK    3  A    between atoms: C_9  and  N_10 
REMARK    4  A    between atoms: N_10  and  C_11 
REMARK    5  A    between atoms: C_11  and  N_12 
REMARK       I    between atoms: N_12  and  C_13 
REMARK    6  A    between atoms: C_13  and  C_14 
REMARK    7  A    between atoms: C_15  and  O_16 
ROOT
HETATM    1  C   UNL     1       5.521  28.352  54.327  1.00  0.00     0.037 A 
HETATM    2  C   UNL     1       5.439  26.979  54.688  1.00  0.00     0.057 A 
HETATM    3  C   UNL     1       6.073  26.503  55.840  1.00  0.00     0.055 A 
HETATM    4  C   UNL     1       6.754  27.391  56.666  1.00  0.00     0.036 A 
HETATM    5 CL   UNL     1       7.515  26.811  58.096  1.00  0.00    -0.084 Cl
HETATM    6  C   UNL     1       6.835  28.743  56.341  1.00  0.00     0.026 A 
HETATM    7  C   UNL     1       6.228  29.217  55.174  1.00  0.00     0.027 A 
ENDROOT
BRANCH   2   8
HETATM    8  N   UNL     1       4.774  26.125  53.778  1.00  0.00    -0.331 N 
HETATM    9  H   UNL     1       3.774  26.316  53.738  1.00  0.00     0.168 HD
BRANCH   8  10
HETATM   10  C   UNL     1       5.240  25.221  52.891  1.00  0.00     0.179 C 
HETATM   11  S   UNL     1       4.850  25.391  51.273  1.00  0.00    -0.040 SA
BRANCH  10  12
HETATM   12  N   UNL     1       5.977  24.139  53.269  1.00  0.00    -0.299 N 
HETATM   13  C   UNL     1       7.329  23.877  53.059  1.00  0.00     0.260 C 
HETATM   14  O   UNL     1       8.137  24.613  52.506  1.00  0.00    -0.267 OA
HETATM   15  H   UNL     1       5.557  23.615  54.030  1.00  0.00     0.171 HD
BRANCH  13  16
HETATM   16  C   UNL     1       7.803  22.574  53.591  1.00  0.00     0.066 A 
HETATM   17  C   UNL     1       7.907  22.309  54.965  1.00  0.00     0.089 A 
HETATM   18  C   UNL     1       8.273  21.031  55.419  1.00  0.00    -0.028 A 
HETATM   19  C   UNL     1       8.364  20.710  56.883  1.00  0.00     0.051 C 
HETATM   20  C   UNL     1       8.610  20.051  54.472  1.00  0.00     0.009 A 
HETATM   21  C   UNL     1       8.550  20.326  53.104  1.00  0.00     0.002 A 
HETATM   22  C   UNL     1       8.146  21.585  52.663  1.00  0.00     0.020 A 
BRANCH  17  23
HETATM   23  O   UNL     1       7.596  23.279  55.888  1.00  0.00    -0.354 OA
HETATM   24  C   UNL     1       8.778  24.002  56.256  1.00  0.00     0.210 C 
ENDBRANCH  17  23
ENDBRANCH  13  16
ENDBRANCH  10  12
ENDBRANCH   8  10
ENDBRANCH   2   8
BRANCH   1  25
HETATM   25  N   UNL     1       4.863  28.790  53.152  1.00  0.00    -0.278 NA
HETATM   26  C   UNL     1       5.690  28.973  51.939  1.00  0.00     0.115 C 
HETATM   27  C   UNL     1       4.782  29.204  50.719  1.00  0.00     0.140 C 
HETATM   28  N   UNL     1       3.789  30.272  50.923  1.00  0.00    -0.350 N 
HETATM   29  C   UNL     1       3.259  30.866  49.780  1.00  0.00     0.219 C 
HETATM   30  C   UNL     1       3.088  30.241  52.217  1.00  0.00     0.140 C 
HETATM   31  O   UNL     1       3.741  30.675  48.663  1.00  0.00    -0.273 OA
HETATM   32  C   UNL     1       4.029  29.993  53.413  1.00  0.00     0.115 C 
BRANCH  29  33
HETATM   33  C   UNL     1       2.060  31.783  49.979  1.00  0.00     0.098 C 
HETATM   34  C   UNL     1       2.467  33.227  50.223  1.00  0.00     0.014 C 
ENDBRANCH  29  33
ENDBRANCH   1  25
TORSDOF 7
ENDMDL
MODEL 10
REMARK VINA RESULT:      -8.4      1.882      2.750
REMARK  7 active torsions:
REMARK  status: ('A' for Active; 'I' for Inactive)
REMARK    1  A    between atoms: C_2  and  C_3 
REMARK       I    between atoms: C_3  and  N_4 
REMARK    2  A    between atoms: N_7  and  C_8 
REMARK    3  A    between atoms: C_9  and  N_10 
REMARK    4  A    between atoms: N_10  and  C_11 
REMARK    5  A    between atoms: C_11  and  N_12 
REMARK       I    between atoms: N_12  and  C_13 
REMARK    6  A    between atoms: C_13  and  C_14 
REMARK    7  A    between atoms: C_15  and  O_16 
ROOT
HETATM    1  C   UNL     1       5.477  27.587  53.478  1.00  0.00     0.037 A 
HETATM    2  C   UNL     1       4.572  28.128  54.433  1.00  0.00     0.057 A 
HETATM    3  C   UNL     1       3.955  29.363  54.214  1.00  0.00     0.055 A 
HETATM    4  C   UNL     1       4.194  30.050  53.028  1.00  0.00     0.036 A 
HETATM    5 CL   UNL     1       3.418  31.560  52.747  1.00  0.00    -0.084 Cl
HETATM    6  C   UNL     1       5.064  29.533  52.072  1.00  0.00     0.026 A 
HETATM    7  C   UNL     1       5.707  28.313  52.301  1.00  0.00     0.027 A 
ENDROOT
BRANCH   2   8
HETATM    8  N   UNL     1       4.414  27.401  55.635  1.00  0.00    -0.331 N 
HETATM    9  H   UNL     1       3.483  26.996  55.716  1.00  0.00     0.168 HD
BRANCH   8  10
HETATM   10  C   UNL     1       5.295  27.058  56.599  1.00  0.00     0.179 C 
HETATM   11  S   UNL     1       5.217  25.526  57.267  1.00  0.00    -0.040 SA
BRANCH  10  12
HETATM   12  N   UNL     1       6.219  27.932  57.090  1.00  0.00    -0.299 N 
HETATM   13  C   UNL     1       6.058  29.263  57.465  1.00  0.00     0.260 C 
HETATM   14  O   UNL     1       5.014  29.904  57.453  1.00  0.00    -0.267 OA
HETATM   15  H   UNL     1       7.030  27.473  57.491  1.00  0.00     0.171 HD
BRANCH  13  16
HETATM   16  C   UNL     1       7.296  29.932  57.940  1.00  0.00     0.066 A 
HETATM   17  C   UNL     1       8.571  29.598  57.459  1.00  0.00     0.089 A 
HETATM   18  C   UNL     1       9.702  30.321  57.872  1.00  0.00    -0.028 A 
HETATM   19  C   UNL     1      11.074  30.004  57.352  1.00  0.00     0.051 C 
HETATM   20  C   UNL     1       9.540  31.330  58.834  1.00  0.00     0.009 A 
HETATM   21  C   UNL     1       8.279  31.636  59.348  1.00  0.00     0.002 A 
HETATM   22  C   UNL     1       7.156  30.940  58.901  1.00  0.00     0.020 A 
BRANCH  17  23
HETATM   23  O   UNL     1       8.725  28.593  56.532  1.00  0.00    -0.354 OA
HETATM   24  C   UNL     1       8.883  29.155  55.223  1.00  0.00     0.210 C 
ENDBRANCH  17  23
ENDBRANCH  13  16
ENDBRANCH  10  12
ENDBRANCH   8  10
ENDBRANCH   2   8
BRANCH   1  25
HETATM   25  N   UNL     1       6.079  26.332  53.741  1.00  0.00    -0.278 NA
HETATM   26  C   UNL     1       7.490  26.336  54.183  1.00  0.00     0.115 C 
HETATM   27  C   UNL     1       7.892  24.928  54.656  1.00  0.00     0.140 C 
HETATM   28  N   UNL     1       7.583  23.873  53.678  1.00  0.00    -0.350 N 
HETATM   29  C   UNL     1       8.301  22.684  53.786  1.00  0.00     0.219 C 
HETATM   30  C   UNL     1       6.250  23.959  53.059  1.00  0.00     0.140 C 
HETATM   31  O   UNL     1       9.291  22.584  54.512  1.00  0.00    -0.273 OA
HETATM   32  C   UNL     1       5.878  25.386  52.611  1.00  0.00     0.115 C 
BRANCH  29  33
HETATM   33  C   UNL     1       7.812  21.511  52.948  1.00  0.00     0.098 C 
HETATM   34  C   UNL     1       8.419  20.188  53.390  1.00  0.00     0.014 C 
ENDBRANCH  29  33
ENDBRANCH   1  25
TORSDOF 7
ENDMDL
