MODEL 1
REMARK VINA RESULT:     -10.0      0.000      0.000
REMARK  5 active torsions:
REMARK  status: ('A' for Active; 'I' for Inactive)
REMARK    1  A    between atoms: O_2  and  C_3 
REMARK    2  A    between atoms: C_6  and  C_7 
REMARK       I    between atoms: C_7  and  N_8 
REMARK    3  A    between atoms: N_8  and  C_9 
REMARK    4  A    between atoms: C_9  and  C_10 
REMARK       I    between atoms: C_10  and  N_11 
REMARK    5  A    between atoms: N_11  and  N_12 
ROOT
HETATM    1  C   UNL     1       7.262  28.568  57.534  1.00  0.00     0.255 C 
HETATM    2  N   UNL     1       6.642  27.900  56.495  1.00  0.00    -0.245 N 
HETATM    3  O   UNL     1       7.979  28.035  58.382  1.00  0.00    -0.270 OA
HETATM    4  H   UNL     1       6.137  28.433  55.782  1.00  0.00     0.192 HD
ENDROOT
BRANCH   1   5
HETATM    5  C   UNL     1       7.064  30.083  57.524  1.00  0.00     0.227 C 
BRANCH   5   6
HETATM    6  N   UNL     1       6.764  30.721  58.800  1.00  0.00    -0.348 N 
HETATM    7  C   UNL     1       7.677  31.553  59.412  1.00  0.00     0.252 C 
HETATM    8  O   UNL     1       8.645  32.007  58.809  1.00  0.00    -0.268 OA
HETATM    9  H   UNL     1       5.901  30.469  59.258  1.00  0.00     0.163 HD
BRANCH   7  10
HETATM   10  C   UNL     1       7.466  31.879  60.855  1.00  0.00     0.032 A 
HETATM   11  C   UNL     1       8.511  31.927  61.785  1.00  0.00     0.020 A 
HETATM   12  C   UNL     1       8.259  32.333  63.101  1.00  0.00     0.038 A 
HETATM   13  C   UNL     1       6.977  32.717  63.498  1.00  0.00     0.068 A 
HETATM   14  C   UNL     1       5.929  32.651  62.581  1.00  0.00     0.038 A 
HETATM   15  C   UNL     1       6.175  32.237  61.267  1.00  0.00     0.020 A 
BRANCH  13  16
HETATM   16  O   UNL     1       6.876  33.129  64.798  1.00  0.00    -0.356 OA
HETATM   17  C   UNL     1       5.627  33.697  65.181  1.00  0.00     0.210 C 
ENDBRANCH  13  16
ENDBRANCH   7  10
ENDBRANCH   5   6
ENDBRANCH   1   5
BRANCH   2  18
HETATM   18  N   UNL     1       6.826  26.558  56.345  1.00  0.00    -0.166 NA
HETATM   19  C   UNL     1       7.155  26.135  55.169  1.00  0.00     0.157 A 
HETATM   20  C   UNL     1       7.321  26.931  53.871  1.00  0.00     0.277 A 
HETATM   21  C   UNL     1       7.431  24.745  54.825  1.00  0.00     0.028 A 
HETATM   22  O   UNL     1       7.157  28.128  53.760  1.00  0.00    -0.266 OA
HETATM   23  N   UNL     1       7.665  26.001  52.911  1.00  0.00    -0.321 N 
HETATM   24  C   UNL     1       7.730  24.725  53.464  1.00  0.00     0.048 A 
HETATM   25  H   UNL     1       7.839  26.241  51.947  1.00  0.00     0.169 HD
HETATM   26  C   UNL     1       8.045  23.546  52.821  1.00  0.00     0.032 A 
HETATM   27  C   UNL     1       8.053  22.376  53.592  1.00  0.00     0.021 A 
HETATM   28  C   UNL     1       7.751  22.414  54.970  1.00  0.00     0.012 A 
HETATM   29 BR   UNL     1       7.782  20.807  55.968  1.00  0.00    -0.051 Br
HETATM   30  C   UNL     1       7.432  23.611  55.610  1.00  0.00     0.035 A 
ENDBRANCH   2  18
TORSDOF 5
ENDMDL
MODEL 2
REMARK VINA RESULT:      -9.8      0.710      1.115
REMARK  5 active torsions:
REMARK  status: ('A' for Active; 'I' for Inactive)
REMARK    1  A    between atoms: O_2  and  C_3 
REMARK    2  A    between atoms: C_6  and  C_7 
REMARK       I    between atoms: C_7  and  N_8 
REMARK    3  A    between atoms: N_8  and  C_9 
REMARK    4  A    between atoms: C_9  and  C_10 
REMARK       I    between atoms: C_10  and  N_11 
REMARK    5  A    between atoms: N_11  and  N_12 
ROOT
HETATM    1  C   UNL     1       7.633  28.397  57.404  1.00  0.00     0.255 C 
HETATM    2  N   UNL     1       6.613  27.667  56.822  1.00  0.00    -0.245 N 
HETATM    3  O   UNL     1       8.739  27.944  57.700  1.00  0.00    -0.270 OA
HETATM    4  H   UNL     1       5.757  28.142  56.525  1.00  0.00     0.192 HD
ENDROOT
BRANCH   1   5
HETATM    5  C   UNL     1       7.323  29.881  57.594  1.00  0.00     0.227 C 
BRANCH   5   6
HETATM    6  N   UNL     1       7.215  30.365  58.965  1.00  0.00    -0.348 N 
HETATM    7  C   UNL     1       6.914  31.684  59.232  1.00  0.00     0.252 C 
HETATM    8  O   UNL     1       6.465  32.433  58.371  1.00  0.00    -0.268 OA
HETATM    9  H   UNL     1       7.447  29.723  59.707  1.00  0.00     0.163 HD
BRANCH   7  10
HETATM   10  C   UNL     1       7.170  32.191  60.614  1.00  0.00     0.032 A 
HETATM   11  C   UNL     1       6.325  33.099  61.261  1.00  0.00     0.020 A 
HETATM   12  C   UNL     1       6.569  33.460  62.591  1.00  0.00     0.038 A 
HETATM   13  C   UNL     1       7.639  32.905  63.298  1.00  0.00     0.068 A 
HETATM   14  C   UNL     1       8.496  32.015  62.652  1.00  0.00     0.038 A 
HETATM   15  C   UNL     1       8.260  31.659  61.319  1.00  0.00     0.020 A 
BRANCH  13  16
HETATM   16  O   UNL     1       7.742  33.311  64.599  1.00  0.00    -0.356 OA
HETATM   17  C   UNL     1       6.532  33.727  65.224  1.00  0.00     0.210 C 
ENDBRANCH  13  16
ENDBRANCH   7  10
ENDBRANCH   5   6
ENDBRANCH   1   5
BRANCH   2  18
HETATM   18  N   UNL     1       6.809  26.353  56.515  1.00  0.00    -0.166 NA
HETATM   19  C   UNL     1       7.099  26.071  55.288  1.00  0.00     0.157 A 
HETATM   20  C   UNL     1       7.207  27.009  54.083  1.00  0.00     0.277 A 
HETATM   21  C   UNL     1       7.381  24.733  54.780  1.00  0.00     0.028 A 
HETATM   22  O   UNL     1       7.023  28.208  54.113  1.00  0.00    -0.266 OA
HETATM   23  N   UNL     1       7.527  26.199  53.013  1.00  0.00    -0.321 N 
HETATM   24  C   UNL     1       7.629  24.870  53.415  1.00  0.00     0.048 A 
HETATM   25  H   UNL     1       7.662  26.548  52.076  1.00  0.00     0.169 HD
HETATM   26  C   UNL     1       7.935  23.776  52.634  1.00  0.00     0.032 A 
HETATM   27  C   UNL     1       7.987  22.528  53.266  1.00  0.00     0.021 A 
HETATM   28  C   UNL     1       7.736  22.405  54.650  1.00  0.00     0.012 A 
HETATM   29 BR   UNL     1       7.825  20.698  55.459  1.00  0.00    -0.051 Br
HETATM   30  C   UNL     1       7.426  23.518  55.432  1.00  0.00     0.035 A 
ENDBRANCH   2  18
TORSDOF 5
ENDMDL
MODEL 3
REMARK VINA RESULT:      -9.3      3.857     10.158
REMARK  5 active torsions:
REMARK  status: ('A' for Active; 'I' for Inactive)
REMARK    1  A    between atoms: O_2  and  C_3 
REMARK    2  A    between atoms: C_6  and  C_7 
REMARK       I    between atoms: C_7  and  N_8 
REMARK    3  A    between atoms: N_8  and  C_9 
REMARK    4  A    between atoms: C_9  and  C_10 
REMARK       I    between atoms: C_10  and  N_11 
REMARK    5  A    between atoms: N_11  and  N_12 
ROOT
HETATM    1  C   UNL     1       6.313  30.374  57.578  1.00  0.00     0.255 C 
HETATM    2  N   UNL     1       7.196  31.187  58.263  1.00  0.00    -0.245 N 
HETATM    3  O   UNL     1       5.111  30.274  57.829  1.00  0.00    -0.270 OA
HETATM    4  H   UNL     1       8.160  31.279  57.932  1.00  0.00     0.192 HD
ENDROOT
BRANCH   1   5
HETATM    5  C   UNL     1       6.923  29.635  56.387  1.00  0.00     0.227 C 
BRANCH   5   6
HETATM    6  N   UNL     1       6.831  28.180  56.393  1.00  0.00    -0.348 N 
HETATM    7  C   UNL     1       7.856  27.403  56.891  1.00  0.00     0.252 C 
HETATM    8  O   UNL     1       8.751  27.879  57.582  1.00  0.00    -0.268 OA
HETATM    9  H   UNL     1       6.029  27.759  55.949  1.00  0.00     0.163 HD
BRANCH   7  10
HETATM   10  C   UNL     1       7.861  25.950  56.545  1.00  0.00     0.032 A 
HETATM   11  C   UNL     1       8.612  25.002  57.249  1.00  0.00     0.020 A 
HETATM   12  C   UNL     1       8.497  23.643  56.936  1.00  0.00     0.038 A 
HETATM   13  C   UNL     1       7.620  23.210  55.939  1.00  0.00     0.068 A 
HETATM   14  C   UNL     1       6.885  24.152  55.221  1.00  0.00     0.038 A 
HETATM   15  C   UNL     1       7.004  25.513  55.525  1.00  0.00     0.020 A 
BRANCH  13  16
HETATM   16  O   UNL     1       7.574  21.856  55.760  1.00  0.00    -0.356 OA
HETATM   17  C   UNL     1       8.594  21.102  56.408  1.00  0.00     0.210 C 
ENDBRANCH  13  16
ENDBRANCH   7  10
ENDBRANCH   5   6
ENDBRANCH   1   5
BRANCH   2  18
HETATM   18  N   UNL     1       6.745  31.969  59.285  1.00  0.00    -0.166 NA
HETATM   19  C   UNL     1       7.358  31.871  60.418  1.00  0.00     0.157 A 
HETATM   20  C   UNL     1       8.511  30.944  60.812  1.00  0.00     0.277 A 
HETATM   21  C   UNL     1       7.047  32.652  61.609  1.00  0.00     0.028 A 
HETATM   22  O   UNL     1       9.035  30.130  60.080  1.00  0.00    -0.266 OA
HETATM   23  N   UNL     1       8.779  31.232  62.134  1.00  0.00    -0.321 N 
HETATM   24  C   UNL     1       7.927  32.228  62.604  1.00  0.00     0.048 A 
HETATM   25  H   UNL     1       9.500  30.768  62.666  1.00  0.00     0.169 HD
HETATM   26  C   UNL     1       7.894  32.780  63.866  1.00  0.00     0.032 A 
HETATM   27  C   UNL     1       6.945  33.782  64.106  1.00  0.00     0.021 A 
HETATM   28  C   UNL     1       6.063  34.202  63.088  1.00  0.00     0.012 A 
HETATM   29 BR   UNL     1       4.803  35.564  63.460  1.00  0.00    -0.051 Br
HETATM   30  C   UNL     1       6.102  33.636  61.814  1.00  0.00     0.035 A 
ENDBRANCH   2  18
TORSDOF 5
ENDMDL
MODEL 4
REMARK VINA RESULT:      -9.2      3.786      9.945
REMARK  5 active torsions:
REMARK  status: ('A' for Active; 'I' for Inactive)
REMARK    1  A    between atoms: O_2  and  C_3 
REMARK    2  A    between atoms: C_6  and  C_7 
REMARK       I    between atoms: C_7  and  N_8 
REMARK    3  A    between atoms: N_8  and  C_9 
REMARK    4  A    between atoms: C_9  and  C_10 
REMARK       I    between atoms: C_10  and  N_11 
REMARK    5  A    between atoms: N_11  and  N_12 
ROOT
HETATM    1  C   UNL     1       5.983  28.549  55.555  1.00  0.00     0.255 C 
HETATM    2  N   UNL     1       6.702  29.707  55.782  1.00  0.00    -0.245 N 
HETATM    3  O   UNL     1       5.225  28.022  56.370  1.00  0.00    -0.270 OA
HETATM    4  H   UNL     1       7.238  30.127  55.019  1.00  0.00     0.192 HD
ENDROOT
BRANCH   1   5
HETATM    5  C   UNL     1       6.125  27.979  54.144  1.00  0.00     0.227 C 
BRANCH   5   6
HETATM    6  N   UNL     1       6.819  26.704  54.011  1.00  0.00    -0.348 N 
HETATM    7  C   UNL     1       6.121  25.527  53.847  1.00  0.00     0.252 C 
HETATM    8  O   UNL     1       4.933  25.516  53.539  1.00  0.00    -0.268 OA
HETATM    9  H   UNL     1       7.822  26.703  54.123  1.00  0.00     0.163 HD
BRANCH   7  10
HETATM   10  C   UNL     1       6.852  24.245  54.077  1.00  0.00     0.032 A 
HETATM   11  C   UNL     1       7.052  23.700  55.351  1.00  0.00     0.020 A 
HETATM   12  C   UNL     1       7.661  22.447  55.490  1.00  0.00     0.038 A 
HETATM   13  C   UNL     1       8.054  21.714  54.368  1.00  0.00     0.068 A 
HETATM   14  C   UNL     1       7.876  22.262  53.098  1.00  0.00     0.038 A 
HETATM   15  C   UNL     1       7.276  23.518  52.956  1.00  0.00     0.020 A 
BRANCH  13  16
HETATM   16  O   UNL     1       8.599  20.491  54.641  1.00  0.00    -0.356 OA
HETATM   17  C   UNL     1       8.810  20.191  56.017  1.00  0.00     0.210 C 
ENDBRANCH  13  16
ENDBRANCH   7  10
ENDBRANCH   5   6
ENDBRANCH   1   5
BRANCH   2  18
HETATM   18  N   UNL     1       6.580  30.360  56.973  1.00  0.00    -0.166 NA
HETATM   19  C   UNL     1       7.644  30.471  57.696  1.00  0.00     0.157 A 
HETATM   20  C   UNL     1       9.049  29.920  57.435  1.00  0.00     0.277 A 
HETATM   21  C   UNL     1       7.718  31.167  58.976  1.00  0.00     0.028 A 
HETATM   22  O   UNL     1       9.374  29.266  56.466  1.00  0.00    -0.266 OA
HETATM   23  N   UNL     1       9.805  30.310  58.521  1.00  0.00    -0.321 N 
HETATM   24  C   UNL     1       9.032  31.038  59.423  1.00  0.00     0.048 A 
HETATM   25  H   UNL     1      10.783  30.084  58.624  1.00  0.00     0.169 HD
HETATM   26  C   UNL     1       9.436  31.595  60.617  1.00  0.00     0.032 A 
HETATM   27  C   UNL     1       8.475  32.294  61.359  1.00  0.00     0.021 A 
HETATM   28  C   UNL     1       7.149  32.418  60.891  1.00  0.00     0.012 A 
HETATM   29 BR   UNL     1       5.890  33.378  61.926  1.00  0.00    -0.051 Br
HETATM   30  C   UNL     1       6.750  31.850  59.682  1.00  0.00     0.035 A 
ENDBRANCH   2  18
TORSDOF 5
ENDMDL
MODEL 5
REMARK VINA RESULT:      -9.1      2.263      3.093
REMARK  5 active torsions:
REMARK  status: ('A' for Active; 'I' for Inactive)
REMARK    1  A    between atoms: O_2  and  C_3 
REMARK    2  A    between atoms: C_6  and  C_7 
REMARK       I    between atoms: C_7  and  N_8 
REMARK    3  A    between atoms: N_8  and  C_9 
REMARK    4  A    between atoms: C_9  and  C_10 
REMARK       I    between atoms: C_10  and  N_11 
REMARK    5  A    between atoms: N_11  and  N_12 
ROOT
HETATM    1  C   UNL     1       9.060  30.582  58.956  1.00  0.00     0.255 C 
HETATM    2  N   UNL     1       7.980  29.721  59.015  1.00  0.00    -0.245 N 
HETATM    3  O   UNL     1      10.142  30.315  58.432  1.00  0.00    -0.270 OA
HETATM    4  H   UNL     1       7.088  30.054  59.388  1.00  0.00     0.192 HD
ENDROOT
BRANCH   1   5
HETATM    5  C   UNL     1       8.796  31.973  59.531  1.00  0.00     0.227 C 
BRANCH   5   6
HETATM    6  N   UNL     1       8.363  32.043  60.922  1.00  0.00    -0.348 N 
HETATM    7  C   UNL     1       7.032  32.205  61.246  1.00  0.00     0.252 C 
HETATM    8  O   UNL     1       6.140  32.030  60.423  1.00  0.00    -0.268 OA
HETATM    9  H   UNL     1       9.077  32.050  61.634  1.00  0.00     0.163 HD
BRANCH   7  10
HETATM   10  C   UNL     1       6.701  32.626  62.641  1.00  0.00     0.032 A 
HETATM   11  C   UNL     1       7.675  32.972  63.584  1.00  0.00     0.020 A 
HETATM   12  C   UNL     1       7.294  33.451  64.842  1.00  0.00     0.038 A 
HETATM   13  C   UNL     1       5.946  33.612  65.168  1.00  0.00     0.068 A 
HETATM   14  C   UNL     1       4.971  33.250  64.240  1.00  0.00     0.038 A 
HETATM   15  C   UNL     1       5.348  32.762  62.983  1.00  0.00     0.020 A 
BRANCH  13  16
HETATM   16  O   UNL     1       5.712  34.125  66.414  1.00  0.00    -0.356 OA
HETATM   17  C   UNL     1       6.841  34.221  67.275  1.00  0.00     0.210 C 
ENDBRANCH  13  16
ENDBRANCH   7  10
ENDBRANCH   5   6
ENDBRANCH   1   5
BRANCH   2  18
HETATM   18  N   UNL     1       8.065  28.484  58.447  1.00  0.00    -0.166 NA
HETATM   19  C   UNL     1       7.110  28.134  57.651  1.00  0.00     0.157 A 
HETATM   20  C   UNL     1       5.834  28.897  57.282  1.00  0.00     0.277 A 
HETATM   21  C   UNL     1       7.047  26.872  56.923  1.00  0.00     0.028 A 
HETATM   22  O   UNL     1       5.527  29.990  57.708  1.00  0.00    -0.266 OA
HETATM   23  N   UNL     1       5.152  28.073  56.411  1.00  0.00    -0.321 N 
HETATM   24  C   UNL     1       5.856  26.890  56.199  1.00  0.00     0.048 A 
HETATM   25  H   UNL     1       4.264  28.318  55.999  1.00  0.00     0.169 HD
HETATM   26  C   UNL     1       5.495  25.831  55.394  1.00  0.00     0.032 A 
HETATM   27  C   UNL     1       6.374  24.741  55.333  1.00  0.00     0.021 A 
HETATM   28  C   UNL     1       7.578  24.739  56.069  1.00  0.00     0.012 A 
HETATM   29 BR   UNL     1       8.734  23.247  55.948  1.00  0.00    -0.051 Br
HETATM   30  C   UNL     1       7.932  25.815  56.882  1.00  0.00     0.035 A 
ENDBRANCH   2  18
TORSDOF 5
ENDMDL
MODEL 6
REMARK VINA RESULT:      -9.0      4.003     10.489
REMARK  5 active torsions:
REMARK  status: ('A' for Active; 'I' for Inactive)
REMARK    1  A    between atoms: O_2  and  C_3 
REMARK    2  A    between atoms: C_6  and  C_7 
REMARK       I    between atoms: C_7  and  N_8 
REMARK    3  A    between atoms: N_8  and  C_9 
REMARK    4  A    between atoms: C_9  and  C_10 
REMARK       I    between atoms: C_10  and  N_11 
REMARK    5  A    between atoms: N_11  and  N_12 
ROOT
HETATM    1  C   UNL     1       9.380  31.312  58.586  1.00  0.00     0.255 C 
HETATM    2  N   UNL     1       8.150  31.070  59.169  1.00  0.00    -0.245 N 
HETATM    3  O   UNL     1      10.000  32.373  58.670  1.00  0.00    -0.270 OA
HETATM    4  H   UNL     1       7.746  30.131  59.124  1.00  0.00     0.192 HD
ENDROOT
BRANCH   1   5
HETATM    5  C   UNL     1       9.989  30.110  57.865  1.00  0.00     0.227 C 
BRANCH   5   6
HETATM    6  N   UNL     1       9.187  29.490  56.817  1.00  0.00    -0.348 N 
HETATM    7  C   UNL     1       8.360  28.421  57.091  1.00  0.00     0.252 C 
HETATM    8  O   UNL     1       8.053  28.119  58.240  1.00  0.00    -0.268 OA
HETATM    9  H   UNL     1       9.319  29.817  55.871  1.00  0.00     0.163 HD
BRANCH   7  10
HETATM   10  C   UNL     1       7.855  27.617  55.938  1.00  0.00     0.032 A 
HETATM   11  C   UNL     1       7.729  28.136  54.644  1.00  0.00     0.020 A 
HETATM   12  C   UNL     1       7.341  27.302  53.589  1.00  0.00     0.038 A 
HETATM   13  C   UNL     1       7.099  25.943  53.803  1.00  0.00     0.068 A 
HETATM   14  C   UNL     1       7.203  25.426  55.093  1.00  0.00     0.038 A 
HETATM   15  C   UNL     1       7.582  26.259  56.153  1.00  0.00     0.020 A 
BRANCH  13  16
HETATM   16  O   UNL     1       6.767  25.234  52.682  1.00  0.00    -0.356 OA
HETATM   17  C   UNL     1       7.788  24.402  52.141  1.00  0.00     0.210 C 
ENDBRANCH  13  16
ENDBRANCH   7  10
ENDBRANCH   5   6
ENDBRANCH   1   5
BRANCH   2  18
HETATM   18  N   UNL     1       7.552  32.038  59.920  1.00  0.00    -0.166 NA
HETATM   19  C   UNL     1       7.742  31.994  61.197  1.00  0.00     0.157 A 
HETATM   20  C   UNL     1       8.513  30.960  62.022  1.00  0.00     0.277 A 
HETATM   21  C   UNL     1       7.219  32.961  62.156  1.00  0.00     0.028 A 
HETATM   22  O   UNL     1       9.080  29.987  61.569  1.00  0.00    -0.266 OA
HETATM   23  N   UNL     1       8.394  31.372  63.334  1.00  0.00    -0.321 N 
HETATM   24  C   UNL     1       7.640  32.540  63.416  1.00  0.00     0.048 A 
HETATM   25  H   UNL     1       8.806  30.875  64.109  1.00  0.00     0.169 HD
HETATM   26  C   UNL     1       7.310  33.249  64.551  1.00  0.00     0.032 A 
HETATM   27  C   UNL     1       6.540  34.407  64.385  1.00  0.00     0.021 A 
HETATM   28  C   UNL     1       6.125  34.823  63.102  1.00  0.00     0.012 A 
HETATM   29 BR   UNL     1       5.092  36.399  62.930  1.00  0.00    -0.051 Br
HETATM   30  C   UNL     1       6.462  34.098  61.960  1.00  0.00     0.035 A 
ENDBRANCH   2  18
TORSDOF 5
ENDMDL
MODEL 7
REMARK VINA RESULT:      -9.0      1.876      2.331
REMARK  5 active torsions:
REMARK  status: ('A' for Active; 'I' for Inactive)
REMARK    1  A    between atoms: O_2  and  C_3 
REMARK    2  A    between atoms: C_6  and  C_7 
REMARK       I    between atoms: C_7  and  N_8 
REMARK    3  A    between atoms: N_8  and  C_9 
REMARK    4  A    between atoms: C_9  and  C_10 
REMARK       I    between atoms: C_10  and  N_11 
REMARK    5  A    between atoms: N_11  and  N_12 
ROOT
HETATM    1  C   UNL     1       9.776  29.504  57.288  1.00  0.00     0.255 C 
HETATM    2  N   UNL     1       8.679  28.733  57.623  1.00  0.00    -0.245 N 
HETATM    3  O   UNL     1      10.595  29.216  56.414  1.00  0.00    -0.270 OA
HETATM    4  H   UNL     1       7.999  29.089  58.299  1.00  0.00     0.192 HD
ENDROOT
BRANCH   1   5
HETATM    5  C   UNL     1       9.875  30.830  58.040  1.00  0.00     0.227 C 
BRANCH   5   6
HETATM    6  N   UNL     1       8.776  31.166  58.937  1.00  0.00    -0.348 N 
HETATM    7  C   UNL     1       8.971  31.992  60.024  1.00  0.00     0.252 C 
HETATM    8  O   UNL     1       9.976  32.686  60.138  1.00  0.00    -0.268 OA
HETATM    9  H   UNL     1       7.889  30.711  58.782  1.00  0.00     0.163 HD
BRANCH   7  10
HETATM   10  C   UNL     1       7.920  32.006  61.087  1.00  0.00     0.032 A 
HETATM   11  C   UNL     1       8.219  32.063  62.453  1.00  0.00     0.020 A 
HETATM   12  C   UNL     1       7.187  32.171  63.392  1.00  0.00     0.038 A 
HETATM   13  C   UNL     1       5.853  32.248  62.984  1.00  0.00     0.068 A 
HETATM   14  C   UNL     1       5.549  32.171  61.626  1.00  0.00     0.038 A 
HETATM   15  C   UNL     1       6.578  32.054  60.684  1.00  0.00     0.020 A 
BRANCH  13  16
HETATM   16  O   UNL     1       4.948  32.391  63.999  1.00  0.00    -0.356 OA
HETATM   17  C   UNL     1       5.212  33.434  64.932  1.00  0.00     0.210 C 
ENDBRANCH  13  16
ENDBRANCH   7  10
ENDBRANCH   5   6
ENDBRANCH   1   5
BRANCH   2  18
HETATM   18  N   UNL     1       8.433  27.573  56.950  1.00  0.00    -0.166 NA
HETATM   19  C   UNL     1       7.410  27.554  56.162  1.00  0.00     0.157 A 
HETATM   20  C   UNL     1       6.373  28.651  55.903  1.00  0.00     0.277 A 
HETATM   21  C   UNL     1       7.012  26.423  55.333  1.00  0.00     0.028 A 
HETATM   22  O   UNL     1       6.365  29.744  56.430  1.00  0.00    -0.266 OA
HETATM   23  N   UNL     1       5.489  28.113  54.990  1.00  0.00    -0.321 N 
HETATM   24  C   UNL     1       5.858  26.813  54.655  1.00  0.00     0.048 A 
HETATM   25  H   UNL     1       4.691  28.615  54.632  1.00  0.00     0.169 HD
HETATM   26  C   UNL     1       5.225  25.960  53.776  1.00  0.00     0.032 A 
HETATM   27  C   UNL     1       5.789  24.691  53.593  1.00  0.00     0.021 A 
HETATM   28  C   UNL     1       6.959  24.311  54.284  1.00  0.00     0.012 A 
HETATM   29 BR   UNL     1       7.686  22.588  53.997  1.00  0.00    -0.051 Br
HETATM   30  C   UNL     1       7.591  25.181  55.172  1.00  0.00     0.035 A 
ENDBRANCH   2  18
TORSDOF 5
ENDMDL
MODEL 8
REMARK VINA RESULT:      -8.6      3.600     10.289
REMARK  5 active torsions:
REMARK  status: ('A' for Active; 'I' for Inactive)
REMARK    1  A    between atoms: O_2  and  C_3 
REMARK    2  A    between atoms: C_6  and  C_7 
REMARK       I    between atoms: C_7  and  N_8 
REMARK    3  A    between atoms: N_8  and  C_9 
REMARK    4  A    between atoms: C_9  and  C_10 
REMARK       I    between atoms: C_10  and  N_11 
REMARK    5  A    between atoms: N_11  and  N_12 
ROOT
HETATM    1  C   UNL     1       6.679  28.670  56.599  1.00  0.00     0.255 C 
HETATM    2  N   UNL     1       7.250  29.920  56.745  1.00  0.00    -0.245 N 
HETATM    3  O   UNL     1       6.262  27.976  57.527  1.00  0.00    -0.270 OA
HETATM    4  H   UNL     1       7.487  30.468  55.914  1.00  0.00     0.192 HD
ENDROOT
BRANCH   1   5
HETATM    5  C   UNL     1       6.514  28.212  55.150  1.00  0.00     0.227 C 
BRANCH   5   6
HETATM    6  N   UNL     1       7.124  26.940  54.784  1.00  0.00    -0.348 N 
HETATM    7  C   UNL     1       6.367  25.910  54.267  1.00  0.00     0.252 C 
HETATM    8  O   UNL     1       5.230  26.092  53.844  1.00  0.00    -0.268 OA
HETATM    9  H   UNL     1       8.102  26.811  54.997  1.00  0.00     0.163 HD
BRANCH   7  10
HETATM   10  C   UNL     1       6.968  24.542  54.253  1.00  0.00     0.032 A 
HETATM   11  C   UNL     1       7.150  23.778  55.412  1.00  0.00     0.020 A 
HETATM   12  C   UNL     1       7.629  22.466  55.319  1.00  0.00     0.038 A 
HETATM   13  C   UNL     1       7.909  21.893  54.076  1.00  0.00     0.068 A 
HETATM   14  C   UNL     1       7.748  22.656  52.921  1.00  0.00     0.038 A 
HETATM   15  C   UNL     1       7.278  23.972  53.011  1.00  0.00     0.020 A 
BRANCH  13  16
HETATM   16  O   UNL     1       8.331  20.594  54.123  1.00  0.00    -0.356 OA
HETATM   17  C   UNL     1       8.651  20.084  55.413  1.00  0.00     0.210 C 
ENDBRANCH  13  16
ENDBRANCH   7  10
ENDBRANCH   5   6
ENDBRANCH   1   5
BRANCH   2  18
HETATM   18  N   UNL     1       7.361  30.475  57.985  1.00  0.00    -0.166 NA
HETATM   19  C   UNL     1       6.502  31.387  58.302  1.00  0.00     0.157 A 
HETATM   20  C   UNL     1       5.381  31.991  57.452  1.00  0.00     0.277 A 
HETATM   21  C   UNL     1       6.436  32.064  59.592  1.00  0.00     0.028 A 
HETATM   22  O   UNL     1       5.132  31.686  56.305  1.00  0.00    -0.266 OA
HETATM   23  N   UNL     1       4.771  32.929  58.260  1.00  0.00    -0.321 N 
HETATM   24  C   UNL     1       5.384  32.974  59.510  1.00  0.00     0.048 A 
HETATM   25  H   UNL     1       3.990  33.492  57.961  1.00  0.00     0.169 HD
HETATM   26  C   UNL     1       5.054  33.780  60.579  1.00  0.00     0.032 A 
HETATM   27  C   UNL     1       5.816  33.643  61.746  1.00  0.00     0.021 A 
HETATM   28  C   UNL     1       6.877  32.715  61.815  1.00  0.00     0.012 A 
HETATM   29 BR   UNL     1       7.872  32.564  63.417  1.00  0.00    -0.051 Br
HETATM   30  C   UNL     1       7.204  31.906  60.727  1.00  0.00     0.035 A 
ENDBRANCH   2  18
TORSDOF 5
ENDMDL
MODEL 9
REMARK VINA RESULT:      -8.6      4.392      9.437
REMARK  5 active torsions:
REMARK  status: ('A' for Active; 'I' for Inactive)
REMARK    1  A    between atoms: O_2  and  C_3 
REMARK    2  A    between atoms: C_6  and  C_7 
REMARK       I    between atoms: C_7  and  N_8 
REMARK    3  A    between atoms: N_8  and  C_9 
REMARK    4  A    between atoms: C_9  and  C_10 
REMARK       I    between atoms: C_10  and  N_11 
REMARK    5  A    between atoms: N_11  and  N_12 
ROOT
HETATM    1  C   UNL     1       5.423  28.194  52.711  1.00  0.00     0.255 C 
HETATM    2  N   UNL     1       5.321  27.768  54.022  1.00  0.00    -0.245 N 
HETATM    3  O   UNL     1       5.502  29.372  52.360  1.00  0.00    -0.270 OA
HETATM    4  H   UNL     1       5.351  26.768  54.232  1.00  0.00     0.192 HD
ENDROOT
BRANCH   1   5
HETATM    5  C   UNL     1       5.517  27.067  51.682  1.00  0.00     0.227 C 
BRANCH   5   6
HETATM    6  N   UNL     1       6.301  25.896  52.053  1.00  0.00    -0.348 N 
HETATM    7  C   UNL     1       5.755  24.886  52.817  1.00  0.00     0.252 C 
HETATM    8  O   UNL     1       4.545  24.788  52.989  1.00  0.00    -0.268 OA
HETATM    9  H   UNL     1       7.278  25.887  51.802  1.00  0.00     0.163 HD
BRANCH   7  10
HETATM   10  C   UNL     1       6.690  23.911  53.456  1.00  0.00     0.032 A 
HETATM   11  C   UNL     1       7.658  23.201  52.737  1.00  0.00     0.020 A 
HETATM   12  C   UNL     1       8.567  22.376  53.410  1.00  0.00     0.038 A 
HETATM   13  C   UNL     1       8.538  22.267  54.802  1.00  0.00     0.068 A 
HETATM   14  C   UNL     1       7.563  22.956  55.521  1.00  0.00     0.038 A 
HETATM   15  C   UNL     1       6.647  23.775  54.851  1.00  0.00     0.020 A 
BRANCH  13  16
HETATM   16  O   UNL     1       9.504  21.460  55.336  1.00  0.00    -0.356 OA
HETATM   17  C   UNL     1       9.067  20.516  56.308  1.00  0.00     0.210 C 
ENDBRANCH  13  16
ENDBRANCH   7  10
ENDBRANCH   5   6
ENDBRANCH   1   5
BRANCH   2  18
HETATM   18  N   UNL     1       5.327  28.681  55.035  1.00  0.00    -0.166 NA
HETATM   19  C   UNL     1       6.362  28.699  55.807  1.00  0.00     0.157 A 
HETATM   20  C   UNL     1       7.593  27.789  55.789  1.00  0.00     0.277 A 
HETATM   21  C   UNL     1       6.566  29.626  56.914  1.00  0.00     0.028 A 
HETATM   22  O   UNL     1       7.776  26.877  55.009  1.00  0.00    -0.266 OA
HETATM   23  N   UNL     1       8.388  28.224  56.829  1.00  0.00    -0.321 N 
HETATM   24  C   UNL     1       7.792  29.296  57.489  1.00  0.00     0.048 A 
HETATM   25  H   UNL     1       9.275  27.803  57.061  1.00  0.00     0.169 HD
HETATM   26  C   UNL     1       8.283  29.995  58.570  1.00  0.00     0.032 A 
HETATM   27  C   UNL     1       7.502  31.049  59.063  1.00  0.00     0.021 A 
HETATM   28  C   UNL     1       6.264  31.373  58.468  1.00  0.00     0.012 A 
HETATM   29 BR   UNL     1       5.251  32.809  59.167  1.00  0.00    -0.051 Br
HETATM   30  C   UNL     1       5.775  30.658  57.376  1.00  0.00     0.035 A 
ENDBRANCH   2  18
TORSDOF 5
ENDMDL
MODEL 10
REMARK VINA RESULT:      -8.5      7.012     11.686
REMARK  5 active torsions:
REMARK  status: ('A' for Active; 'I' for Inactive)
REMARK    1  A    between atoms: O_2  and  C_3 
REMARK    2  A    between atoms: C_6  and  C_7 
REMARK       I    between atoms: C_7  and  N_8 
REMARK    3  A    between atoms: N_8  and  C_9 
REMARK    4  A    between atoms: C_9  and  C_10 
REMARK       I    between atoms: C_10  and  N_11 
REMARK    5  A    between atoms: N_11  and  N_12 
ROOT
HETATM    1  C   UNL     1       4.629  26.550  49.977  1.00  0.00     0.255 C 
HETATM    2  N   UNL     1       5.632  26.672  50.920  1.00  0.00    -0.245 N 
HETATM    3  O   UNL     1       4.232  25.482  49.508  1.00  0.00    -0.270 OA
HETATM    4  H   UNL     1       5.839  27.589  51.323  1.00  0.00     0.192 HD
ENDROOT
BRANCH   1   5
HETATM    5  C   UNL     1       3.957  27.867  49.591  1.00  0.00     0.227 C 
BRANCH   5   6
HETATM    6  N   UNL     1       2.816  27.789  48.686  1.00  0.00    -0.348 N 
HETATM    7  C   UNL     1       2.764  28.550  47.538  1.00  0.00     0.252 C 
HETATM    8  O   UNL     1       3.759  29.109  47.087  1.00  0.00    -0.268 OA
HETATM    9  H   UNL     1       2.032  27.221  48.969  1.00  0.00     0.163 HD
BRANCH   7  10
HETATM   10  C   UNL     1       1.442  28.696  46.857  1.00  0.00     0.032 A 
HETATM   11  C   UNL     1       0.581  27.617  46.627  1.00  0.00     0.020 A 
HETATM   12  C   UNL     1      -0.684  27.836  46.071  1.00  0.00     0.038 A 
HETATM   13  C   UNL     1      -1.116  29.128  45.762  1.00  0.00     0.068 A 
HETATM   14  C   UNL     1      -0.254  30.204  45.970  1.00  0.00     0.038 A 
HETATM   15  C   UNL     1       1.016  29.988  46.517  1.00  0.00     0.020 A 
BRANCH  13  16
HETATM   16  O   UNL     1      -2.386  29.207  45.263  1.00  0.00    -0.356 OA
HETATM   17  C   UNL     1      -3.171  30.306  45.715  1.00  0.00     0.210 C 
ENDBRANCH  13  16
ENDBRANCH   7  10
ENDBRANCH   5   6
ENDBRANCH   1   5
BRANCH   2  18
HETATM   18  N   UNL     1       6.239  25.555  51.413  1.00  0.00    -0.166 NA
HETATM   19  C   UNL     1       6.267  25.417  52.697  1.00  0.00     0.157 A 
HETATM   20  C   UNL     1       5.754  26.370  53.780  1.00  0.00     0.277 A 
HETATM   21  C   UNL     1       6.835  24.275  53.405  1.00  0.00     0.028 A 
HETATM   22  O   UNL     1       5.225  27.443  53.573  1.00  0.00    -0.266 OA
HETATM   23  N   UNL     1       6.041  25.753  54.980  1.00  0.00    -0.321 N 
HETATM   24  C   UNL     1       6.672  24.530  54.766  1.00  0.00     0.048 A 
HETATM   25  H   UNL     1       5.815  26.156  55.877  1.00  0.00     0.169 HD
HETATM   26  C   UNL     1       7.106  23.631  55.716  1.00  0.00     0.032 A 
HETATM   27  C   UNL     1       7.713  22.454  55.258  1.00  0.00     0.021 A 
HETATM   28  C   UNL     1       7.867  22.209  53.877  1.00  0.00     0.012 A 
HETATM   29 BR   UNL     1       8.687  20.602  53.309  1.00  0.00    -0.051 Br
HETATM   30  C   UNL     1       7.426  23.126  52.923  1.00  0.00     0.035 A 
ENDBRANCH   2  18
TORSDOF 5
ENDMDL
