MODEL 1
REMARK VINA RESULT:      -9.5      0.000      0.000
REMARK  6 active torsions:
REMARK  status: ('A' for Active; 'I' for Inactive)
REMARK    1  A    between atoms: O_2  and  C_3 
REMARK    2  A    between atoms: C_6  and  C_7 
REMARK    3  A    between atoms: C_12  and  C_13 
REMARK       I    between atoms: C_13  and  N_14 
REMARK    4  A    between atoms: N_14  and  C_15 
REMARK    5  A    between atoms: C_17  and  O_18 
REMARK    6  A    between atoms: C_24  and  C_25 
ROOT
HETATM    1  C   UNL     1       7.911  27.869  54.992  1.00  0.00     0.118 C 
HETATM    2  N   UNL     1       8.432  28.588  56.150  1.00  0.00    -0.366 N 
HETATM    3  C   UNL     1       7.681  29.431  56.886  1.00  0.00     0.123 A 
HETATM    4  N   UNL     1       6.385  29.715  56.560  1.00  0.00    -0.240 N 
HETATM    5  N   UNL     1       5.815  30.652  57.340  1.00  0.00    -0.165 NA
HETATM    6  C   UNL     1       6.763  30.898  58.276  1.00  0.00     0.148 A 
HETATM    7  C   UNL     1       7.947  30.154  58.018  1.00  0.00     0.089 A 
HETATM    8  C   UNL     1       5.680  29.112  55.445  1.00  0.00     0.221 C 
HETATM    9  C   UNL     1       6.685  28.592  54.402  1.00  0.00     0.066 C 
HETATM   10  H   UNL     1       9.363  28.307  56.456  1.00  0.00     0.161 HD
ENDROOT
BRANCH   6  11
HETATM   11  C   UNL     1       6.541  31.839  59.388  1.00  0.00     0.276 C 
HETATM   12  N   UNL     1       6.895  31.290  60.605  1.00  0.00    -0.322 N 
HETATM   13  H   UNL     1       7.224  30.330  60.534  1.00  0.00     0.169 HD
HETATM   14  O   UNL     1       6.083  32.961  59.197  1.00  0.00    -0.266 OA
BRANCH  12  15
HETATM   15  C   UNL     1       6.839  31.880  61.880  1.00  0.00     0.037 A 
HETATM   16  C   UNL     1       5.655  32.071  62.594  1.00  0.00     0.066 A 
HETATM   17  C   UNL     1       5.694  32.673  63.853  1.00  0.00     0.067 A 
HETATM   18  C   UNL     1       6.895  33.081  64.416  1.00  0.00     0.036 A 
HETATM   19  C   UNL     1       8.081  32.894  63.709  1.00  0.00     0.005 A 
HETATM   20  C   UNL     1       8.051  32.300  62.445  1.00  0.00     0.029 A 
BRANCH  17  21
HETATM   21  O   UNL     1       4.553  32.882  64.572  1.00  0.00    -0.361 OA
HETATM   22  H   UNL     1       4.439  32.137  65.187  1.00  0.00     0.217 HD
ENDBRANCH  17  21
ENDBRANCH  12  15
ENDBRANCH   6  11
BRANCH   8  23
HETATM   23  C   UNL     1       4.714  28.065  55.951  1.00  0.00     0.409 C 
HETATM   24  F   UNL     1       4.518  27.041  55.100  1.00  0.00    -0.169 F 
HETATM   25  F   UNL     1       5.125  27.536  57.129  1.00  0.00    -0.169 F 
HETATM   26  F   UNL     1       3.503  28.627  56.193  1.00  0.00    -0.169 F 
ENDBRANCH   8  23
BRANCH   1  27
HETATM   27  C   UNL     1       7.719  26.386  55.256  1.00  0.00    -0.035 A 
HETATM   28  C   UNL     1       7.919  25.799  56.514  1.00  0.00     0.012 A 
HETATM   29  C   UNL     1       7.755  24.424  56.701  1.00  0.00     0.037 A 
HETATM   30  C   UNL     1       7.395  23.596  55.638  1.00  0.00     0.068 A 
HETATM   31  C   UNL     1       7.202  24.160  54.379  1.00  0.00     0.037 A 
HETATM   32  C   UNL     1       7.362  25.539  54.192  1.00  0.00     0.012 A 
BRANCH  30  33
HETATM   33  O   UNL     1       7.273  22.273  55.958  1.00  0.00    -0.356 OA
HETATM   34  C   UNL     1       8.394  21.653  56.574  1.00  0.00     0.210 C 
ENDBRANCH  30  33
ENDBRANCH   1  27
TORSDOF 6
ENDMDL
MODEL 2
REMARK VINA RESULT:      -9.4      1.923      2.579
REMARK  6 active torsions:
REMARK  status: ('A' for Active; 'I' for Inactive)
REMARK    1  A    between atoms: O_2  and  C_3 
REMARK    2  A    between atoms: C_6  and  C_7 
REMARK    3  A    between atoms: C_12  and  C_13 
REMARK       I    between atoms: C_13  and  N_14 
REMARK    4  A    between atoms: N_14  and  C_15 
REMARK    5  A    between atoms: C_17  and  O_18 
REMARK    6  A    between atoms: C_24  and  C_25 
ROOT
HETATM    1  C   UNL     1       6.860  26.554  53.724  1.00  0.00     0.118 C 
HETATM    2  N   UNL     1       7.865  27.494  54.210  1.00  0.00    -0.366 N 
HETATM    3  C   UNL     1       7.743  28.154  55.380  1.00  0.00     0.123 A 
HETATM    4  N   UNL     1       6.633  28.027  56.167  1.00  0.00    -0.240 N 
HETATM    5  N   UNL     1       6.631  28.833  57.246  1.00  0.00    -0.165 NA
HETATM    6  C   UNL     1       7.850  29.421  57.198  1.00  0.00     0.148 A 
HETATM    7  C   UNL     1       8.571  29.023  56.039  1.00  0.00     0.089 A 
HETATM    8  C   UNL     1       5.520  27.150  55.862  1.00  0.00     0.221 C 
HETATM    9  C   UNL     1       5.485  26.842  54.354  1.00  0.00     0.066 C 
HETATM   10  H   UNL     1       8.735  27.517  53.680  1.00  0.00     0.161 HD
ENDROOT
BRANCH   6  11
HETATM   11  C   UNL     1       8.309  30.359  58.239  1.00  0.00     0.276 C 
HETATM   12  N   UNL     1       7.369  30.518  59.239  1.00  0.00    -0.322 N 
HETATM   13  H   UNL     1       6.517  29.985  59.080  1.00  0.00     0.169 HD
HETATM   14  O   UNL     1       9.401  30.911  58.168  1.00  0.00    -0.266 OA
BRANCH  12  15
HETATM   15  C   UNL     1       7.449  31.312  60.396  1.00  0.00     0.037 A 
HETATM   16  C   UNL     1       6.690  32.467  60.598  1.00  0.00     0.066 A 
HETATM   17  C   UNL     1       6.841  33.199  61.776  1.00  0.00     0.067 A 
HETATM   18  C   UNL     1       7.731  32.795  62.763  1.00  0.00     0.036 A 
HETATM   19  C   UNL     1       8.491  31.644  62.569  1.00  0.00     0.005 A 
HETATM   20  C   UNL     1       8.353  30.909  61.388  1.00  0.00     0.029 A 
BRANCH  17  21
HETATM   21  O   UNL     1       6.121  34.337  61.999  1.00  0.00    -0.361 OA
HETATM   22  H   UNL     1       6.706  34.990  62.419  1.00  0.00     0.217 HD
ENDBRANCH  17  21
ENDBRANCH  12  15
ENDBRANCH   6  11
BRANCH   8  23
HETATM   23  C   UNL     1       5.572  25.923  56.743  1.00  0.00     0.409 C 
HETATM   24  F   UNL     1       6.752  25.743  57.364  1.00  0.00    -0.169 F 
HETATM   25  F   UNL     1       4.614  25.957  57.701  1.00  0.00    -0.169 F 
HETATM   26  F   UNL     1       5.329  24.809  56.007  1.00  0.00    -0.169 F 
ENDBRANCH   8  23
BRANCH   1  27
HETATM   27  C   UNL     1       7.317  25.107  53.807  1.00  0.00    -0.035 A 
HETATM   28  C   UNL     1       6.862  24.109  52.934  1.00  0.00     0.012 A 
HETATM   29  C   UNL     1       7.291  22.785  53.069  1.00  0.00     0.037 A 
HETATM   30  C   UNL     1       8.179  22.421  54.080  1.00  0.00     0.068 A 
HETATM   31  C   UNL     1       8.634  23.398  54.964  1.00  0.00     0.037 A 
HETATM   32  C   UNL     1       8.206  24.725  54.827  1.00  0.00     0.012 A 
BRANCH  30  33
HETATM   33  O   UNL     1       8.513  21.096  54.101  1.00  0.00    -0.356 OA
HETATM   34  C   UNL     1       8.399  20.384  52.876  1.00  0.00     0.210 C 
ENDBRANCH  30  33
ENDBRANCH   1  27
TORSDOF 6
ENDMDL
MODEL 3
REMARK VINA RESULT:      -8.7      6.666      9.030
REMARK  6 active torsions:
REMARK  status: ('A' for Active; 'I' for Inactive)
REMARK    1  A    between atoms: O_2  and  C_3 
REMARK    2  A    between atoms: C_6  and  C_7 
REMARK    3  A    between atoms: C_12  and  C_13 
REMARK       I    between atoms: C_13  and  N_14 
REMARK    4  A    between atoms: N_14  and  C_15 
REMARK    5  A    between atoms: C_17  and  O_18 
REMARK    6  A    between atoms: C_24  and  C_25 
ROOT
HETATM    1  C   UNL     1       5.175  25.210  54.044  1.00  0.00     0.118 C 
HETATM    2  N   UNL     1       4.849  25.401  52.635  1.00  0.00    -0.366 N 
HETATM    3  C   UNL     1       5.140  26.534  51.964  1.00  0.00     0.123 A 
HETATM    4  N   UNL     1       5.715  27.610  52.581  1.00  0.00    -0.240 N 
HETATM    5  N   UNL     1       5.843  28.692  51.790  1.00  0.00    -0.165 NA
HETATM    6  C   UNL     1       5.427  28.246  50.581  1.00  0.00     0.148 A 
HETATM    7  C   UNL     1       4.975  26.899  50.655  1.00  0.00     0.089 A 
HETATM    8  C   UNL     1       6.112  27.627  53.975  1.00  0.00     0.221 C 
HETATM    9  C   UNL     1       5.326  26.563  54.763  1.00  0.00     0.066 C 
HETATM   10  H   UNL     1       4.513  24.571  52.147  1.00  0.00     0.161 HD
ENDROOT
BRANCH   6  11
HETATM   11  C   UNL     1       5.451  29.100  49.379  1.00  0.00     0.276 C 
HETATM   12  N   UNL     1       5.304  30.436  49.695  1.00  0.00    -0.322 N 
HETATM   13  H   UNL     1       5.181  30.605  50.691  1.00  0.00     0.169 HD
HETATM   14  O   UNL     1       5.580  28.623  48.257  1.00  0.00    -0.266 OA
BRANCH  12  15
HETATM   15  C   UNL     1       5.290  31.543  48.828  1.00  0.00     0.037 A 
HETATM   16  C   UNL     1       4.271  31.793  47.906  1.00  0.00     0.066 A 
HETATM   17  C   UNL     1       4.344  32.914  47.079  1.00  0.00     0.067 A 
HETATM   18  C   UNL     1       5.413  33.797  47.160  1.00  0.00     0.036 A 
HETATM   19  C   UNL     1       6.434  33.554  48.077  1.00  0.00     0.005 A 
HETATM   20  C   UNL     1       6.373  32.429  48.903  1.00  0.00     0.029 A 
BRANCH  17  21
HETATM   21  O   UNL     1       3.369  33.181  46.162  1.00  0.00    -0.361 OA
HETATM   22  H   UNL     1       3.387  32.482  45.486  1.00  0.00     0.217 HD
ENDBRANCH  17  21
ENDBRANCH  12  15
ENDBRANCH   6  11
BRANCH   8  23
HETATM   23  C   UNL     1       7.613  27.496  54.086  1.00  0.00     0.409 C 
HETATM   24  F   UNL     1       8.169  26.716  53.141  1.00  0.00    -0.169 F 
HETATM   25  F   UNL     1       8.224  28.704  54.020  1.00  0.00    -0.169 F 
HETATM   26  F   UNL     1       7.948  26.970  55.292  1.00  0.00    -0.169 F 
ENDBRANCH   8  23
BRANCH   1  27
HETATM   27  C   UNL     1       6.321  24.236  54.257  1.00  0.00    -0.035 A 
HETATM   28  C   UNL     1       6.823  23.908  55.525  1.00  0.00     0.012 A 
HETATM   29  C   UNL     1       7.897  23.026  55.668  1.00  0.00     0.037 A 
HETATM   30  C   UNL     1       8.505  22.453  54.551  1.00  0.00     0.068 A 
HETATM   31  C   UNL     1       8.027  22.775  53.283  1.00  0.00     0.037 A 
HETATM   32  C   UNL     1       6.947  23.656  53.139  1.00  0.00     0.012 A 
BRANCH  30  33
HETATM   33  O   UNL     1       9.545  21.614  54.832  1.00  0.00    -0.356 OA
HETATM   34  C   UNL     1       9.314  20.603  55.804  1.00  0.00     0.210 C 
ENDBRANCH  30  33
ENDBRANCH   1  27
TORSDOF 6
ENDMDL
MODEL 4
REMARK VINA RESULT:      -8.7      2.998      9.510
REMARK  6 active torsions:
REMARK  status: ('A' for Active; 'I' for Inactive)
REMARK    1  A    between atoms: O_2  and  C_3 
REMARK    2  A    between atoms: C_6  and  C_7 
REMARK    3  A    between atoms: C_12  and  C_13 
REMARK       I    between atoms: C_13  and  N_14 
REMARK    4  A    between atoms: N_14  and  C_15 
REMARK    5  A    between atoms: C_17  and  O_18 
REMARK    6  A    between atoms: C_24  and  C_25 
ROOT
HETATM    1  C   UNL     1       7.012  32.883  60.005  1.00  0.00     0.118 C 
HETATM    2  N   UNL     1       6.429  31.888  59.111  1.00  0.00    -0.366 N 
HETATM    3  C   UNL     1       7.049  30.732  58.799  1.00  0.00     0.123 A 
HETATM    4  N   UNL     1       8.302  30.439  59.258  1.00  0.00    -0.240 N 
HETATM    5  N   UNL     1       8.812  29.293  58.768  1.00  0.00    -0.165 NA
HETATM    6  C   UNL     1       7.789  28.780  58.046  1.00  0.00     0.148 A 
HETATM    7  C   UNL     1       6.670  29.658  58.039  1.00  0.00     0.089 A 
HETATM    8  C   UNL     1       9.057  31.295  60.153  1.00  0.00     0.221 C 
HETATM    9  C   UNL     1       8.545  32.743  60.059  1.00  0.00     0.066 C 
HETATM   10  H   UNL     1       5.458  32.054  58.846  1.00  0.00     0.161 HD
ENDROOT
BRANCH   6  11
HETATM   11  C   UNL     1       7.886  27.476  57.364  1.00  0.00     0.276 C 
HETATM   12  N   UNL     1       7.455  27.547  56.054  1.00  0.00    -0.322 N 
HETATM   13  H   UNL     1       7.123  28.471  55.788  1.00  0.00     0.169 HD
HETATM   14  O   UNL     1       8.300  26.479  57.945  1.00  0.00    -0.266 OA
BRANCH  12  15
HETATM   15  C   UNL     1       7.411  26.524  55.092  1.00  0.00     0.037 A 
HETATM   16  C   UNL     1       7.284  25.169  55.406  1.00  0.00     0.066 A 
HETATM   17  C   UNL     1       7.256  24.220  54.384  1.00  0.00     0.067 A 
HETATM   18  C   UNL     1       7.345  24.598  53.050  1.00  0.00     0.036 A 
HETATM   19  C   UNL     1       7.472  25.947  52.729  1.00  0.00     0.005 A 
HETATM   20  C   UNL     1       7.509  26.905  53.747  1.00  0.00     0.029 A 
BRANCH  17  21
HETATM   21  O   UNL     1       7.143  22.887  54.659  1.00  0.00    -0.361 OA
HETATM   22  H   UNL     1       7.773  22.668  55.366  1.00  0.00     0.217 HD
ENDBRANCH  17  21
ENDBRANCH  12  15
ENDBRANCH   6  11
BRANCH   8  23
HETATM   23  C   UNL     1       9.041  30.722  61.551  1.00  0.00     0.409 C 
HETATM   24  F   UNL     1       7.851  30.218  61.925  1.00  0.00    -0.169 F 
HETATM   25  F   UNL     1       9.960  29.736  61.696  1.00  0.00    -0.169 F 
HETATM   26  F   UNL     1       9.375  31.682  62.452  1.00  0.00    -0.169 F 
ENDBRANCH   8  23
BRANCH   1  27
HETATM   27  C   UNL     1       6.323  32.936  61.358  1.00  0.00    -0.035 A 
HETATM   28  C   UNL     1       5.104  32.296  61.623  1.00  0.00     0.012 A 
HETATM   29  C   UNL     1       4.496  32.397  62.877  1.00  0.00     0.037 A 
HETATM   30  C   UNL     1       5.082  33.145  63.897  1.00  0.00     0.068 A 
HETATM   31  C   UNL     1       6.288  33.797  63.649  1.00  0.00     0.037 A 
HETATM   32  C   UNL     1       6.899  33.693  62.393  1.00  0.00     0.012 A 
BRANCH  30  33
HETATM   33  O   UNL     1       4.381  33.163  65.070  1.00  0.00    -0.356 OA
HETATM   34  C   UNL     1       4.916  33.946  66.129  1.00  0.00     0.210 C 
ENDBRANCH  30  33
ENDBRANCH   1  27
TORSDOF 6
ENDMDL
MODEL 5
REMARK VINA RESULT:      -8.6      6.944      9.850
REMARK  6 active torsions:
REMARK  status: ('A' for Active; 'I' for Inactive)
REMARK    1  A    between atoms: O_2  and  C_3 
REMARK    2  A    between atoms: C_6  and  C_7 
REMARK    3  A    between atoms: C_12  and  C_13 
REMARK       I    between atoms: C_13  and  N_14 
REMARK    4  A    between atoms: N_14  and  C_15 
REMARK    5  A    between atoms: C_17  and  O_18 
REMARK    6  A    between atoms: C_24  and  C_25 
ROOT
HETATM    1  C   UNL     1       4.821  28.248  48.463  1.00  0.00     0.118 C 
HETATM    2  N   UNL     1       5.197  26.984  49.088  1.00  0.00    -0.366 N 
HETATM    3  C   UNL     1       5.322  26.837  50.422  1.00  0.00     0.123 A 
HETATM    4  N   UNL     1       5.159  27.887  51.282  1.00  0.00    -0.240 N 
HETATM    5  N   UNL     1       5.420  27.587  52.569  1.00  0.00    -0.165 NA
HETATM    6  C   UNL     1       5.655  26.254  52.538  1.00  0.00     0.148 A 
HETATM    7  C   UNL     1       5.607  25.752  51.208  1.00  0.00     0.089 A 
HETATM    8  C   UNL     1       4.791  29.225  50.864  1.00  0.00     0.221 C 
HETATM    9  C   UNL     1       5.153  29.437  49.384  1.00  0.00     0.066 C 
HETATM   10  H   UNL     1       5.221  26.178  48.464  1.00  0.00     0.161 HD
ENDROOT
BRANCH   6  11
HETATM   11  C   UNL     1       5.934  25.479  53.760  1.00  0.00     0.276 C 
HETATM   12  N   UNL     1       6.845  24.467  53.531  1.00  0.00    -0.322 N 
HETATM   13  H   UNL     1       7.151  24.411  52.562  1.00  0.00     0.169 HD
HETATM   14  O   UNL     1       5.383  25.740  54.824  1.00  0.00    -0.266 OA
BRANCH  12  15
HETATM   15  C   UNL     1       7.365  23.534  54.445  1.00  0.00     0.037 A 
HETATM   16  C   UNL     1       7.622  23.825  55.787  1.00  0.00     0.066 A 
HETATM   17  C   UNL     1       8.146  22.838  56.622  1.00  0.00     0.067 A 
HETATM   18  C   UNL     1       8.411  21.560  56.145  1.00  0.00     0.036 A 
HETATM   19  C   UNL     1       8.157  21.263  54.808  1.00  0.00     0.005 A 
HETATM   20  C   UNL     1       7.640  22.248  53.962  1.00  0.00     0.029 A 
BRANCH  17  21
HETATM   21  O   UNL     1       8.418  23.093  57.935  1.00  0.00    -0.361 OA
HETATM   22  H   UNL     1       7.594  22.995  58.441  1.00  0.00     0.217 HD
ENDBRANCH  17  21
ENDBRANCH  12  15
ENDBRANCH   6  11
BRANCH   8  23
HETATM   23  C   UNL     1       3.339  29.487  51.191  1.00  0.00     0.409 C 
HETATM   24  F   UNL     1       2.526  28.440  50.960  1.00  0.00    -0.169 F 
HETATM   25  F   UNL     1       3.177  29.843  52.488  1.00  0.00    -0.169 F 
HETATM   26  F   UNL     1       2.875  30.528  50.454  1.00  0.00    -0.169 F 
ENDBRANCH   8  23
BRANCH   1  27
HETATM   27  C   UNL     1       3.406  28.236  47.911  1.00  0.00    -0.035 A 
HETATM   28  C   UNL     1       2.599  27.089  47.897  1.00  0.00     0.012 A 
HETATM   29  C   UNL     1       1.312  27.122  47.354  1.00  0.00     0.037 A 
HETATM   30  C   UNL     1       0.799  28.296  46.802  1.00  0.00     0.068 A 
HETATM   31  C   UNL     1       1.590  29.442  46.797  1.00  0.00     0.037 A 
HETATM   32  C   UNL     1       2.879  29.410  47.345  1.00  0.00     0.012 A 
BRANCH  30  33
HETATM   33  O   UNL     1      -0.468  28.188  46.302  1.00  0.00    -0.356 OA
HETATM   34  C   UNL     1      -0.623  27.461  45.090  1.00  0.00     0.210 C 
ENDBRANCH  30  33
ENDBRANCH   1  27
TORSDOF 6
ENDMDL
MODEL 6
REMARK VINA RESULT:      -8.6      6.433      9.684
REMARK  6 active torsions:
REMARK  status: ('A' for Active; 'I' for Inactive)
REMARK    1  A    between atoms: O_2  and  C_3 
REMARK    2  A    between atoms: C_6  and  C_7 
REMARK    3  A    between atoms: C_12  and  C_13 
REMARK       I    between atoms: C_13  and  N_14 
REMARK    4  A    between atoms: N_14  and  C_15 
REMARK    5  A    between atoms: C_17  and  O_18 
REMARK    6  A    between atoms: C_24  and  C_25 
ROOT
HETATM    1  C   UNL     1       5.146  25.348  54.138  1.00  0.00     0.118 C 
HETATM    2  N   UNL     1       4.769  25.648  52.760  1.00  0.00    -0.366 N 
HETATM    3  C   UNL     1       5.077  26.813  52.156  1.00  0.00     0.123 A 
HETATM    4  N   UNL     1       5.719  27.822  52.818  1.00  0.00    -0.240 N 
HETATM    5  N   UNL     1       5.856  28.951  52.097  1.00  0.00    -0.165 NA
HETATM    6  C   UNL     1       5.374  28.605  50.880  1.00  0.00     0.148 A 
HETATM    7  C   UNL     1       4.873  27.274  50.883  1.00  0.00     0.089 A 
HETATM    8  C   UNL     1       6.173  27.728  54.192  1.00  0.00     0.221 C 
HETATM    9  C   UNL     1       5.379  26.642  54.940  1.00  0.00     0.066 C 
HETATM   10  H   UNL     1       4.382  24.867  52.233  1.00  0.00     0.161 HD
ENDROOT
BRANCH   6  11
HETATM   11  C   UNL     1       5.383  29.538  49.739  1.00  0.00     0.276 C 
HETATM   12  N   UNL     1       4.318  29.319  48.887  1.00  0.00    -0.322 N 
HETATM   13  H   UNL     1       3.725  28.543  49.173  1.00  0.00     0.169 HD
HETATM   14  O   UNL     1       6.262  30.382  49.609  1.00  0.00    -0.266 OA
BRANCH  12  15
HETATM   15  C   UNL     1       3.984  30.009  47.709  1.00  0.00     0.037 A 
HETATM   16  C   UNL     1       4.929  30.522  46.817  1.00  0.00     0.066 A 
HETATM   17  C   UNL     1       4.506  31.202  45.675  1.00  0.00     0.067 A 
HETATM   18  C   UNL     1       3.155  31.373  45.400  1.00  0.00     0.036 A 
HETATM   19  C   UNL     1       2.207  30.865  46.286  1.00  0.00     0.005 A 
HETATM   20  C   UNL     1       2.622  30.190  47.437  1.00  0.00     0.029 A 
BRANCH  17  21
HETATM   21  O   UNL     1       5.404  31.723  44.788  1.00  0.00    -0.361 OA
HETATM   22  H   UNL     1       6.029  32.282  45.281  1.00  0.00     0.217 HD
ENDBRANCH  17  21
ENDBRANCH  12  15
ENDBRANCH   6  11
BRANCH   8  23
HETATM   23  C   UNL     1       7.671  27.536  54.228  1.00  0.00     0.409 C 
HETATM   24  F   UNL     1       8.120  26.917  55.335  1.00  0.00    -0.169 F 
HETATM   25  F   UNL     1       8.107  26.820  53.163  1.00  0.00    -0.169 F 
HETATM   26  F   UNL     1       8.298  28.738  54.155  1.00  0.00    -0.169 F 
ENDBRANCH   8  23
BRANCH   1  27
HETATM   27  C   UNL     1       6.261  24.320  54.235  1.00  0.00    -0.035 A 
HETATM   28  C   UNL     1       6.787  23.874  55.455  1.00  0.00     0.012 A 
HETATM   29  C   UNL     1       7.832  22.946  55.491  1.00  0.00     0.037 A 
HETATM   30  C   UNL     1       8.384  22.445  54.313  1.00  0.00     0.068 A 
HETATM   31  C   UNL     1       7.881  22.885  53.091  1.00  0.00     0.037 A 
HETATM   32  C   UNL     1       6.831  23.813  53.054  1.00  0.00     0.012 A 
BRANCH  30  33
HETATM   33  O   UNL     1       9.401  21.550  54.492  1.00  0.00    -0.356 OA
HETATM   34  C   UNL     1       9.302  20.676  55.608  1.00  0.00     0.210 C 
ENDBRANCH  30  33
ENDBRANCH   1  27
TORSDOF 6
ENDMDL
MODEL 7
REMARK VINA RESULT:      -8.4      2.661      3.718
REMARK  6 active torsions:
REMARK  status: ('A' for Active; 'I' for Inactive)
REMARK    1  A    between atoms: O_2  and  C_3 
REMARK    2  A    between atoms: C_6  and  C_7 
REMARK    3  A    between atoms: C_12  and  C_13 
REMARK       I    between atoms: C_13  and  N_14 
REMARK    4  A    between atoms: N_14  and  C_15 
REMARK    5  A    between atoms: C_17  and  O_18 
REMARK    6  A    between atoms: C_24  and  C_25 
ROOT
HETATM    1  C   UNL     1       7.953  25.652  52.918  1.00  0.00     0.118 C 
HETATM    2  N   UNL     1       8.126  26.699  53.920  1.00  0.00    -0.366 N 
HETATM    3  C   UNL     1       7.143  27.560  54.254  1.00  0.00     0.123 A 
HETATM    4  N   UNL     1       5.928  27.546  53.630  1.00  0.00    -0.240 N 
HETATM    5  N   UNL     1       5.102  28.537  54.015  1.00  0.00    -0.165 NA
HETATM    6  C   UNL     1       5.788  29.146  55.010  1.00  0.00     0.148 A 
HETATM    7  C   UNL     1       7.073  28.564  55.183  1.00  0.00     0.089 A 
HETATM    8  C   UNL     1       5.556  26.590  52.605  1.00  0.00     0.221 C 
HETATM    9  C   UNL     1       6.816  26.007  51.941  1.00  0.00     0.066 C 
HETATM   10  H   UNL     1       8.991  26.652  54.456  1.00  0.00     0.161 HD
ENDROOT
BRANCH   6  11
HETATM   11  C   UNL     1       5.225  30.276  55.773  1.00  0.00     0.276 C 
HETATM   12  N   UNL     1       5.556  30.208  57.112  1.00  0.00    -0.322 N 
HETATM   13  H   UNL     1       6.107  29.387  57.350  1.00  0.00     0.169 HD
HETATM   14  O   UNL     1       4.542  31.138  55.231  1.00  0.00    -0.266 OA
BRANCH  12  15
HETATM   15  C   UNL     1       5.218  31.102  58.142  1.00  0.00     0.037 A 
HETATM   16  C   UNL     1       3.914  31.292  58.608  1.00  0.00     0.066 A 
HETATM   17  C   UNL     1       3.670  32.207  59.631  1.00  0.00     0.067 A 
HETATM   18  C   UNL     1       4.705  32.934  60.207  1.00  0.00     0.036 A 
HETATM   19  C   UNL     1       6.007  32.751  59.747  1.00  0.00     0.005 A 
HETATM   20  C   UNL     1       6.260  31.841  58.717  1.00  0.00     0.029 A 
BRANCH  17  21
HETATM   21  O   UNL     1       2.407  32.422  60.102  1.00  0.00    -0.361 OA
HETATM   22  H   UNL     1       1.825  32.600  59.343  1.00  0.00     0.217 HD
ENDBRANCH  17  21
ENDBRANCH  12  15
ENDBRANCH   6  11
BRANCH   8  23
HETATM   23  C   UNL     1       4.622  25.551  53.181  1.00  0.00     0.409 C 
HETATM   24  F   UNL     1       4.924  25.177  54.438  1.00  0.00    -0.169 F 
HETATM   25  F   UNL     1       3.338  25.985  53.188  1.00  0.00    -0.169 F 
HETATM   26  F   UNL     1       4.637  24.433  52.412  1.00  0.00    -0.169 F 
ENDBRANCH   8  23
BRANCH   1  27
HETATM   27  C   UNL     1       7.870  24.262  53.525  1.00  0.00    -0.035 A 
HETATM   28  C   UNL     1       7.811  24.033  54.907  1.00  0.00     0.012 A 
HETATM   29  C   UNL     1       7.762  22.733  55.419  1.00  0.00     0.037 A 
HETATM   30  C   UNL     1       7.779  21.629  54.568  1.00  0.00     0.068 A 
HETATM   31  C   UNL     1       7.849  21.837  53.192  1.00  0.00     0.037 A 
HETATM   32  C   UNL     1       7.894  23.140  52.679  1.00  0.00     0.012 A 
BRANCH  30  33
HETATM   33  O   UNL     1       7.732  20.418  55.199  1.00  0.00    -0.356 OA
HETATM   34  C   UNL     1       8.974  19.834  55.569  1.00  0.00     0.210 C 
ENDBRANCH  30  33
ENDBRANCH   1  27
TORSDOF 6
ENDMDL
MODEL 8
REMARK VINA RESULT:      -8.3      7.260     10.592
REMARK  6 active torsions:
REMARK  status: ('A' for Active; 'I' for Inactive)
REMARK    1  A    between atoms: O_2  and  C_3 
REMARK    2  A    between atoms: C_6  and  C_7 
REMARK    3  A    between atoms: C_12  and  C_13 
REMARK       I    between atoms: C_13  and  N_14 
REMARK    4  A    between atoms: N_14  and  C_15 
REMARK    5  A    between atoms: C_17  and  O_18 
REMARK    6  A    between atoms: C_24  and  C_25 
ROOT
HETATM    1  C   UNL     1       3.611  30.064  50.449  1.00  0.00     0.118 C 
HETATM    2  N   UNL     1       4.469  29.766  51.591  1.00  0.00    -0.366 N 
HETATM    3  C   UNL     1       5.063  28.568  51.767  1.00  0.00     0.123 A 
HETATM    4  N   UNL     1       4.853  27.526  50.908  1.00  0.00    -0.240 N 
HETATM    5  N   UNL     1       5.440  26.376  51.288  1.00  0.00    -0.165 NA
HETATM    6  C   UNL     1       6.147  26.733  52.385  1.00  0.00     0.148 A 
HETATM    7  C   UNL     1       5.929  28.099  52.717  1.00  0.00     0.089 A 
HETATM    8  C   UNL     1       4.032  27.612  49.716  1.00  0.00     0.221 C 
HETATM    9  C   UNL     1       3.028  28.772  49.846  1.00  0.00     0.066 C 
HETATM   10  H   UNL     1       4.708  30.564  52.178  1.00  0.00     0.161 HD
ENDROOT
BRANCH   6  11
HETATM   11  C   UNL     1       7.005  25.779  53.110  1.00  0.00     0.276 C 
HETATM   12  N   UNL     1       6.532  24.485  53.014  1.00  0.00    -0.322 N 
HETATM   13  H   UNL     1       5.667  24.410  52.484  1.00  0.00     0.169 HD
HETATM   14  O   UNL     1       8.003  26.149  53.719  1.00  0.00    -0.266 OA
BRANCH  12  15
HETATM   15  C   UNL     1       7.081  23.310  53.556  1.00  0.00     0.037 A 
HETATM   16  C   UNL     1       7.504  22.225  52.785  1.00  0.00     0.066 A 
HETATM   17  C   UNL     1       8.031  21.094  53.410  1.00  0.00     0.067 A 
HETATM   18  C   UNL     1       8.152  21.028  54.792  1.00  0.00     0.036 A 
HETATM   19  C   UNL     1       7.731  22.107  55.568  1.00  0.00     0.005 A 
HETATM   20  C   UNL     1       7.194  23.240  54.951  1.00  0.00     0.029 A 
BRANCH  17  21
HETATM   21  O   UNL     1       8.445  20.014  52.686  1.00  0.00    -0.361 OA
HETATM   22  H   UNL     1       7.751  19.795  52.041  1.00  0.00     0.217 HD
ENDBRANCH  17  21
ENDBRANCH  12  15
ENDBRANCH   6  11
BRANCH   8  23
HETATM   23  C   UNL     1       4.910  27.688  48.488  1.00  0.00     0.409 C 
HETATM   24  F   UNL     1       4.337  28.305  47.439  1.00  0.00    -0.169 F 
HETATM   25  F   UNL     1       6.073  28.333  48.748  1.00  0.00    -0.169 F 
HETATM   26  F   UNL     1       5.255  26.439  48.084  1.00  0.00    -0.169 F 
ENDBRANCH   8  23
BRANCH   1  27
HETATM   27  C   UNL     1       4.265  31.003  49.449  1.00  0.00    -0.035 A 
HETATM   28  C   UNL     1       3.678  31.345  48.222  1.00  0.00     0.012 A 
HETATM   29  C   UNL     1       4.332  32.193  47.324  1.00  0.00     0.037 A 
HETATM   30  C   UNL     1       5.590  32.716  47.622  1.00  0.00     0.068 A 
HETATM   31  C   UNL     1       6.193  32.379  48.832  1.00  0.00     0.037 A 
HETATM   32  C   UNL     1       5.536  31.532  49.734  1.00  0.00     0.012 A 
BRANCH  30  33
HETATM   33  O   UNL     1       6.117  33.526  46.655  1.00  0.00    -0.356 OA
HETATM   34  C   UNL     1       7.484  33.889  46.793  1.00  0.00     0.210 C 
ENDBRANCH  30  33
ENDBRANCH   1  27
TORSDOF 6
ENDMDL
MODEL 9
REMARK VINA RESULT:      -8.3      8.555     10.753
REMARK  6 active torsions:
REMARK  status: ('A' for Active; 'I' for Inactive)
REMARK    1  A    between atoms: O_2  and  C_3 
REMARK    2  A    between atoms: C_6  and  C_7 
REMARK    3  A    between atoms: C_12  and  C_13 
REMARK       I    between atoms: C_13  and  N_14 
REMARK    4  A    between atoms: N_14  and  C_15 
REMARK    5  A    between atoms: C_17  and  O_18 
REMARK    6  A    between atoms: C_24  and  C_25 
ROOT
HETATM    1  C   UNL     1       2.760  34.908  62.186  1.00  0.00     0.118 C 
HETATM    2  N   UNL     1       2.664  35.338  63.578  1.00  0.00    -0.366 N 
HETATM    3  C   UNL     1       3.437  34.826  64.556  1.00  0.00     0.123 A 
HETATM    4  N   UNL     1       4.331  33.821  64.317  1.00  0.00    -0.240 N 
HETATM    5  N   UNL     1       4.946  33.359  65.423  1.00  0.00    -0.165 NA
HETATM    6  C   UNL     1       4.499  34.186  66.397  1.00  0.00     0.148 A 
HETATM    7  C   UNL     1       3.548  35.115  65.890  1.00  0.00     0.089 A 
HETATM    8  C   UNL     1       4.575  33.248  63.008  1.00  0.00     0.221 C 
HETATM    9  C   UNL     1       3.367  33.496  62.087  1.00  0.00     0.066 C 
HETATM   10  H   UNL     1       2.073  36.153  63.743  1.00  0.00     0.161 HD
ENDROOT
BRANCH   6  11
HETATM   11  C   UNL     1       4.966  34.080  67.791  1.00  0.00     0.276 C 
HETATM   12  N   UNL     1       6.196  34.683  67.969  1.00  0.00    -0.322 N 
HETATM   13  H   UNL     1       6.581  35.074  67.113  1.00  0.00     0.169 HD
HETATM   14  O   UNL     1       4.303  33.504  68.647  1.00  0.00    -0.266 OA
BRANCH  12  15
HETATM   15  C   UNL     1       6.951  34.797  69.149  1.00  0.00     0.037 A 
HETATM   16  C   UNL     1       7.342  33.706  69.928  1.00  0.00     0.066 A 
HETATM   17  C   UNL     1       8.086  33.914  71.090  1.00  0.00     0.067 A 
HETATM   18  C   UNL     1       8.453  35.194  71.487  1.00  0.00     0.036 A 
HETATM   19  C   UNL     1       8.065  36.287  70.716  1.00  0.00     0.005 A 
HETATM   20  C   UNL     1       7.314  36.088  69.555  1.00  0.00     0.029 A 
BRANCH  17  21
HETATM   21  O   UNL     1       8.476  32.870  71.877  1.00  0.00    -0.361 OA
HETATM   22  H   UNL     1       9.435  32.937  72.020  1.00  0.00     0.217 HD
ENDBRANCH  17  21
ENDBRANCH  12  15
ENDBRANCH   6  11
BRANCH   8  23
HETATM   23  C   UNL     1       5.887  33.759  62.458  1.00  0.00     0.409 C 
HETATM   24  F   UNL     1       5.949  33.781  61.114  1.00  0.00    -0.169 F 
HETATM   25  F   UNL     1       6.155  35.014  62.894  1.00  0.00    -0.169 F 
HETATM   26  F   UNL     1       6.910  32.982  62.897  1.00  0.00    -0.169 F 
ENDBRANCH   8  23
BRANCH   1  27
HETATM   27  C   UNL     1       3.405  35.951  61.290  1.00  0.00    -0.035 A 
HETATM   28  C   UNL     1       3.580  35.772  59.910  1.00  0.00     0.012 A 
HETATM   29  C   UNL     1       4.204  36.750  59.131  1.00  0.00     0.037 A 
HETATM   30  C   UNL     1       4.677  37.929  59.708  1.00  0.00     0.068 A 
HETATM   31  C   UNL     1       4.521  38.119  61.079  1.00  0.00     0.037 A 
HETATM   32  C   UNL     1       3.892  37.140  61.859  1.00  0.00     0.012 A 
BRANCH  30  33
HETATM   33  O   UNL     1       5.269  38.797  58.835  1.00  0.00    -0.356 OA
HETATM   34  C   UNL     1       5.106  38.528  57.448  1.00  0.00     0.210 C 
ENDBRANCH  30  33
ENDBRANCH   1  27
TORSDOF 6
ENDMDL
MODEL 10
REMARK VINA RESULT:      -8.2      2.920      4.061
REMARK  6 active torsions:
REMARK  status: ('A' for Active; 'I' for Inactive)
REMARK    1  A    between atoms: O_2  and  C_3 
REMARK    2  A    between atoms: C_6  and  C_7 
REMARK    3  A    between atoms: C_12  and  C_13 
REMARK       I    between atoms: C_13  and  N_14 
REMARK    4  A    between atoms: N_14  and  C_15 
REMARK    5  A    between atoms: C_17  and  O_18 
REMARK    6  A    between atoms: C_24  and  C_25 
ROOT
HETATM    1  C   UNL     1       4.391  27.961  55.537  1.00  0.00     0.118 C 
HETATM    2  N   UNL     1       4.260  29.226  56.252  1.00  0.00    -0.366 N 
HETATM    3  C   UNL     1       5.203  29.691  57.096  1.00  0.00     0.123 A 
HETATM    4  N   UNL     1       6.329  28.972  57.385  1.00  0.00    -0.240 N 
HETATM    5  N   UNL     1       7.113  29.536  58.323  1.00  0.00    -0.165 NA
HETATM    6  C   UNL     1       6.509  30.723  58.563  1.00  0.00     0.148 A 
HETATM    7  C   UNL     1       5.306  30.851  57.815  1.00  0.00     0.089 A 
HETATM    8  C   UNL     1       6.647  27.690  56.787  1.00  0.00     0.221 C 
HETATM    9  C   UNL     1       5.366  27.016  56.265  1.00  0.00     0.066 C 
HETATM   10  H   UNL     1       3.474  29.810  55.966  1.00  0.00     0.161 HD
ENDROOT
BRANCH   6  11
HETATM   11  C   UNL     1       7.069  31.712  59.503  1.00  0.00     0.276 C 
HETATM   12  N   UNL     1       6.382  31.730  60.701  1.00  0.00    -0.322 N 
HETATM   13  H   UNL     1       5.598  31.081  60.726  1.00  0.00     0.169 HD
HETATM   14  O   UNL     1       8.025  32.415  59.198  1.00  0.00    -0.266 OA
BRANCH  12  15
HETATM   15  C   UNL     1       6.624  32.521  61.837  1.00  0.00     0.037 A 
HETATM   16  C   UNL     1       5.963  33.723  62.100  1.00  0.00     0.066 A 
HETATM   17  C   UNL     1       6.274  34.448  63.250  1.00  0.00     0.067 A 
HETATM   18  C   UNL     1       7.229  33.992  64.150  1.00  0.00     0.036 A 
HETATM   19  C   UNL     1       7.893  32.794  63.894  1.00  0.00     0.005 A 
HETATM   20  C   UNL     1       7.594  32.065  62.740  1.00  0.00     0.029 A 
BRANCH  17  21
HETATM   21  O   UNL     1       5.653  35.630  63.531  1.00  0.00    -0.361 OA
HETATM   22  H   UNL     1       6.336  36.311  63.660  1.00  0.00     0.217 HD
ENDBRANCH  17  21
ENDBRANCH  12  15
ENDBRANCH   6  11
BRANCH   8  23
HETATM   23  C   UNL     1       7.726  27.861  55.743  1.00  0.00     0.409 C 
HETATM   24  F   UNL     1       7.600  28.975  54.999  1.00  0.00    -0.169 F 
HETATM   25  F   UNL     1       8.960  27.889  56.303  1.00  0.00    -0.169 F 
HETATM   26  F   UNL     1       7.723  26.803  54.892  1.00  0.00    -0.169 F 
ENDBRANCH   8  23
BRANCH   1  27
HETATM   27  C   UNL     1       4.661  28.146  54.054  1.00  0.00    -0.035 A 
HETATM   28  C   UNL     1       4.683  29.401  53.430  1.00  0.00     0.012 A 
HETATM   29  C   UNL     1       4.909  29.518  52.056  1.00  0.00     0.037 A 
HETATM   30  C   UNL     1       5.113  28.387  51.266  1.00  0.00     0.068 A 
HETATM   31  C   UNL     1       5.085  27.130  51.867  1.00  0.00     0.037 A 
HETATM   32  C   UNL     1       4.861  27.013  53.245  1.00  0.00     0.012 A 
BRANCH  30  33
HETATM   33  O   UNL     1       5.319  28.643  49.940  1.00  0.00    -0.356 OA
HETATM   34  C   UNL     1       4.866  27.662  49.016  1.00  0.00     0.210 C 
ENDBRANCH  30  33
ENDBRANCH   1  27
TORSDOF 6
ENDMDL
