MODEL 1
REMARK VINA RESULT:      -8.4      0.000      0.000
REMARK  4 active torsions:
REMARK  status: ('A' for Active; 'I' for Inactive)
REMARK    1  A    between atoms: C_4  and  C_5 
REMARK       I    between atoms: C_5  and  N_6 
REMARK    2  A    between atoms: N_6  and  C_7 
REMARK    3  A    between atoms: C_7  and  N_8 
REMARK    4  A    between atoms: N_8  and  C_9 
ROOT
HETATM    1  C   UNL     1       7.402  25.830  56.996  1.00  0.00     0.257 C 
HETATM    2  N   UNL     1       6.530  26.858  56.656  1.00  0.00    -0.299 N 
HETATM    3  O   UNL     1       8.043  25.720  58.031  1.00  0.00    -0.267 OA
HETATM    4  H   UNL     1       6.385  26.943  55.658  1.00  0.00     0.171 HD
ENDROOT
BRANCH   2   5
HETATM    5  C   UNL     1       6.461  28.065  57.273  1.00  0.00     0.179 C 
HETATM    6  S   UNL     1       5.118  29.021  56.982  1.00  0.00    -0.040 SA
BRANCH   5   7
HETATM    7  N   UNL     1       7.426  28.535  58.092  1.00  0.00    -0.332 N 
HETATM    8  H   UNL     1       7.423  28.091  59.005  1.00  0.00     0.168 HD
BRANCH   7   9
HETATM    9  C   UNL     1       8.583  29.297  57.813  1.00  0.00     0.051 A 
HETATM   10  C   UNL     1       8.771  30.492  58.511  1.00  0.00     0.145 A 
HETATM   11  N   UNL     1       9.869  31.281  58.417  1.00  0.00    -0.271 NA
HETATM   12  C   UNL     1      10.833  30.864  57.574  1.00  0.00     0.116 A 
HETATM   13  C   UNL     1      10.751  29.696  56.834  1.00  0.00     0.021 A 
HETATM   14  C   UNL     1       9.612  28.899  56.964  1.00  0.00     0.032 A 
ENDBRANCH   7   9
ENDBRANCH   5   7
ENDBRANCH   2   5
BRANCH   1  15
HETATM   15  C   UNL     1       7.571  24.816  55.921  1.00  0.00     0.033 A 
HETATM   16  C   UNL     1       7.634  25.252  54.595  1.00  0.00     0.023 A 
HETATM   17  C   UNL     1       7.703  24.318  53.554  1.00  0.00    -0.061 A 
HETATM   18  C   UNL     1       7.732  24.760  52.120  1.00  0.00     0.048 C 
HETATM   19  C   UNL     1       7.750  22.950  53.864  1.00  0.00     0.013 A 
HETATM   20  C   UNL     1       7.726  22.508  55.195  1.00  0.00    -0.061 A 
HETATM   21  C   UNL     1       7.620  23.450  56.225  1.00  0.00     0.023 A 
HETATM   22  C   UNL     1       7.766  21.038  55.496  1.00  0.00     0.048 C 
ENDBRANCH   1  15
TORSDOF 4
ENDMDL
MODEL 2
REMARK VINA RESULT:      -8.1      0.866      2.264
REMARK  4 active torsions:
REMARK  status: ('A' for Active; 'I' for Inactive)
REMARK    1  A    between atoms: C_4  and  C_5 
REMARK       I    between atoms: C_5  and  N_6 
REMARK    2  A    between atoms: N_6  and  C_7 
REMARK    3  A    between atoms: C_7  and  N_8 
REMARK    4  A    between atoms: N_8  and  C_9 
ROOT
HETATM    1  C   UNL     1       7.571  25.669  57.152  1.00  0.00     0.257 C 
HETATM    2  N   UNL     1       6.699  26.633  56.659  1.00  0.00    -0.299 N 
HETATM    3  O   UNL     1       8.192  25.708  58.205  1.00  0.00    -0.267 OA
HETATM    4  H   UNL     1       6.573  26.580  55.656  1.00  0.00     0.171 HD
ENDROOT
BRANCH   2   5
HETATM    5  C   UNL     1       6.608  27.912  57.104  1.00  0.00     0.179 C 
HETATM    6  S   UNL     1       5.455  28.906  56.409  1.00  0.00    -0.040 SA
BRANCH   5   7
HETATM    7  N   UNL     1       7.410  28.421  58.063  1.00  0.00    -0.332 N 
HETATM    8  H   UNL     1       7.295  27.963  58.962  1.00  0.00     0.168 HD
BRANCH   7   9
HETATM    9  C   UNL     1       8.550  29.251  57.969  1.00  0.00     0.051 A 
HETATM   10  C   UNL     1       9.506  28.953  56.995  1.00  0.00     0.145 A 
HETATM   11  N   UNL     1      10.601  29.705  56.726  1.00  0.00    -0.271 NA
HETATM   12  C   UNL     1      10.761  30.813  57.474  1.00  0.00     0.116 A 
HETATM   13  C   UNL     1       9.876  31.203  58.465  1.00  0.00     0.021 A 
HETATM   14  C   UNL     1       8.751  30.413  58.708  1.00  0.00     0.032 A 
ENDBRANCH   7   9
ENDBRANCH   5   7
ENDBRANCH   2   5
BRANCH   1  15
HETATM   15  C   UNL     1       7.769  24.520  56.229  1.00  0.00     0.033 A 
HETATM   16  C   UNL     1       8.080  23.271  56.774  1.00  0.00     0.023 A 
HETATM   17  C   UNL     1       8.359  22.190  55.931  1.00  0.00    -0.061 A 
HETATM   18  C   UNL     1       8.733  20.849  56.491  1.00  0.00     0.048 C 
HETATM   19  C   UNL     1       8.282  22.369  54.541  1.00  0.00     0.013 A 
HETATM   20  C   UNL     1       7.934  23.610  53.988  1.00  0.00    -0.061 A 
HETATM   21  C   UNL     1       7.692  24.693  54.842  1.00  0.00     0.023 A 
HETATM   22  C   UNL     1       7.870  23.774  52.498  1.00  0.00     0.048 C 
ENDBRANCH   1  15
TORSDOF 4
ENDMDL
MODEL 3
REMARK VINA RESULT:      -8.1      4.688      6.838
REMARK  4 active torsions:
REMARK  status: ('A' for Active; 'I' for Inactive)
REMARK    1  A    between atoms: C_4  and  C_5 
REMARK       I    between atoms: C_5  and  N_6 
REMARK    2  A    between atoms: N_6  and  C_7 
REMARK    3  A    between atoms: C_7  and  N_8 
REMARK    4  A    between atoms: N_8  and  C_9 
ROOT
HETATM    1  C   UNL     1       6.854  25.054  52.597  1.00  0.00     0.257 C 
HETATM    2  N   UNL     1       5.769  25.710  53.168  1.00  0.00    -0.299 N 
HETATM    3  O   UNL     1       7.340  25.258  51.495  1.00  0.00    -0.267 OA
HETATM    4  H   UNL     1       5.321  25.175  53.901  1.00  0.00     0.171 HD
ENDROOT
BRANCH   2   5
HETATM    5  C   UNL     1       4.873  26.478  52.496  1.00  0.00     0.179 C 
HETATM    6  S   UNL     1       4.244  27.817  53.278  1.00  0.00    -0.040 SA
BRANCH   5   7
HETATM    7  N   UNL     1       4.457  26.204  51.241  1.00  0.00    -0.332 N 
HETATM    8  H   UNL     1       3.636  25.609  51.215  1.00  0.00     0.168 HD
BRANCH   7   9
HETATM    9  C   UNL     1       4.778  26.817  50.009  1.00  0.00     0.051 A 
HETATM   10  C   UNL     1       4.391  26.175  48.831  1.00  0.00     0.145 A 
HETATM   11  N   UNL     1       4.547  26.681  47.583  1.00  0.00    -0.271 NA
HETATM   12  C   UNL     1       5.131  27.892  47.499  1.00  0.00     0.116 A 
HETATM   13  C   UNL     1       5.552  28.617  48.602  1.00  0.00     0.021 A 
HETATM   14  C   UNL     1       5.364  28.073  49.874  1.00  0.00     0.032 A 
ENDBRANCH   7   9
ENDBRANCH   5   7
ENDBRANCH   2   5
BRANCH   1  15
HETATM   15  C   UNL     1       7.401  23.964  53.447  1.00  0.00     0.033 A 
HETATM   16  C   UNL     1       7.621  24.220  54.804  1.00  0.00     0.023 A 
HETATM   17  C   UNL     1       8.217  23.245  55.611  1.00  0.00    -0.061 A 
HETATM   18  C   UNL     1       8.499  23.510  57.062  1.00  0.00     0.048 C 
HETATM   19  C   UNL     1       8.549  22.001  55.051  1.00  0.00     0.013 A 
HETATM   20  C   UNL     1       8.297  21.725  53.700  1.00  0.00    -0.061 A 
HETATM   21  C   UNL     1       7.733  22.721  52.894  1.00  0.00     0.023 A 
HETATM   22  C   UNL     1       8.674  20.391  53.126  1.00  0.00     0.048 C 
ENDBRANCH   1  15
TORSDOF 4
ENDMDL
MODEL 4
REMARK VINA RESULT:      -8.0      4.753      6.852
REMARK  4 active torsions:
REMARK  status: ('A' for Active; 'I' for Inactive)
REMARK    1  A    between atoms: C_4  and  C_5 
REMARK       I    between atoms: C_5  and  N_6 
REMARK    2  A    between atoms: N_6  and  C_7 
REMARK    3  A    between atoms: C_7  and  N_8 
REMARK    4  A    between atoms: N_8  and  C_9 
ROOT
HETATM    1  C   UNL     1       6.984  25.193  52.698  1.00  0.00     0.257 C 
HETATM    2  N   UNL     1       5.719  25.603  53.104  1.00  0.00    -0.299 N 
HETATM    3  O   UNL     1       7.643  25.647  51.775  1.00  0.00    -0.267 OA
HETATM    4  H   UNL     1       5.221  24.896  53.631  1.00  0.00     0.171 HD
ENDROOT
BRANCH   2   5
HETATM    5  C   UNL     1       4.868  26.367  52.372  1.00  0.00     0.179 C 
HETATM    6  S   UNL     1       4.211  27.725  53.096  1.00  0.00    -0.040 SA
BRANCH   5   7
HETATM    7  N   UNL     1       4.518  26.076  51.101  1.00  0.00    -0.332 N 
HETATM    8  H   UNL     1       3.779  25.383  51.041  1.00  0.00     0.168 HD
BRANCH   7   9
HETATM    9  C   UNL     1       4.786  26.755  49.892  1.00  0.00     0.051 A 
HETATM   10  C   UNL     1       4.333  26.187  48.699  1.00  0.00     0.145 A 
HETATM   11  N   UNL     1       4.434  26.761  47.476  1.00  0.00    -0.271 NA
HETATM   12  C   UNL     1       5.030  27.969  47.433  1.00  0.00     0.116 A 
HETATM   13  C   UNL     1       5.515  28.624  48.553  1.00  0.00     0.021 A 
HETATM   14  C   UNL     1       5.382  28.010  49.799  1.00  0.00     0.032 A 
ENDBRANCH   7   9
ENDBRANCH   5   7
ENDBRANCH   2   5
BRANCH   1  15
HETATM   15  C   UNL     1       7.511  24.040  53.476  1.00  0.00     0.033 A 
HETATM   16  C   UNL     1       7.747  22.835  52.808  1.00  0.00     0.023 A 
HETATM   17  C   UNL     1       8.159  21.707  53.526  1.00  0.00    -0.061 A 
HETATM   18  C   UNL     1       8.381  20.392  52.837  1.00  0.00     0.048 C 
HETATM   19  C   UNL     1       8.370  21.815  54.909  1.00  0.00     0.013 A 
HETATM   20  C   UNL     1       8.171  23.031  55.579  1.00  0.00    -0.061 A 
HETATM   21  C   UNL     1       7.725  24.144  54.856  1.00  0.00     0.023 A 
HETATM   22  C   UNL     1       8.393  23.114  57.061  1.00  0.00     0.048 C 
ENDBRANCH   1  15
TORSDOF 4
ENDMDL
MODEL 5
REMARK VINA RESULT:      -8.0      2.116      2.757
REMARK  4 active torsions:
REMARK  status: ('A' for Active; 'I' for Inactive)
REMARK    1  A    between atoms: C_4  and  C_5 
REMARK       I    between atoms: C_5  and  N_6 
REMARK    2  A    between atoms: N_6  and  C_7 
REMARK    3  A    between atoms: C_7  and  N_8 
REMARK    4  A    between atoms: N_8  and  C_9 
ROOT
HETATM    1  C   UNL     1       7.628  25.309  53.695  1.00  0.00     0.257 C 
HETATM    2  N   UNL     1       7.562  26.219  54.744  1.00  0.00    -0.299 N 
HETATM    3  O   UNL     1       7.458  25.542  52.507  1.00  0.00    -0.267 OA
HETATM    4  H   UNL     1       7.385  25.782  55.640  1.00  0.00     0.171 HD
ENDROOT
BRANCH   2   5
HETATM    5  C   UNL     1       7.008  27.457  54.678  1.00  0.00     0.179 C 
HETATM    6  S   UNL     1       5.356  27.566  54.439  1.00  0.00    -0.040 SA
BRANCH   5   7
HETATM    7  N   UNL     1       7.726  28.595  54.779  1.00  0.00    -0.332 N 
HETATM    8  H   UNL     1       7.460  29.295  54.093  1.00  0.00     0.168 HD
BRANCH   7   9
HETATM    9  C   UNL     1       8.551  29.077  55.820  1.00  0.00     0.051 A 
HETATM   10  C   UNL     1       9.856  29.462  55.505  1.00  0.00     0.145 A 
HETATM   11  N   UNL     1      10.732  30.024  56.374  1.00  0.00    -0.271 NA
HETATM   12  C   UNL     1      10.288  30.205  57.633  1.00  0.00     0.116 A 
HETATM   13  C   UNL     1       9.014  29.861  58.053  1.00  0.00     0.021 A 
HETATM   14  C   UNL     1       8.133  29.296  57.129  1.00  0.00     0.032 A 
ENDBRANCH   7   9
ENDBRANCH   5   7
ENDBRANCH   2   5
BRANCH   1  15
HETATM   15  C   UNL     1       7.880  23.912  54.137  1.00  0.00     0.033 A 
HETATM   16  C   UNL     1       7.954  22.907  53.167  1.00  0.00     0.023 A 
HETATM   17  C   UNL     1       8.102  21.571  53.555  1.00  0.00    -0.061 A 
HETATM   18  C   UNL     1       8.145  20.471  52.535  1.00  0.00     0.048 C 
HETATM   19  C   UNL     1       8.217  21.263  54.920  1.00  0.00     0.013 A 
HETATM   20  C   UNL     1       8.181  22.270  55.895  1.00  0.00    -0.061 A 
HETATM   21  C   UNL     1       7.997  23.599  55.497  1.00  0.00     0.023 A 
HETATM   22  C   UNL     1       8.295  21.909  57.347  1.00  0.00     0.048 C 
ENDBRANCH   1  15
TORSDOF 4
ENDMDL
MODEL 6
REMARK VINA RESULT:      -8.0      1.994      2.894
REMARK  4 active torsions:
REMARK  status: ('A' for Active; 'I' for Inactive)
REMARK    1  A    between atoms: C_4  and  C_5 
REMARK       I    between atoms: C_5  and  N_6 
REMARK    2  A    between atoms: N_6  and  C_7 
REMARK    3  A    between atoms: C_7  and  N_8 
REMARK    4  A    between atoms: N_8  and  C_9 
ROOT
HETATM    1  C   UNL     1       7.584  25.141  53.892  1.00  0.00     0.257 C 
HETATM    2  N   UNL     1       7.569  25.992  54.992  1.00  0.00    -0.299 N 
HETATM    3  O   UNL     1       7.421  25.450  52.721  1.00  0.00    -0.267 OA
HETATM    4  H   UNL     1       7.374  25.514  55.862  1.00  0.00     0.171 HD
ENDROOT
BRANCH   2   5
HETATM    5  C   UNL     1       7.079  27.258  54.999  1.00  0.00     0.179 C 
HETATM    6  S   UNL     1       5.418  27.456  55.056  1.00  0.00    -0.040 SA
BRANCH   5   7
HETATM    7  N   UNL     1       7.862  28.356  54.947  1.00  0.00    -0.332 N 
HETATM    8  H   UNL     1       7.716  28.909  54.109  1.00  0.00     0.168 HD
BRANCH   7   9
HETATM    9  C   UNL     1       8.611  29.003  55.956  1.00  0.00     0.051 A 
HETATM   10  C   UNL     1       8.106  29.002  57.258  1.00  0.00     0.145 A 
HETATM   11  N   UNL     1       8.750  29.501  58.341  1.00  0.00    -0.271 NA
HETATM   12  C   UNL     1       9.963  30.042  58.117  1.00  0.00     0.116 A 
HETATM   13  C   UNL     1      10.559  30.095  56.867  1.00  0.00     0.021 A 
HETATM   14  C   UNL     1       9.874  29.560  55.775  1.00  0.00     0.032 A 
ENDBRANCH   7   9
ENDBRANCH   5   7
ENDBRANCH   2   5
BRANCH   1  15
HETATM   15  C   UNL     1       7.768  23.710  54.252  1.00  0.00     0.033 A 
HETATM   16  C   UNL     1       7.852  23.367  55.604  1.00  0.00     0.023 A 
HETATM   17  C   UNL     1       8.112  22.043  55.974  1.00  0.00    -0.061 A 
HETATM   18  C   UNL     1       8.246  21.656  57.418  1.00  0.00     0.048 C 
HETATM   19  C   UNL     1       8.245  21.066  54.975  1.00  0.00     0.013 A 
HETATM   20  C   UNL     1       8.124  21.397  53.618  1.00  0.00    -0.061 A 
HETATM   21  C   UNL     1       7.899  22.732  53.259  1.00  0.00     0.023 A 
HETATM   22  C   UNL     1       8.283  20.334  52.571  1.00  0.00     0.048 C 
ENDBRANCH   1  15
TORSDOF 4
ENDMDL
MODEL 7
REMARK VINA RESULT:      -7.9      1.715      2.928
REMARK  4 active torsions:
REMARK  status: ('A' for Active; 'I' for Inactive)
REMARK    1  A    between atoms: C_4  and  C_5 
REMARK       I    between atoms: C_5  and  N_6 
REMARK    2  A    between atoms: N_6  and  C_7 
REMARK    3  A    between atoms: C_7  and  N_8 
REMARK    4  A    between atoms: N_8  and  C_9 
ROOT
HETATM    1  C   UNL     1       7.867  26.162  56.966  1.00  0.00     0.257 C 
HETATM    2  N   UNL     1       7.961  27.450  56.449  1.00  0.00    -0.299 N 
HETATM    3  O   UNL     1       7.914  25.837  58.143  1.00  0.00    -0.267 OA
HETATM    4  H   UNL     1       8.247  27.469  55.478  1.00  0.00     0.171 HD
ENDROOT
BRANCH   2   5
HETATM    5  C   UNL     1       8.419  28.535  57.124  1.00  0.00     0.179 C 
HETATM    6  S   UNL     1       9.695  29.392  56.461  1.00  0.00    -0.040 SA
BRANCH   5   7
HETATM    7  N   UNL     1       7.907  28.944  58.304  1.00  0.00    -0.332 N 
HETATM    8  H   UNL     1       7.549  28.179  58.868  1.00  0.00     0.168 HD
BRANCH   7   9
HETATM    9  C   UNL     1       8.042  30.169  58.994  1.00  0.00     0.051 A 
HETATM   10  C   UNL     1       7.145  31.198  58.697  1.00  0.00     0.145 A 
HETATM   11  N   UNL     1       7.093  32.392  59.336  1.00  0.00    -0.271 NA
HETATM   12  C   UNL     1       7.992  32.580  60.322  1.00  0.00     0.116 A 
HETATM   13  C   UNL     1       8.925  31.629  60.699  1.00  0.00     0.021 A 
HETATM   14  C   UNL     1       8.943  30.404  60.029  1.00  0.00     0.032 A 
ENDBRANCH   7   9
ENDBRANCH   5   7
ENDBRANCH   2   5
BRANCH   1  15
HETATM   15  C   UNL     1       7.753  25.111  55.921  1.00  0.00     0.033 A 
HETATM   16  C   UNL     1       7.737  23.771  56.319  1.00  0.00     0.023 A 
HETATM   17  C   UNL     1       7.720  22.756  55.357  1.00  0.00    -0.061 A 
HETATM   18  C   UNL     1       7.742  21.310  55.759  1.00  0.00     0.048 C 
HETATM   19  C   UNL     1       7.677  23.102  53.997  1.00  0.00     0.013 A 
HETATM   20  C   UNL     1       7.654  24.444  53.592  1.00  0.00    -0.061 A 
HETATM   21  C   UNL     1       7.708  25.451  54.563  1.00  0.00     0.023 A 
HETATM   22  C   UNL     1       7.619  24.784  52.131  1.00  0.00     0.048 C 
ENDBRANCH   1  15
TORSDOF 4
ENDMDL
MODEL 8
REMARK VINA RESULT:      -7.8      4.728      7.476
REMARK  4 active torsions:
REMARK  status: ('A' for Active; 'I' for Inactive)
REMARK    1  A    between atoms: C_4  and  C_5 
REMARK       I    between atoms: C_5  and  N_6 
REMARK    2  A    between atoms: N_6  and  C_7 
REMARK    3  A    between atoms: C_7  and  N_8 
REMARK    4  A    between atoms: N_8  and  C_9 
ROOT
HETATM    1  C   UNL     1       5.989  24.874  52.660  1.00  0.00     0.257 C 
HETATM    2  N   UNL     1       6.575  25.730  51.735  1.00  0.00    -0.299 N 
HETATM    3  O   UNL     1       4.800  24.785  52.931  1.00  0.00    -0.267 OA
HETATM    4  H   UNL     1       7.559  25.894  51.911  1.00  0.00     0.171 HD
ENDROOT
BRANCH   2   5
HETATM    5  C   UNL     1       5.981  26.822  51.188  1.00  0.00     0.179 C 
HETATM    6  S   UNL     1       5.660  28.125  52.187  1.00  0.00    -0.040 SA
BRANCH   5   7
HETATM    7  N   UNL     1       5.625  26.897  49.888  1.00  0.00    -0.332 N 
HETATM    8  H   UNL     1       6.410  26.786  49.254  1.00  0.00     0.168 HD
BRANCH   7   9
HETATM    9  C   UNL     1       4.356  26.814  49.273  1.00  0.00     0.051 A 
HETATM   10  C   UNL     1       3.507  27.920  49.355  1.00  0.00     0.145 A 
HETATM   11  N   UNL     1       2.303  28.023  48.742  1.00  0.00    -0.271 NA
HETATM   12  C   UNL     1       1.913  26.960  48.012  1.00  0.00     0.116 A 
HETATM   13  C   UNL     1       2.675  25.813  47.862  1.00  0.00     0.021 A 
HETATM   14  C   UNL     1       3.917  25.745  48.496  1.00  0.00     0.032 A 
ENDBRANCH   7   9
ENDBRANCH   5   7
ENDBRANCH   2   5
BRANCH   1  15
HETATM   15  C   UNL     1       6.972  24.042  53.404  1.00  0.00     0.033 A 
HETATM   16  C   UNL     1       7.378  22.826  52.844  1.00  0.00     0.023 A 
HETATM   17  C   UNL     1       8.232  21.979  53.558  1.00  0.00    -0.061 A 
HETATM   18  C   UNL     1       8.651  20.652  52.996  1.00  0.00     0.048 C 
HETATM   19  C   UNL     1       8.705  22.385  54.816  1.00  0.00     0.013 A 
HETATM   20  C   UNL     1       8.332  23.620  55.366  1.00  0.00    -0.061 A 
HETATM   21  C   UNL     1       7.448  24.443  54.658  1.00  0.00     0.023 A 
HETATM   22  C   UNL     1       8.844  24.023  56.718  1.00  0.00     0.048 C 
ENDBRANCH   1  15
TORSDOF 4
ENDMDL
MODEL 9
REMARK VINA RESULT:      -7.6      3.711      5.496
REMARK  4 active torsions:
REMARK  status: ('A' for Active; 'I' for Inactive)
REMARK    1  A    between atoms: C_4  and  C_5 
REMARK       I    between atoms: C_5  and  N_6 
REMARK    2  A    between atoms: N_6  and  C_7 
REMARK    3  A    between atoms: C_7  and  N_8 
REMARK    4  A    between atoms: N_8  and  C_9 
ROOT
HETATM    1  C   UNL     1       7.790  25.124  53.728  1.00  0.00     0.257 C 
HETATM    2  N   UNL     1       7.220  25.928  54.709  1.00  0.00    -0.299 N 
HETATM    3  O   UNL     1       8.135  25.465  52.606  1.00  0.00    -0.267 OA
HETATM    4  H   UNL     1       6.702  25.403  55.402  1.00  0.00     0.171 HD
ENDROOT
BRANCH   2   5
HETATM    5  C   UNL     1       6.671  27.152  54.500  1.00  0.00     0.179 C 
HETATM    6  S   UNL     1       7.423  28.478  55.189  1.00  0.00    -0.040 SA
BRANCH   5   7
HETATM    7  N   UNL     1       5.544  27.345  53.782  1.00  0.00    -0.332 N 
HETATM    8  H   UNL     1       4.751  27.620  54.352  1.00  0.00     0.168 HD
BRANCH   7   9
HETATM    9  C   UNL     1       5.354  27.512  52.392  1.00  0.00     0.051 A 
HETATM   10  C   UNL     1       5.580  28.776  51.841  1.00  0.00     0.145 A 
HETATM   11  N   UNL     1       5.526  29.068  50.518  1.00  0.00    -0.271 NA
HETATM   12  C   UNL     1       5.221  28.047  49.694  1.00  0.00     0.116 A 
HETATM   13  C   UNL     1       4.980  26.755  50.133  1.00  0.00     0.021 A 
HETATM   14  C   UNL     1       5.056  26.486  51.500  1.00  0.00     0.032 A 
ENDBRANCH   7   9
ENDBRANCH   5   7
ENDBRANCH   2   5
BRANCH   1  15
HETATM   15  C   UNL     1       7.917  23.698  54.129  1.00  0.00     0.033 A 
HETATM   16  C   UNL     1       7.974  23.389  55.491  1.00  0.00     0.023 A 
HETATM   17  C   UNL     1       8.182  22.068  55.900  1.00  0.00    -0.061 A 
HETATM   18  C   UNL     1       8.287  21.717  57.356  1.00  0.00     0.048 C 
HETATM   19  C   UNL     1       8.288  21.059  54.930  1.00  0.00     0.013 A 
HETATM   20  C   UNL     1       8.193  21.357  53.563  1.00  0.00    -0.061 A 
HETATM   21  C   UNL     1       8.021  22.688  53.165  1.00  0.00     0.023 A 
HETATM   22  C   UNL     1       8.322  20.260  52.547  1.00  0.00     0.048 C 
ENDBRANCH   1  15
TORSDOF 4
ENDMDL
MODEL 10
REMARK VINA RESULT:      -7.5      4.143      4.972
REMARK  4 active torsions:
REMARK  status: ('A' for Active; 'I' for Inactive)
REMARK    1  A    between atoms: C_4  and  C_5 
REMARK       I    between atoms: C_5  and  N_6 
REMARK    2  A    between atoms: N_6  and  C_7 
REMARK    3  A    between atoms: C_7  and  N_8 
REMARK    4  A    between atoms: N_8  and  C_9 
ROOT
HETATM    1  C   UNL     1       6.923  25.004  53.650  1.00  0.00     0.257 C 
HETATM    2  N   UNL     1       5.551  24.995  53.422  1.00  0.00    -0.299 N 
HETATM    3  O   UNL     1       7.694  25.933  53.460  1.00  0.00    -0.267 OA
HETATM    4  H   UNL     1       5.172  24.064  53.307  1.00  0.00     0.171 HD
ENDROOT
BRANCH   2   5
HETATM    5  C   UNL     1       4.874  25.902  52.672  1.00  0.00     0.179 C 
HETATM    6  S   UNL     1       5.288  26.055  51.058  1.00  0.00    -0.040 SA
BRANCH   5   7
HETATM    7  N   UNL     1       3.899  26.693  53.170  1.00  0.00    -0.332 N 
HETATM    8  H   UNL     1       3.066  26.177  53.436  1.00  0.00     0.168 HD
BRANCH   7   9
HETATM    9  C   UNL     1       3.941  28.024  53.640  1.00  0.00     0.051 A 
HETATM   10  C   UNL     1       4.570  28.274  54.862  1.00  0.00     0.145 A 
HETATM   11  N   UNL     1       4.767  29.504  55.397  1.00  0.00    -0.271 NA
HETATM   12  C   UNL     1       4.304  30.547  54.681  1.00  0.00     0.116 A 
HETATM   13  C   UNL     1       3.666  30.414  53.459  1.00  0.00     0.021 A 
HETATM   14  C   UNL     1       3.490  29.134  52.930  1.00  0.00     0.032 A 
ENDBRANCH   7   9
ENDBRANCH   5   7
ENDBRANCH   2   5
BRANCH   1  15
HETATM   15  C   UNL     1       7.453  23.698  54.123  1.00  0.00     0.033 A 
HETATM   16  C   UNL     1       7.728  22.706  53.177  1.00  0.00     0.023 A 
HETATM   17  C   UNL     1       8.144  21.437  53.596  1.00  0.00    -0.061 A 
HETATM   18  C   UNL     1       8.407  20.344  52.602  1.00  0.00     0.048 C 
HETATM   19  C   UNL     1       8.320  21.193  54.967  1.00  0.00     0.013 A 
HETATM   20  C   UNL     1       8.083  22.195  55.918  1.00  0.00    -0.061 A 
HETATM   21  C   UNL     1       7.633  23.450  55.489  1.00  0.00     0.023 A 
HETATM   22  C   UNL     1       8.269  21.901  57.377  1.00  0.00     0.048 C 
ENDBRANCH   1  15
TORSDOF 4
ENDMDL
