MODEL 1
REMARK VINA RESULT:      -8.5      0.000      0.000
REMARK  6 active torsions:
REMARK  status: ('A' for Active; 'I' for Inactive)
REMARK    1  A    between atoms: C_5  and  N_6 
REMARK    2  A    between atoms: N_6  and  C_7 
REMARK    3  A    between atoms: C_7  and  C_8 
REMARK    4  A    between atoms: N_10  and  C_12 
REMARK    5  A    between atoms: C_12  and  C_13 
REMARK    6  A    between atoms: C_14  and  O_15 
ROOT
HETATM    1  C   UNL     1       6.914  27.720  56.862  1.00  0.00     0.031 C 
HETATM    2  C   UNL     1       7.458  26.945  55.671  1.00  0.00     0.241 C 
HETATM    3  N   UNL     1       6.228  26.675  54.836  1.00  0.00    -0.067 N 
HETATM    4  H   UNL     1       6.492  26.746  53.835  1.00  0.00     0.280 HD
HETATM    5  C   UNL     1       5.206  27.739  55.166  1.00  0.00     0.235 C 
HETATM    6  C   UNL     1       5.896  28.635  56.190  1.00  0.00     0.035 C 
ENDROOT
BRANCH   1   7
HETATM    7  C   UNL     1       7.980  28.474  57.665  1.00  0.00     0.127 C 
BRANCH   7   8
HETATM    8  N   UNL     1       7.356  29.516  58.471  1.00  0.00    -0.376 N 
HETATM    9  H   UNL     1       6.647  30.061  57.969  1.00  0.00     0.161 HD
BRANCH   8  10
HETATM   10  C   UNL     1       8.098  30.385  59.276  1.00  0.00     0.101 A 
HETATM   11  N   UNL     1       7.803  30.626  60.565  1.00  0.00    -0.347 N 
HETATM   12  C   UNL     1       8.513  31.461  61.352  1.00  0.00     0.007 A 
HETATM   13  H   UNL     1       7.018  30.139  60.981  1.00  0.00     0.167 HD
HETATM   14  C   UNL     1       8.125  31.612  62.788  1.00  0.00     0.068 C 
HETATM   15  C   UNL     1       9.597  32.150  60.812  1.00  0.00     0.025 A 
HETATM   16  C   UNL     1       9.928  31.960  59.478  1.00  0.00     0.006 A 
HETATM   17  C   UNL     1       9.179  31.075  58.711  1.00  0.00     0.048 A 
ENDBRANCH   8  10
ENDBRANCH   7   8
ENDBRANCH   1   7
BRANCH   3  18
HETATM   18  C   UNL     1       5.676  25.270  54.940  1.00  0.00     0.276 C 
BRANCH  18  19
HETATM   19  C   UNL     1       6.646  24.211  54.497  1.00  0.00     0.002 A 
HETATM   20  C   UNL     1       7.093  24.144  53.172  1.00  0.00     0.073 A 
HETATM   21  C   UNL     1       7.973  23.149  52.751  1.00  0.00     0.038 A 
HETATM   22  C   UNL     1       8.425  22.200  53.669  1.00  0.00     0.022 A 
HETATM   23  C   UNL     1       7.988  22.251  54.991  1.00  0.00     0.011 A 
HETATM   24 BR   UNL     1       8.613  20.978  56.239  1.00  0.00    -0.051 Br
HETATM   25  C   UNL     1       7.098  23.242  55.407  1.00  0.00     0.030 A 
BRANCH  20  26
HETATM   26  O   UNL     1       6.660  25.103  52.295  1.00  0.00    -0.360 OA
HETATM   27  H   UNL     1       7.432  25.386  51.761  1.00  0.00     0.217 HD
ENDBRANCH  20  26
ENDBRANCH  18  19
ENDBRANCH   3  18
TORSDOF 6
ENDMDL
MODEL 2
REMARK VINA RESULT:      -8.4      3.357      8.615
REMARK  6 active torsions:
REMARK  status: ('A' for Active; 'I' for Inactive)
REMARK    1  A    between atoms: C_5  and  N_6 
REMARK    2  A    between atoms: N_6  and  C_7 
REMARK    3  A    between atoms: C_7  and  C_8 
REMARK    4  A    between atoms: N_10  and  C_12 
REMARK    5  A    between atoms: C_12  and  C_13 
REMARK    6  A    between atoms: C_14  and  O_15 
ROOT
HETATM    1  C   UNL     1       6.209  25.882  55.716  1.00  0.00     0.031 C 
HETATM    2  C   UNL     1       7.363  26.809  55.362  1.00  0.00     0.241 C 
HETATM    3  N   UNL     1       7.801  27.352  56.703  1.00  0.00    -0.067 N 
HETATM    4  H   UNL     1       8.834  27.445  56.695  1.00  0.00     0.280 HD
HETATM    5  C   UNL     1       7.392  26.352  57.760  1.00  0.00     0.235 C 
HETATM    6  C   UNL     1       6.734  25.215  56.984  1.00  0.00     0.035 C 
ENDROOT
BRANCH   1   7
HETATM    7  C   UNL     1       5.837  24.888  54.610  1.00  0.00     0.127 C 
BRANCH   7   8
HETATM    8  N   UNL     1       7.042  24.402  53.949  1.00  0.00    -0.376 N 
HETATM    9  H   UNL     1       7.147  24.727  52.983  1.00  0.00     0.161 HD
BRANCH   8  10
HETATM   10  C   UNL     1       7.443  23.063  54.013  1.00  0.00     0.101 A 
HETATM   11  N   UNL     1       7.590  22.394  55.170  1.00  0.00    -0.347 N 
HETATM   12  C   UNL     1       7.973  21.103  55.243  1.00  0.00     0.007 A 
HETATM   13  H   UNL     1       7.380  22.874  56.036  1.00  0.00     0.167 HD
HETATM   14  C   UNL     1       8.052  20.443  56.582  1.00  0.00     0.068 C 
HETATM   15  C   UNL     1       8.273  20.412  54.070  1.00  0.00     0.025 A 
HETATM   16  C   UNL     1       8.165  21.064  52.851  1.00  0.00     0.006 A 
HETATM   17  C   UNL     1       7.748  22.390  52.822  1.00  0.00     0.048 A 
ENDBRANCH   8  10
ENDBRANCH   7   8
ENDBRANCH   1   7
BRANCH   3  18
HETATM   18  C   UNL     1       7.338  28.760  57.008  1.00  0.00     0.276 C 
BRANCH  18  19
HETATM   19  C   UNL     1       8.421  29.637  57.572  1.00  0.00     0.002 A 
HETATM   20  C   UNL     1       9.570  29.940  56.830  1.00  0.00     0.073 A 
HETATM   21  C   UNL     1      10.587  30.734  57.357  1.00  0.00     0.038 A 
HETATM   22  C   UNL     1      10.460  31.243  58.650  1.00  0.00     0.022 A 
HETATM   23  C   UNL     1       9.325  30.948  59.403  1.00  0.00     0.011 A 
HETATM   24 BR   UNL     1       9.143  31.650  61.147  1.00  0.00    -0.051 Br
HETATM   25  C   UNL     1       8.312  30.145  58.876  1.00  0.00     0.030 A 
BRANCH  20  26
HETATM   26  O   UNL     1       9.660  29.455  55.552  1.00  0.00    -0.360 OA
HETATM   27  H   UNL     1       8.825  29.680  55.091  1.00  0.00     0.217 HD
ENDBRANCH  20  26
ENDBRANCH  18  19
ENDBRANCH   3  18
TORSDOF 6
ENDMDL
MODEL 3
REMARK VINA RESULT:      -8.2      4.402      8.146
REMARK  6 active torsions:
REMARK  status: ('A' for Active; 'I' for Inactive)
REMARK    1  A    between atoms: C_5  and  N_6 
REMARK    2  A    between atoms: N_6  and  C_7 
REMARK    3  A    between atoms: C_7  and  C_8 
REMARK    4  A    between atoms: N_10  and  C_12 
REMARK    5  A    between atoms: C_12  and  C_13 
REMARK    6  A    between atoms: C_14  and  O_15 
ROOT
HETATM    1  C   UNL     1       5.630  26.929  53.728  1.00  0.00     0.031 C 
HETATM    2  C   UNL     1       5.674  25.483  54.203  1.00  0.00     0.241 C 
HETATM    3  N   UNL     1       6.450  25.563  55.497  1.00  0.00    -0.067 N 
HETATM    4  H   UNL     1       6.040  24.884  56.165  1.00  0.00     0.280 HD
HETATM    5  C   UNL     1       6.293  26.964  56.042  1.00  0.00     0.235 C 
HETATM    6  C   UNL     1       5.388  27.671  55.039  1.00  0.00     0.035 C 
ENDROOT
BRANCH   1   7
HETATM    7  C   UNL     1       4.567  27.209  52.660  1.00  0.00     0.127 C 
BRANCH   7   8
HETATM    8  N   UNL     1       4.700  26.260  51.562  1.00  0.00    -0.376 N 
HETATM    9  H   UNL     1       5.499  25.625  51.655  1.00  0.00     0.161 HD
BRANCH   8  10
HETATM   10  C   UNL     1       4.592  26.646  50.221  1.00  0.00     0.101 A 
HETATM   11  N   UNL     1       3.895  25.947  49.309  1.00  0.00    -0.347 N 
HETATM   12  C   UNL     1       3.783  26.311  48.015  1.00  0.00     0.007 A 
HETATM   13  H   UNL     1       3.406  25.113  49.609  1.00  0.00     0.167 HD
HETATM   14  C   UNL     1       2.937  25.487  47.099  1.00  0.00     0.068 C 
HETATM   15  C   UNL     1       4.446  27.453  47.566  1.00  0.00     0.025 A 
HETATM   16  C   UNL     1       5.203  28.194  48.462  1.00  0.00     0.006 A 
HETATM   17  C   UNL     1       5.274  27.792  49.790  1.00  0.00     0.048 A 
ENDBRANCH   8  10
ENDBRANCH   7   8
ENDBRANCH   1   7
BRANCH   3  18
HETATM   18  C   UNL     1       7.894  25.120  55.410  1.00  0.00     0.276 C 
BRANCH  18  19
HETATM   19  C   UNL     1       8.070  23.630  55.502  1.00  0.00     0.002 A 
HETATM   20  C   UNL     1       8.241  22.994  56.738  1.00  0.00     0.073 A 
HETATM   21  C   UNL     1       8.428  21.615  56.826  1.00  0.00     0.038 A 
HETATM   22  C   UNL     1       8.441  20.849  55.660  1.00  0.00     0.022 A 
HETATM   23  C   UNL     1       8.275  21.466  54.422  1.00  0.00     0.011 A 
HETATM   24 BR   UNL     1       8.276  20.428  52.844  1.00  0.00    -0.051 Br
HETATM   25  C   UNL     1       8.099  22.848  54.336  1.00  0.00     0.030 A 
BRANCH  20  26
HETATM   26  O   UNL     1       8.194  23.761  57.871  1.00  0.00    -0.360 OA
HETATM   27  H   UNL     1       9.046  24.242  57.938  1.00  0.00     0.217 HD
ENDBRANCH  20  26
ENDBRANCH  18  19
ENDBRANCH   3  18
TORSDOF 6
ENDMDL
MODEL 4
REMARK VINA RESULT:      -8.1      1.750      2.239
REMARK  6 active torsions:
REMARK  status: ('A' for Active; 'I' for Inactive)
REMARK    1  A    between atoms: C_5  and  N_6 
REMARK    2  A    between atoms: N_6  and  C_7 
REMARK    3  A    between atoms: C_7  and  C_8 
REMARK    4  A    between atoms: N_10  and  C_12 
REMARK    5  A    between atoms: C_12  and  C_13 
REMARK    6  A    between atoms: C_14  and  O_15 
ROOT
HETATM    1  C   UNL     1       6.308  28.403  55.640  1.00  0.00     0.031 C 
HETATM    2  C   UNL     1       6.952  27.260  56.412  1.00  0.00     0.241 C 
HETATM    3  N   UNL     1       7.416  26.319  55.325  1.00  0.00    -0.067 N 
HETATM    4  H   UNL     1       8.321  25.905  55.617  1.00  0.00     0.280 HD
HETATM    5  C   UNL     1       7.615  27.132  54.067  1.00  0.00     0.235 C 
HETATM    6  C   UNL     1       7.277  28.563  54.473  1.00  0.00     0.035 C 
ENDROOT
BRANCH   1   7
HETATM    7  C   UNL     1       6.114  29.685  56.456  1.00  0.00     0.127 C 
BRANCH   7   8
HETATM    8  N   UNL     1       6.512  29.462  57.841  1.00  0.00    -0.376 N 
HETATM    9  H   UNL     1       5.724  29.345  58.486  1.00  0.00     0.161 HD
BRANCH   8  10
HETATM   10  C   UNL     1       7.494  30.233  58.471  1.00  0.00     0.101 A 
HETATM   11  N   UNL     1       7.251  30.989  59.555  1.00  0.00    -0.347 N 
HETATM   12  C   UNL     1       8.191  31.735  60.173  1.00  0.00     0.007 A 
HETATM   13  H   UNL     1       6.318  30.985  59.949  1.00  0.00     0.167 HD
HETATM   14  C   UNL     1       7.820  32.496  61.405  1.00  0.00     0.068 C 
HETATM   15  C   UNL     1       9.485  31.767  59.657  1.00  0.00     0.025 A 
HETATM   16  C   UNL     1       9.782  31.026  58.522  1.00  0.00     0.006 A 
HETATM   17  C   UNL     1       8.787  30.257  57.930  1.00  0.00     0.048 A 
ENDBRANCH   8  10
ENDBRANCH   7   8
ENDBRANCH   1   7
BRANCH   3  18
HETATM   18  C   UNL     1       6.543  25.102  55.112  1.00  0.00     0.276 C 
BRANCH  18  19
HETATM   19  C   UNL     1       7.273  23.801  55.294  1.00  0.00     0.002 A 
HETATM   20  C   UNL     1       7.811  23.437  56.535  1.00  0.00     0.073 A 
HETATM   21  C   UNL     1       8.510  22.243  56.701  1.00  0.00     0.038 A 
HETATM   22  C   UNL     1       8.676  21.387  55.612  1.00  0.00     0.022 A 
HETATM   23  C   UNL     1       8.149  21.735  54.370  1.00  0.00     0.011 A 
HETATM   24 BR   UNL     1       8.356  20.569  52.899  1.00  0.00    -0.051 Br
HETATM   25  C   UNL     1       7.458  22.937  54.203  1.00  0.00     0.030 A 
BRANCH  20  26
HETATM   26  O   UNL     1       7.611  24.278  57.597  1.00  0.00    -0.360 OA
HETATM   27  H   UNL     1       8.486  24.631  57.863  1.00  0.00     0.217 HD
ENDBRANCH  20  26
ENDBRANCH  18  19
ENDBRANCH   3  18
TORSDOF 6
ENDMDL
MODEL 5
REMARK VINA RESULT:      -7.9      3.683      9.029
REMARK  6 active torsions:
REMARK  status: ('A' for Active; 'I' for Inactive)
REMARK    1  A    between atoms: C_5  and  N_6 
REMARK    2  A    between atoms: N_6  and  C_7 
REMARK    3  A    between atoms: C_7  and  C_8 
REMARK    4  A    between atoms: N_10  and  C_12 
REMARK    5  A    between atoms: C_12  and  C_13 
REMARK    6  A    between atoms: C_14  and  O_15 
ROOT
HETATM    1  C   UNL     1       8.123  27.120  56.828  1.00  0.00     0.031 C 
HETATM    2  C   UNL     1       7.274  27.876  57.841  1.00  0.00     0.241 C 
HETATM    3  N   UNL     1       7.246  29.284  57.292  1.00  0.00    -0.067 N 
HETATM    4  H   UNL     1       6.306  29.684  57.471  1.00  0.00     0.280 HD
HETATM    5  C   UNL     1       7.486  29.202  55.802  1.00  0.00     0.235 C 
HETATM    6  C   UNL     1       7.625  27.711  55.513  1.00  0.00     0.035 C 
ENDROOT
BRANCH   1   7
HETATM    7  C   UNL     1       7.986  25.595  56.905  1.00  0.00     0.127 C 
BRANCH   7   8
HETATM    8  N   UNL     1       7.117  25.116  55.837  1.00  0.00    -0.376 N 
HETATM    9  H   UNL     1       6.119  25.133  56.074  1.00  0.00     0.161 HD
BRANCH   8  10
HETATM   10  C   UNL     1       7.385  23.944  55.122  1.00  0.00     0.101 A 
HETATM   11  N   UNL     1       7.575  22.751  55.711  1.00  0.00    -0.347 N 
HETATM   12  C   UNL     1       7.832  21.615  55.031  1.00  0.00     0.007 A 
HETATM   13  H   UNL     1       7.499  22.691  56.719  1.00  0.00     0.167 HD
HETATM   14  C   UNL     1       7.972  20.332  55.787  1.00  0.00     0.068 C 
HETATM   15  C   UNL     1       7.947  21.660  53.643  1.00  0.00     0.025 A 
HETATM   16  C   UNL     1       7.789  22.873  52.987  1.00  0.00     0.006 A 
HETATM   17  C   UNL     1       7.505  24.015  53.727  1.00  0.00     0.048 A 
ENDBRANCH   8  10
ENDBRANCH   7   8
ENDBRANCH   1   7
BRANCH   3  18
HETATM   18  C   UNL     1       8.166  30.263  57.988  1.00  0.00     0.276 C 
BRANCH  18  19
HETATM   19  C   UNL     1       7.469  31.122  59.005  1.00  0.00     0.002 A 
HETATM   20  C   UNL     1       6.311  31.838  58.679  1.00  0.00     0.073 A 
HETATM   21  C   UNL     1       5.674  32.655  59.612  1.00  0.00     0.038 A 
HETATM   22  C   UNL     1       6.197  32.759  60.902  1.00  0.00     0.022 A 
HETATM   23  C   UNL     1       7.350  32.055  61.242  1.00  0.00     0.011 A 
HETATM   24 BR   UNL     1       8.048  32.181  62.992  1.00  0.00    -0.051 Br
HETATM   25  C   UNL     1       7.991  31.246  60.302  1.00  0.00     0.030 A 
BRANCH  20  26
HETATM   26  O   UNL     1       5.799  31.698  57.416  1.00  0.00    -0.360 OA
HETATM   27  H   UNL     1       4.883  31.359  57.505  1.00  0.00     0.217 HD
ENDBRANCH  20  26
ENDBRANCH  18  19
ENDBRANCH   3  18
TORSDOF 6
ENDMDL
MODEL 6
REMARK VINA RESULT:      -7.9      3.378      8.134
REMARK  6 active torsions:
REMARK  status: ('A' for Active; 'I' for Inactive)
REMARK    1  A    between atoms: C_5  and  N_6 
REMARK    2  A    between atoms: N_6  and  C_7 
REMARK    3  A    between atoms: C_7  and  C_8 
REMARK    4  A    between atoms: N_10  and  C_12 
REMARK    5  A    between atoms: C_12  and  C_13 
REMARK    6  A    between atoms: C_14  and  O_15 
ROOT
HETATM    1  C   UNL     1       6.871  26.087  56.057  1.00  0.00     0.031 C 
HETATM    2  C   UNL     1       6.221  27.088  57.001  1.00  0.00     0.241 C 
HETATM    3  N   UNL     1       5.434  27.985  56.074  1.00  0.00    -0.067 N 
HETATM    4  H   UNL     1       4.547  28.243  56.546  1.00  0.00     0.280 HD
HETATM    5  C   UNL     1       5.128  27.196  54.821  1.00  0.00     0.235 C 
HETATM    6  C   UNL     1       5.739  25.821  55.070  1.00  0.00     0.035 C 
ENDROOT
BRANCH   1   7
HETATM    7  C   UNL     1       7.396  24.821  56.743  1.00  0.00     0.127 C 
BRANCH   7   8
HETATM    8  N   UNL     1       8.400  24.177  55.906  1.00  0.00    -0.376 N 
HETATM    9  H   UNL     1       8.578  24.665  55.021  1.00  0.00     0.161 HD
BRANCH   8  10
HETATM   10  C   UNL     1       8.401  22.800  55.662  1.00  0.00     0.101 A 
HETATM   11  N   UNL     1       8.360  22.271  54.428  1.00  0.00    -0.347 N 
HETATM   12  C   UNL     1       8.363  20.945  54.181  1.00  0.00     0.007 A 
HETATM   13  H   UNL     1       8.350  22.899  53.633  1.00  0.00     0.167 HD
HETATM   14  C   UNL     1       8.370  20.469  52.764  1.00  0.00     0.068 C 
HETATM   15  C   UNL     1       8.373  20.052  55.251  1.00  0.00     0.025 A 
HETATM   16  C   UNL     1       8.386  20.545  56.548  1.00  0.00     0.006 A 
HETATM   17  C   UNL     1       8.402  21.920  56.754  1.00  0.00     0.048 A 
ENDBRANCH   8  10
ENDBRANCH   7   8
ENDBRANCH   1   7
BRANCH   3  18
HETATM   18  C   UNL     1       6.067  29.329  55.789  1.00  0.00     0.276 C 
BRANCH  18  19
HETATM   19  C   UNL     1       7.394  29.522  56.469  1.00  0.00     0.002 A 
HETATM   20  C   UNL     1       8.596  29.245  55.806  1.00  0.00     0.073 A 
HETATM   21  C   UNL     1       9.828  29.400  56.440  1.00  0.00     0.038 A 
HETATM   22  C   UNL     1       9.868  29.845  57.762  1.00  0.00     0.022 A 
HETATM   23  C   UNL     1       8.681  30.122  58.436  1.00  0.00     0.011 A 
HETATM   24 BR   UNL     1       8.733  30.741  60.220  1.00  0.00    -0.051 Br
HETATM   25  C   UNL     1       7.448  29.956  57.803  1.00  0.00     0.030 A 
BRANCH  20  26
HETATM   26  O   UNL     1       8.535  28.839  54.500  1.00  0.00    -0.360 OA
HETATM   27  H   UNL     1       9.156  28.088  54.394  1.00  0.00     0.217 HD
ENDBRANCH  20  26
ENDBRANCH  18  19
ENDBRANCH   3  18
TORSDOF 6
ENDMDL
MODEL 7
REMARK VINA RESULT:      -7.9      4.320      7.965
REMARK  6 active torsions:
REMARK  status: ('A' for Active; 'I' for Inactive)
REMARK    1  A    between atoms: C_5  and  N_6 
REMARK    2  A    between atoms: N_6  and  C_7 
REMARK    3  A    between atoms: C_7  and  C_8 
REMARK    4  A    between atoms: N_10  and  C_12 
REMARK    5  A    between atoms: C_12  and  C_13 
REMARK    6  A    between atoms: C_14  and  O_15 
ROOT
HETATM    1  C   UNL     1       4.768  27.840  53.498  1.00  0.00     0.031 C 
HETATM    2  C   UNL     1       4.974  26.333  53.551  1.00  0.00     0.241 C 
HETATM    3  N   UNL     1       5.847  26.141  54.769  1.00  0.00    -0.067 N 
HETATM    4  H   UNL     1       5.553  25.268  55.246  1.00  0.00     0.280 HD
HETATM    5  C   UNL     1       5.620  27.319  55.688  1.00  0.00     0.235 C 
HETATM    6  C   UNL     1       4.577  28.173  54.974  1.00  0.00     0.035 C 
ENDROOT
BRANCH   1   7
HETATM    7  C   UNL     1       3.599  28.286  52.612  1.00  0.00     0.127 C 
BRANCH   7   8
HETATM    8  N   UNL     1       4.094  28.722  51.312  1.00  0.00    -0.376 N 
HETATM    9  H   UNL     1       3.948  29.720  51.125  1.00  0.00     0.161 HD
BRANCH   8  10
HETATM   10  C   UNL     1       3.841  28.007  50.137  1.00  0.00     0.101 A 
HETATM   11  N   UNL     1       2.627  27.940  49.564  1.00  0.00    -0.347 N 
HETATM   12  C   UNL     1       2.373  27.256  48.429  1.00  0.00     0.007 A 
HETATM   13  H   UNL     1       1.862  28.448  49.990  1.00  0.00     0.167 HD
HETATM   14  C   UNL     1       0.995  27.295  47.851  1.00  0.00     0.068 C 
HETATM   15  C   UNL     1       3.402  26.541  47.817  1.00  0.00     0.025 A 
HETATM   16  C   UNL     1       4.668  26.554  48.384  1.00  0.00     0.006 A 
HETATM   17  C   UNL     1       4.888  27.289  49.543  1.00  0.00     0.048 A 
ENDBRANCH   8  10
ENDBRANCH   7   8
ENDBRANCH   1   7
BRANCH   3  18
HETATM   18  C   UNL     1       7.310  25.890  54.477  1.00  0.00     0.276 C 
BRANCH  18  19
HETATM   19  C   UNL     1       7.633  24.441  54.236  1.00  0.00     0.002 A 
HETATM   20  C   UNL     1       7.806  23.943  52.938  1.00  0.00     0.073 A 
HETATM   21  C   UNL     1       8.082  22.596  52.708  1.00  0.00     0.038 A 
HETATM   22  C   UNL     1       8.193  21.724  53.792  1.00  0.00     0.022 A 
HETATM   23  C   UNL     1       8.020  22.203  55.088  1.00  0.00     0.011 A 
HETATM   24 BR   UNL     1       8.187  21.027  56.557  1.00  0.00    -0.051 Br
HETATM   25  C   UNL     1       7.733  23.550  55.316  1.00  0.00     0.030 A 
BRANCH  20  26
HETATM   26  O   UNL     1       7.723  24.823  51.892  1.00  0.00    -0.360 OA
HETATM   27  H   UNL     1       7.482  24.310  51.092  1.00  0.00     0.217 HD
ENDBRANCH  20  26
ENDBRANCH  18  19
ENDBRANCH   3  18
TORSDOF 6
ENDMDL
MODEL 8
REMARK VINA RESULT:      -7.8      6.288      8.798
REMARK  6 active torsions:
REMARK  status: ('A' for Active; 'I' for Inactive)
REMARK    1  A    between atoms: C_5  and  N_6 
REMARK    2  A    between atoms: N_6  and  C_7 
REMARK    3  A    between atoms: C_7  and  C_8 
REMARK    4  A    between atoms: N_10  and  C_12 
REMARK    5  A    between atoms: C_12  and  C_13 
REMARK    6  A    between atoms: C_14  and  O_15 
ROOT
HETATM    1  C   UNL     1       5.889  25.763  53.193  1.00  0.00     0.031 C 
HETATM    2  C   UNL     1       6.549  26.293  51.928  1.00  0.00     0.241 C 
HETATM    3  N   UNL     1       5.425  27.014  51.221  1.00  0.00    -0.067 N 
HETATM    4  H   UNL     1       5.815  27.861  50.767  1.00  0.00     0.280 HD
HETATM    5  C   UNL     1       4.412  27.422  52.267  1.00  0.00     0.235 C 
HETATM    6  C   UNL     1       5.001  26.938  53.588  1.00  0.00     0.035 C 
ENDROOT
BRANCH   1   7
HETATM    7  C   UNL     1       6.875  25.344  54.290  1.00  0.00     0.127 C 
BRANCH   7   8
HETATM    8  N   UNL     1       7.929  24.511  53.723  1.00  0.00    -0.376 N 
HETATM    9  H   UNL     1       8.100  24.677  52.726  1.00  0.00     0.161 HD
BRANCH   8  10
HETATM   10  C   UNL     1       8.007  23.135  53.965  1.00  0.00     0.101 A 
HETATM   11  N   UNL     1       8.216  22.614  55.186  1.00  0.00    -0.347 N 
HETATM   12  C   UNL     1       8.291  21.289  55.430  1.00  0.00     0.007 A 
HETATM   13  H   UNL     1       8.299  23.245  55.974  1.00  0.00     0.167 HD
HETATM   14  C   UNL     1       8.472  20.819  56.838  1.00  0.00     0.068 C 
HETATM   15  C   UNL     1       8.183  20.392  54.369  1.00  0.00     0.025 A 
HETATM   16  C   UNL     1       7.996  20.879  53.084  1.00  0.00     0.006 A 
HETATM   17  C   UNL     1       7.905  22.251  52.882  1.00  0.00     0.048 A 
ENDBRANCH   8  10
ENDBRANCH   7   8
ENDBRANCH   1   7
BRANCH   3  18
HETATM   18  C   UNL     1       4.809  26.263  50.061  1.00  0.00     0.276 C 
BRANCH  18  19
HETATM   19  C   UNL     1       4.222  27.163  49.009  1.00  0.00     0.002 A 
HETATM   20  C   UNL     1       4.947  28.244  48.492  1.00  0.00     0.073 A 
HETATM   21  C   UNL     1       4.398  29.095  47.535  1.00  0.00     0.038 A 
HETATM   22  C   UNL     1       3.100  28.865  47.075  1.00  0.00     0.022 A 
HETATM   23  C   UNL     1       2.365  27.795  47.581  1.00  0.00     0.011 A 
HETATM   24 BR   UNL     1       0.615  27.472  46.948  1.00  0.00    -0.051 Br
HETATM   25  C   UNL     1       2.913  26.951  48.548  1.00  0.00     0.030 A 
BRANCH  20  26
HETATM   26  O   UNL     1       6.229  28.433  48.935  1.00  0.00    -0.360 OA
HETATM   27  H   UNL     1       6.528  27.594  49.343  1.00  0.00     0.217 HD
ENDBRANCH  20  26
ENDBRANCH  18  19
ENDBRANCH   3  18
TORSDOF 6
ENDMDL
MODEL 9
REMARK VINA RESULT:      -7.8      4.143      9.272
REMARK  6 active torsions:
REMARK  status: ('A' for Active; 'I' for Inactive)
REMARK    1  A    between atoms: C_5  and  N_6 
REMARK    2  A    between atoms: N_6  and  C_7 
REMARK    3  A    between atoms: C_7  and  C_8 
REMARK    4  A    between atoms: N_10  and  C_12 
REMARK    5  A    between atoms: C_12  and  C_13 
REMARK    6  A    between atoms: C_14  and  O_15 
ROOT
HETATM    1  C   UNL     1       7.273  29.162  56.516  1.00  0.00     0.031 C 
HETATM    2  C   UNL     1       7.643  29.046  57.988  1.00  0.00     0.241 C 
HETATM    3  N   UNL     1       6.897  30.193  58.629  1.00  0.00    -0.067 N 
HETATM    4  H   UNL     1       6.561  29.883  59.559  1.00  0.00     0.280 HD
HETATM    5  C   UNL     1       5.714  30.522  57.747  1.00  0.00     0.235 C 
HETATM    6  C   UNL     1       5.792  29.517  56.603  1.00  0.00     0.035 C 
ENDROOT
BRANCH   1   7
HETATM    7  C   UNL     1       7.553  27.899  55.694  1.00  0.00     0.127 C 
BRANCH   7   8
HETATM    8  N   UNL     1       7.562  26.729  56.563  1.00  0.00    -0.376 N 
HETATM    9  H   UNL     1       8.100  26.855  57.426  1.00  0.00     0.161 HD
BRANCH   8  10
HETATM   10  C   UNL     1       7.795  25.438  56.078  1.00  0.00     0.101 A 
HETATM   11  N   UNL     1       7.693  25.111  54.778  1.00  0.00    -0.347 N 
HETATM   12  C   UNL     1       7.917  23.870  54.299  1.00  0.00     0.007 A 
HETATM   13  H   UNL     1       7.456  25.838  54.114  1.00  0.00     0.167 HD
HETATM   14  C   UNL     1       7.827  23.633  52.826  1.00  0.00     0.068 C 
HETATM   15  C   UNL     1       8.242  22.844  55.185  1.00  0.00     0.025 A 
HETATM   16  C   UNL     1       8.332  23.122  56.542  1.00  0.00     0.006 A 
HETATM   17  C   UNL     1       8.111  24.420  56.988  1.00  0.00     0.048 A 
ENDBRANCH   8  10
ENDBRANCH   7   8
ENDBRANCH   1   7
BRANCH   3  18
HETATM   18  C   UNL     1       7.743  31.403  58.962  1.00  0.00     0.276 C 
BRANCH  18  19
HETATM   19  C   UNL     1       7.659  31.812  60.406  1.00  0.00     0.002 A 
HETATM   20  C   UNL     1       8.286  31.063  61.410  1.00  0.00     0.073 A 
HETATM   21  C   UNL     1       8.191  31.426  62.753  1.00  0.00     0.038 A 
HETATM   22  C   UNL     1       7.462  32.561  63.108  1.00  0.00     0.022 A 
HETATM   23  C   UNL     1       6.831  33.315  62.121  1.00  0.00     0.011 A 
HETATM   24 BR   UNL     1       5.858  34.863  62.597  1.00  0.00    -0.051 Br
HETATM   25  C   UNL     1       6.918  32.945  60.778  1.00  0.00     0.030 A 
BRANCH  20  26
HETATM   26  O   UNL     1       9.021  29.970  61.037  1.00  0.00    -0.360 OA
HETATM   27  H   UNL     1       8.445  29.400  60.485  1.00  0.00     0.217 HD
ENDBRANCH  20  26
ENDBRANCH  18  19
ENDBRANCH   3  18
TORSDOF 6
ENDMDL
MODEL 10
REMARK VINA RESULT:      -7.5      6.400      9.003
REMARK  6 active torsions:
REMARK  status: ('A' for Active; 'I' for Inactive)
REMARK    1  A    between atoms: C_5  and  N_6 
REMARK    2  A    between atoms: N_6  and  C_7 
REMARK    3  A    between atoms: C_7  and  C_8 
REMARK    4  A    between atoms: N_10  and  C_12 
REMARK    5  A    between atoms: C_12  and  C_13 
REMARK    6  A    between atoms: C_14  and  O_15 
ROOT
HETATM    1  C   UNL     1       6.461  26.420  52.873  1.00  0.00     0.031 C 
HETATM    2  C   UNL     1       5.062  26.884  53.253  1.00  0.00     0.241 C 
HETATM    3  N   UNL     1       4.456  27.289  51.929  1.00  0.00    -0.067 N 
HETATM    4  H   UNL     1       3.453  27.023  51.935  1.00  0.00     0.280 HD
HETATM    5  C   UNL     1       5.175  26.526  50.841  1.00  0.00     0.235 C 
HETATM    6  C   UNL     1       6.187  25.658  51.580  1.00  0.00     0.035 C 
ENDROOT
BRANCH   1   7
HETATM    7  C   UNL     1       7.158  25.576  53.946  1.00  0.00     0.127 C 
BRANCH   7   8
HETATM    8  N   UNL     1       6.512  24.274  54.057  1.00  0.00    -0.376 N 
HETATM    9  H   UNL     1       5.728  24.253  54.717  1.00  0.00     0.161 HD
BRANCH   8  10
HETATM   10  C   UNL     1       7.238  23.086  54.191  1.00  0.00     0.101 A 
HETATM   11  N   UNL     1       7.516  22.525  55.380  1.00  0.00    -0.347 N 
HETATM   12  C   UNL     1       8.214  21.379  55.521  1.00  0.00     0.007 A 
HETATM   13  H   UNL     1       7.166  22.971  56.219  1.00  0.00     0.167 HD
HETATM   14  C   UNL     1       8.418  20.817  56.892  1.00  0.00     0.068 C 
HETATM   15  C   UNL     1       8.715  20.741  54.388  1.00  0.00     0.025 A 
HETATM   16  C   UNL     1       8.481  21.294  53.138  1.00  0.00     0.006 A 
HETATM   17  C   UNL     1       7.740  22.466  53.039  1.00  0.00     0.048 A 
ENDBRANCH   8  10
ENDBRANCH   7   8
ENDBRANCH   1   7
BRANCH   3  18
HETATM   18  C   UNL     1       4.407  28.780  51.675  1.00  0.00     0.276 C 
BRANCH  18  19
HETATM   19  C   UNL     1       3.594  29.155  50.467  1.00  0.00     0.002 A 
HETATM   20  C   UNL     1       2.211  28.936  50.426  1.00  0.00     0.073 A 
HETATM   21  C   UNL     1       1.457  29.260  49.299  1.00  0.00     0.038 A 
HETATM   22  C   UNL     1       2.090  29.819  48.188  1.00  0.00     0.022 A 
HETATM   23  C   UNL     1       3.465  30.041  48.212  1.00  0.00     0.011 A 
HETATM   24 BR   UNL     1       4.320  30.813  46.716  1.00  0.00    -0.051 Br
HETATM   25  C   UNL     1       4.219  29.705  49.338  1.00  0.00     0.030 A 
BRANCH  20  26
HETATM   26  O   UNL     1       1.606  28.414  51.539  1.00  0.00    -0.360 OA
HETATM   27  H   UNL     1       1.734  27.443  51.517  1.00  0.00     0.217 HD
ENDBRANCH  20  26
ENDBRANCH  18  19
ENDBRANCH   3  18
TORSDOF 6
ENDMDL
