MODEL 1
REMARK VINA RESULT:      -9.3      0.000      0.000
REMARK  2 active torsions:
REMARK  status: ('A' for Active; 'I' for Inactive)
REMARK    1  A    between atoms: N_20  and  C_21 
REMARK    2  A    between atoms: C_24  and  O_25 
ROOT
HETATM    1  C   UNL     1      10.557  29.329  56.774  1.00  0.00     0.048 C 
HETATM    2  C   UNL     1       9.365  29.981  57.419  1.00  0.00    -0.061 A 
HETATM    3  C   UNL     1       8.078  29.818  56.880  1.00  0.00     0.019 A 
HETATM    4  C   UNL     1       7.000  30.388  57.543  1.00  0.00     0.016 A 
HETATM    5  C   UNL     1       7.219  31.127  58.711  1.00  0.00     0.044 A 
HETATM    6  N   UNL     1       6.027  31.643  59.193  1.00  0.00    -0.324 N 
HETATM    7  C   UNL     1       4.965  31.273  58.392  1.00  0.00     0.264 A 
HETATM    8  O   UNL     1       3.799  31.606  58.533  1.00  0.00    -0.270 OA
HETATM    9  C   UNL     1       5.533  30.407  57.206  1.00  0.00     0.250 A 
HETATM   10  N   UNL     1       5.260  31.032  55.850  1.00  0.00    -0.043 N 
HETATM   11  H   UNL     1       5.875  30.559  55.172  1.00  0.00     0.282 HD
HETATM   12  C   UNL     1       3.816  30.717  55.552  1.00  0.00     0.204 C 
HETATM   13  C   UNL     1       3.708  31.282  54.156  1.00  0.00     0.036 C 
HETATM   14  C   UNL     1       4.496  32.608  54.278  1.00  0.00     0.030 C 
HETATM   15  C   UNL     1       5.385  32.485  55.530  1.00  0.00     0.237 C 
HETATM   16  C   UNL     1       3.674  29.280  56.000  1.00  0.00     0.126 C 
HETATM   17  C   UNL     1       4.690  29.106  57.137  1.00  0.00     0.145 C 
HETATM   18  C   UNL     1       5.475  27.901  56.719  1.00  0.00     0.239 C 
HETATM   19  O   UNL     1       6.242  27.357  57.497  1.00  0.00    -0.272 OA
HETATM   20  N   UNL     1       5.189  27.592  55.405  1.00  0.00    -0.252 N 
HETATM   21  C   UNL     1       4.106  28.309  54.950  1.00  0.00     0.238 C 
HETATM   22  O   UNL     1       3.552  28.296  53.862  1.00  0.00    -0.272 OA
HETATM   23  C   UNL     1       8.466  31.308  59.264  1.00  0.00     0.031 A 
HETATM   24  C   UNL     1       9.547  30.720  58.608  1.00  0.00     0.009 A 
HETATM   25  H   UNL     1       5.931  32.209  60.028  1.00  0.00     0.169 HD
ENDROOT
BRANCH  20  26
HETATM   26  C   UNL     1       5.931  26.659  54.605  1.00  0.00     0.045 A 
HETATM   27  C   UNL     1       5.570  25.306  54.526  1.00  0.00     0.033 A 
HETATM   28  C   UNL     1       6.356  24.378  53.823  1.00  0.00     0.039 A 
HETATM   29  C   UNL     1       7.522  24.772  53.174  1.00  0.00     0.068 A 
HETATM   30  C   UNL     1       7.880  26.111  53.209  1.00  0.00     0.039 A 
HETATM   31  C   UNL     1       7.093  27.038  53.912  1.00  0.00     0.033 A 
BRANCH  29  32
HETATM   32  O   UNL     1       8.208  23.768  52.555  1.00  0.00    -0.356 OA
HETATM   33  C   UNL     1       7.902  22.436  52.952  1.00  0.00     0.210 C 
ENDBRANCH  29  32
ENDBRANCH  20  26
TORSDOF 2
ENDMDL
MODEL 2
REMARK VINA RESULT:      -9.0      4.881      7.388
REMARK  2 active torsions:
REMARK  status: ('A' for Active; 'I' for Inactive)
REMARK    1  A    between atoms: N_20  and  C_21 
REMARK    2  A    between atoms: C_24  and  O_25 
ROOT
HETATM    1  C   UNL     1       7.598  33.440  64.790  1.00  0.00     0.048 C 
HETATM    2  C   UNL     1       6.168  33.814  64.513  1.00  0.00    -0.061 A 
HETATM    3  C   UNL     1       5.697  33.920  63.193  1.00  0.00     0.019 A 
HETATM    4  C   UNL     1       4.355  34.208  62.986  1.00  0.00     0.016 A 
HETATM    5  C   UNL     1       3.513  34.411  64.085  1.00  0.00     0.044 A 
HETATM    6  N   UNL     1       2.231  34.727  63.666  1.00  0.00    -0.324 N 
HETATM    7  C   UNL     1       2.147  34.741  62.288  1.00  0.00     0.264 A 
HETATM    8  O   UNL     1       1.163  35.024  61.624  1.00  0.00    -0.270 OA
HETATM    9  C   UNL     1       3.573  34.405  61.714  1.00  0.00     0.250 A 
HETATM   10  N   UNL     1       4.133  35.529  60.861  1.00  0.00    -0.043 N 
HETATM   11  H   UNL     1       5.142  35.349  60.751  1.00  0.00     0.282 HD
HETATM   12  C   UNL     1       3.433  35.404  59.532  1.00  0.00     0.204 C 
HETATM   13  C   UNL     1       4.149  36.484  58.756  1.00  0.00     0.036 C 
HETATM   14  C   UNL     1       4.243  37.625  59.796  1.00  0.00     0.030 C 
HETATM   15  C   UNL     1       4.038  36.984  61.182  1.00  0.00     0.237 C 
HETATM   16  C   UNL     1       3.425  33.913  59.282  1.00  0.00     0.126 C 
HETATM   17  C   UNL     1       3.399  33.267  60.674  1.00  0.00     0.145 C 
HETATM   18  C   UNL     1       4.548  32.308  60.633  1.00  0.00     0.239 C 
HETATM   19  O   UNL     1       4.695  31.475  61.513  1.00  0.00    -0.272 OA
HETATM   20  N   UNL     1       5.326  32.559  59.521  1.00  0.00    -0.252 N 
HETATM   21  C   UNL     1       4.696  33.430  58.662  1.00  0.00     0.238 C 
HETATM   22  O   UNL     1       5.056  33.872  57.581  1.00  0.00    -0.272 OA
HETATM   23  C   UNL     1       3.943  34.318  65.389  1.00  0.00     0.031 A 
HETATM   24  C   UNL     1       5.287  34.010  65.598  1.00  0.00     0.009 A 
HETATM   25  H   UNL     1       1.445  34.913  64.279  1.00  0.00     0.169 HD
ENDROOT
BRANCH  20  26
HETATM   26  C   UNL     1       6.629  32.003  59.293  1.00  0.00     0.045 A 
HETATM   27  C   UNL     1       7.759  32.466  59.983  1.00  0.00     0.033 A 
HETATM   28  C   UNL     1       9.045  31.989  59.685  1.00  0.00     0.039 A 
HETATM   29  C   UNL     1       9.244  31.032  58.694  1.00  0.00     0.068 A 
HETATM   30  C   UNL     1       8.138  30.534  58.023  1.00  0.00     0.039 A 
HETATM   31  C   UNL     1       6.851  31.012  58.322  1.00  0.00     0.033 A 
BRANCH  29  32
HETATM   32  O   UNL     1      10.545  30.677  58.484  1.00  0.00    -0.356 OA
HETATM   33  C   UNL     1      10.860  30.099  57.222  1.00  0.00     0.210 C 
ENDBRANCH  29  32
ENDBRANCH  20  26
TORSDOF 2
ENDMDL
MODEL 3
REMARK VINA RESULT:      -8.6      4.445      6.854
REMARK  2 active torsions:
REMARK  status: ('A' for Active; 'I' for Inactive)
REMARK    1  A    between atoms: N_20  and  C_21 
REMARK    2  A    between atoms: C_24  and  O_25 
ROOT
HETATM    1  C   UNL     1       8.896  31.952  62.089  1.00  0.00     0.048 C 
HETATM    2  C   UNL     1       7.851  32.764  62.804  1.00  0.00    -0.061 A 
HETATM    3  C   UNL     1       6.714  33.230  62.123  1.00  0.00     0.019 A 
HETATM    4  C   UNL     1       5.746  33.924  62.837  1.00  0.00     0.016 A 
HETATM    5  C   UNL     1       5.934  34.162  64.203  1.00  0.00     0.044 A 
HETATM    6  N   UNL     1       4.881  34.901  64.719  1.00  0.00    -0.324 N 
HETATM    7  C   UNL     1       3.945  35.180  63.743  1.00  0.00     0.264 A 
HETATM    8  O   UNL     1       2.932  35.846  63.880  1.00  0.00    -0.270 OA
HETATM    9  C   UNL     1       4.455  34.557  62.391  1.00  0.00     0.250 A 
HETATM   10  N   UNL     1       4.668  35.604  61.314  1.00  0.00    -0.043 N 
HETATM   11  H   UNL     1       5.238  35.166  60.576  1.00  0.00     0.282 HD
HETATM   12  C   UNL     1       3.291  35.921  60.792  1.00  0.00     0.204 C 
HETATM   13  C   UNL     1       3.647  36.870  59.671  1.00  0.00     0.036 C 
HETATM   14  C   UNL     1       4.755  37.734  60.316  1.00  0.00     0.030 C 
HETATM   15  C   UNL     1       5.290  36.945  61.527  1.00  0.00     0.237 C 
HETATM   16  C   UNL     1       2.632  34.563  60.701  1.00  0.00     0.126 C 
HETATM   17  C   UNL     1       3.292  33.718  61.800  1.00  0.00     0.145 C 
HETATM   18  C   UNL     1       3.745  32.492  61.067  1.00  0.00     0.239 C 
HETATM   19  O   UNL     1       4.135  31.510  61.679  1.00  0.00    -0.272 OA
HETATM   20  N   UNL     1       3.655  32.702  59.707  1.00  0.00    -0.252 N 
HETATM   21  C   UNL     1       2.956  33.854  59.427  1.00  0.00     0.238 C 
HETATM   22  O   UNL     1       2.660  34.356  58.353  1.00  0.00    -0.272 OA
HETATM   23  C   UNL     1       7.036  33.722  64.900  1.00  0.00     0.031 A 
HETATM   24  C   UNL     1       8.000  33.010  64.186  1.00  0.00     0.009 A 
HETATM   25  H   UNL     1       4.791  35.193  65.685  1.00  0.00     0.169 HD
ENDROOT
BRANCH  20  26
HETATM   26  C   UNL     1       4.229  31.844  58.708  1.00  0.00     0.045 A 
HETATM   27  C   UNL     1       3.440  30.964  57.952  1.00  0.00     0.033 A 
HETATM   28  C   UNL     1       4.016  30.058  57.048  1.00  0.00     0.039 A 
HETATM   29  C   UNL     1       5.395  30.004  56.867  1.00  0.00     0.068 A 
HETATM   30  C   UNL     1       6.192  30.889  57.578  1.00  0.00     0.039 A 
HETATM   31  C   UNL     1       5.614  31.796  58.481  1.00  0.00     0.033 A 
BRANCH  29  32
HETATM   32  O   UNL     1       5.827  29.059  55.983  1.00  0.00    -0.356 OA
HETATM   33  C   UNL     1       7.228  28.998  55.735  1.00  0.00     0.210 C 
ENDBRANCH  29  32
ENDBRANCH  20  26
TORSDOF 2
ENDMDL
MODEL 4
REMARK VINA RESULT:      -8.4      1.141      1.351
REMARK  2 active torsions:
REMARK  status: ('A' for Active; 'I' for Inactive)
REMARK    1  A    between atoms: N_20  and  C_21 
REMARK    2  A    between atoms: C_24  and  O_25 
ROOT
HETATM    1  C   UNL     1      10.034  30.220  57.764  1.00  0.00     0.048 C 
HETATM    2  C   UNL     1       8.771  30.773  58.365  1.00  0.00    -0.061 A 
HETATM    3  C   UNL     1       7.555  30.709  57.664  1.00  0.00     0.019 A 
HETATM    4  C   UNL     1       6.404  31.177  58.283  1.00  0.00     0.016 A 
HETATM    5  C   UNL     1       6.483  31.721  59.570  1.00  0.00     0.044 A 
HETATM    6  N   UNL     1       5.239  32.166  59.989  1.00  0.00    -0.324 N 
HETATM    7  C   UNL     1       4.278  31.936  59.024  1.00  0.00     0.264 A 
HETATM    8  O   UNL     1       3.101  32.253  59.083  1.00  0.00    -0.270 OA
HETATM    9  C   UNL     1       4.984  31.263  57.789  1.00  0.00     0.250 A 
HETATM   10  N   UNL     1       4.861  32.096  56.527  1.00  0.00    -0.043 N 
HETATM   11  H   UNL     1       5.553  31.731  55.857  1.00  0.00     0.282 HD
HETATM   12  C   UNL     1       3.464  31.846  56.022  1.00  0.00     0.204 C 
HETATM   13  C   UNL     1       3.509  32.625  54.728  1.00  0.00     0.036 C 
HETATM   14  C   UNL     1       4.266  33.907  55.146  1.00  0.00     0.030 C 
HETATM   15  C   UNL     1       5.009  33.580  56.456  1.00  0.00     0.237 C 
HETATM   16  C   UNL     1       3.284  30.357  56.218  1.00  0.00     0.126 C 
HETATM   17  C   UNL     1       4.166  29.997  57.421  1.00  0.00     0.145 C 
HETATM   18  C   UNL     1       5.004  28.866  56.909  1.00  0.00     0.239 C 
HETATM   19  O   UNL     1       5.683  28.199  57.674  1.00  0.00    -0.272 OA
HETATM   20  N   UNL     1       4.872  28.770  55.539  1.00  0.00    -0.252 N 
HETATM   21  C   UNL     1       3.841  29.560  55.084  1.00  0.00     0.238 C 
HETATM   22  O   UNL     1       3.413  29.724  53.951  1.00  0.00    -0.272 OA
HETATM   23  C   UNL     1       7.658  31.802  60.282  1.00  0.00     0.031 A 
HETATM   24  C   UNL     1       8.811  31.315  59.668  1.00  0.00     0.009 A 
HETATM   25  H   UNL     1       5.044  32.594  60.887  1.00  0.00     0.169 HD
ENDROOT
BRANCH  20  26
HETATM   26  C   UNL     1       5.708  27.968  54.691  1.00  0.00     0.045 A 
HETATM   27  C   UNL     1       5.256  26.759  54.142  1.00  0.00     0.033 A 
HETATM   28  C   UNL     1       6.109  25.930  53.396  1.00  0.00     0.039 A 
HETATM   29  C   UNL     1       7.436  26.284  53.171  1.00  0.00     0.068 A 
HETATM   30  C   UNL     1       7.895  27.491  53.675  1.00  0.00     0.039 A 
HETATM   31  C   UNL     1       7.041  28.320  54.420  1.00  0.00     0.033 A 
BRANCH  29  32
HETATM   32  O   UNL     1       8.164  25.376  52.458  1.00  0.00    -0.356 OA
HETATM   33  C   UNL     1       7.864  24.000  52.666  1.00  0.00     0.210 C 
ENDBRANCH  29  32
ENDBRANCH  20  26
TORSDOF 2
ENDMDL
MODEL 5
REMARK VINA RESULT:      -8.2      5.125      7.938
REMARK  2 active torsions:
REMARK  status: ('A' for Active; 'I' for Inactive)
REMARK    1  A    between atoms: N_20  and  C_21 
REMARK    2  A    between atoms: C_24  and  O_25 
ROOT
HETATM    1  C   UNL     1       8.574  31.963  61.646  1.00  0.00     0.048 C 
HETATM    2  C   UNL     1       7.770  32.849  62.558  1.00  0.00    -0.061 A 
HETATM    3  C   UNL     1       6.784  33.705  62.040  1.00  0.00     0.019 A 
HETATM    4  C   UNL     1       6.025  34.460  62.924  1.00  0.00     0.016 A 
HETATM    5  C   UNL     1       6.272  34.370  64.299  1.00  0.00     0.044 A 
HETATM    6  N   UNL     1       5.442  35.227  65.002  1.00  0.00    -0.324 N 
HETATM    7  C   UNL     1       4.602  35.916  64.149  1.00  0.00     0.264 A 
HETATM    8  O   UNL     1       3.789  36.769  64.465  1.00  0.00    -0.270 OA
HETATM    9  C   UNL     1       4.932  35.466  62.678  1.00  0.00     0.250 A 
HETATM   10  N   UNL     1       5.397  36.621  61.810  1.00  0.00    -0.043 N 
HETATM   11  H   UNL     1       5.834  36.211  60.972  1.00  0.00     0.282 HD
HETATM   12  C   UNL     1       4.141  37.363  61.432  1.00  0.00     0.204 C 
HETATM   13  C   UNL     1       4.719  38.397  60.495  1.00  0.00     0.036 C 
HETATM   14  C   UNL     1       6.013  38.818  61.232  1.00  0.00     0.030 C 
HETATM   15  C   UNL     1       6.337  37.699  62.240  1.00  0.00     0.237 C 
HETATM   16  C   UNL     1       3.161  36.254  61.121  1.00  0.00     0.126 C 
HETATM   17  C   UNL     1       3.593  35.073  62.001  1.00  0.00     0.145 C 
HETATM   18  C   UNL     1       3.720  33.943  61.026  1.00  0.00     0.239 C 
HETATM   19  O   UNL     1       3.853  32.795  61.418  1.00  0.00    -0.272 OA
HETATM   20  N   UNL     1       3.679  34.433  59.737  1.00  0.00    -0.252 N 
HETATM   21  C   UNL     1       3.291  35.753  59.719  1.00  0.00     0.238 C 
HETATM   22  O   UNL     1       3.126  36.515  58.779  1.00  0.00    -0.272 OA
HETATM   23  C   UNL     1       7.232  33.543  64.838  1.00  0.00     0.031 A 
HETATM   24  C   UNL     1       7.982  32.772  63.951  1.00  0.00     0.009 A 
HETATM   25  H   UNL     1       5.433  35.336  66.009  1.00  0.00     0.169 HD
ENDROOT
BRANCH  20  26
HETATM   26  C   UNL     1       4.014  33.676  58.563  1.00  0.00     0.045 A 
HETATM   27  C   UNL     1       3.121  33.550  57.489  1.00  0.00     0.033 A 
HETATM   28  C   UNL     1       3.412  32.728  56.388  1.00  0.00     0.039 A 
HETATM   29  C   UNL     1       4.603  32.012  56.323  1.00  0.00     0.068 A 
HETATM   30  C   UNL     1       5.516  32.148  57.358  1.00  0.00     0.039 A 
HETATM   31  C   UNL     1       5.225  32.971  58.458  1.00  0.00     0.033 A 
BRANCH  29  32
HETATM   32  O   UNL     1       4.748  31.228  55.215  1.00  0.00    -0.356 OA
HETATM   33  C   UNL     1       4.333  29.870  55.326  1.00  0.00     0.210 C 
ENDBRANCH  29  32
ENDBRANCH  20  26
TORSDOF 2
ENDMDL
MODEL 6
REMARK VINA RESULT:      -7.9      2.203      6.910
REMARK  2 active torsions:
REMARK  status: ('A' for Active; 'I' for Inactive)
REMARK    1  A    between atoms: N_20  and  C_21 
REMARK    2  A    between atoms: C_24  and  O_25 
ROOT
HETATM    1  C   UNL     1       5.402  28.919  51.665  1.00  0.00     0.048 C 
HETATM    2  C   UNL     1       6.029  28.094  52.753  1.00  0.00    -0.061 A 
HETATM    3  C   UNL     1       6.335  28.664  54.001  1.00  0.00     0.019 A 
HETATM    4  C   UNL     1       6.858  27.849  54.996  1.00  0.00     0.016 A 
HETATM    5  C   UNL     1       7.090  26.495  54.730  1.00  0.00     0.044 A 
HETATM    6  N   UNL     1       7.649  25.870  55.833  1.00  0.00    -0.324 N 
HETATM    7  C   UNL     1       7.807  26.756  56.879  1.00  0.00     0.264 A 
HETATM    8  O   UNL     1       8.310  26.514  57.965  1.00  0.00    -0.270 OA
HETATM    9  C   UNL     1       7.300  28.166  56.400  1.00  0.00     0.250 A 
HETATM   10  N   UNL     1       8.393  29.219  56.437  1.00  0.00    -0.043 N 
HETATM   11  H   UNL     1       8.062  30.016  55.873  1.00  0.00     0.282 HD
HETATM   12  C   UNL     1       8.511  29.616  57.885  1.00  0.00     0.204 C 
HETATM   13  C   UNL     1       9.528  30.727  57.770  1.00  0.00     0.036 C 
HETATM   14  C   UNL     1      10.535  30.143  56.751  1.00  0.00     0.030 C 
HETATM   15  C   UNL     1       9.807  29.008  56.005  1.00  0.00     0.237 C 
HETATM   16  C   UNL     1       7.072  29.702  58.341  1.00  0.00     0.126 C 
HETATM   17  C   UNL     1       6.310  28.692  57.472  1.00  0.00     0.145 C 
HETATM   18  C   UNL     1       5.184  29.502  56.907  1.00  0.00     0.239 C 
HETATM   19  O   UNL     1       4.258  28.960  56.324  1.00  0.00    -0.272 OA
HETATM   20  N   UNL     1       5.410  30.843  57.142  1.00  0.00    -0.252 N 
HETATM   21  C   UNL     1       6.450  31.024  58.025  1.00  0.00     0.238 C 
HETATM   22  O   UNL     1       6.927  32.051  58.483  1.00  0.00    -0.272 OA
HETATM   23  C   UNL     1       6.804  25.906  53.519  1.00  0.00     0.031 A 
HETATM   24  C   UNL     1       6.262  26.720  52.525  1.00  0.00     0.009 A 
HETATM   25  H   UNL     1       7.902  24.889  55.883  1.00  0.00     0.169 HD
ENDROOT
BRANCH  20  26
HETATM   26  C   UNL     1       4.672  31.915  56.535  1.00  0.00     0.045 A 
HETATM   27  C   UNL     1       4.880  32.288  55.199  1.00  0.00     0.033 A 
HETATM   28  C   UNL     1       4.230  33.399  54.640  1.00  0.00     0.039 A 
HETATM   29  C   UNL     1       3.349  34.169  55.393  1.00  0.00     0.068 A 
HETATM   30  C   UNL     1       3.101  33.798  56.706  1.00  0.00     0.039 A 
HETATM   31  C   UNL     1       3.752  32.686  57.265  1.00  0.00     0.033 A 
BRANCH  29  32
HETATM   32  O   UNL     1       2.808  35.238  54.739  1.00  0.00    -0.356 OA
HETATM   33  C   UNL     1       2.615  35.106  53.335  1.00  0.00     0.210 C 
ENDBRANCH  29  32
ENDBRANCH  20  26
TORSDOF 2
ENDMDL
MODEL 7
REMARK VINA RESULT:      -7.9      2.349      7.474
REMARK  2 active torsions:
REMARK  status: ('A' for Active; 'I' for Inactive)
REMARK    1  A    between atoms: N_20  and  C_21 
REMARK    2  A    between atoms: C_24  and  O_25 
ROOT
HETATM    1  C   UNL     1       3.478  30.680  52.868  1.00  0.00     0.048 C 
HETATM    2  C   UNL     1       4.207  29.520  53.487  1.00  0.00    -0.061 A 
HETATM    3  C   UNL     1       5.076  29.716  54.573  1.00  0.00     0.019 A 
HETATM    4  C   UNL     1       5.680  28.608  55.152  1.00  0.00     0.016 A 
HETATM    5  C   UNL     1       5.432  27.333  54.629  1.00  0.00     0.044 A 
HETATM    6  N   UNL     1       6.158  26.374  55.317  1.00  0.00    -0.324 N 
HETATM    7  C   UNL     1       6.908  26.946  56.325  1.00  0.00     0.264 A 
HETATM    8  O   UNL     1       7.679  26.367  57.073  1.00  0.00    -0.270 OA
HETATM    9  C   UNL     1       6.659  28.500  56.290  1.00  0.00     0.250 A 
HETATM   10  N   UNL     1       7.933  29.285  56.033  1.00  0.00    -0.043 N 
HETATM   11  H   UNL     1       7.649  30.239  55.766  1.00  0.00     0.282 HD
HETATM   12  C   UNL     1       8.659  29.306  57.353  1.00  0.00     0.204 C 
HETATM   13  C   UNL     1       9.826  30.196  56.996  1.00  0.00     0.036 C 
HETATM   14  C   UNL     1      10.210  29.682  55.588  1.00  0.00     0.030 C 
HETATM   15  C   UNL     1       8.990  28.913  55.046  1.00  0.00     0.237 C 
HETATM   16  C   UNL     1       7.554  29.558  58.354  1.00  0.00     0.126 C 
HETATM   17  C   UNL     1       6.293  28.943  57.731  1.00  0.00     0.145 C 
HETATM   18  C   UNL     1       5.300  30.063  57.783  1.00  0.00     0.239 C 
HETATM   19  O   UNL     1       4.119  29.858  57.551  1.00  0.00    -0.272 OA
HETATM   20  N   UNL     1       5.944  31.243  58.093  1.00  0.00    -0.252 N 
HETATM   21  C   UNL     1       7.237  31.011  58.501  1.00  0.00     0.238 C 
HETATM   22  O   UNL     1       8.101  31.793  58.868  1.00  0.00    -0.272 OA
HETATM   23  C   UNL     1       4.589  27.107  53.565  1.00  0.00     0.031 A 
HETATM   24  C   UNL     1       3.968  28.218  52.996  1.00  0.00     0.009 A 
HETATM   25  H   UNL     1       6.141  25.379  55.124  1.00  0.00     0.169 HD
ENDROOT
BRANCH  20  26
HETATM   26  C   UNL     1       5.353  32.548  57.988  1.00  0.00     0.045 A 
HETATM   27  C   UNL     1       4.950  33.267  59.123  1.00  0.00     0.033 A 
HETATM   28  C   UNL     1       4.283  34.497  59.012  1.00  0.00     0.039 A 
HETATM   29  C   UNL     1       4.003  35.050  57.766  1.00  0.00     0.068 A 
HETATM   30  C   UNL     1       4.423  34.374  56.630  1.00  0.00     0.039 A 
HETATM   31  C   UNL     1       5.091  33.144  56.743  1.00  0.00     0.033 A 
BRANCH  29  32
HETATM   32  O   UNL     1       3.324  36.234  57.797  1.00  0.00    -0.356 OA
HETATM   33  C   UNL     1       2.006  36.208  58.335  1.00  0.00     0.210 C 
ENDBRANCH  29  32
ENDBRANCH  20  26
TORSDOF 2
ENDMDL
MODEL 8
REMARK VINA RESULT:      -7.8      3.028      4.830
REMARK  2 active torsions:
REMARK  status: ('A' for Active; 'I' for Inactive)
REMARK    1  A    between atoms: N_20  and  C_21 
REMARK    2  A    between atoms: C_24  and  O_25 
ROOT
HETATM    1  C   UNL     1       5.593  30.113  56.903  1.00  0.00     0.048 C 
HETATM    2  C   UNL     1       4.637  30.751  55.933  1.00  0.00    -0.061 A 
HETATM    3  C   UNL     1       4.671  30.416  54.568  1.00  0.00     0.019 A 
HETATM    4  C   UNL     1       3.730  30.984  53.719  1.00  0.00     0.016 A 
HETATM    5  C   UNL     1       2.793  31.889  54.232  1.00  0.00     0.044 A 
HETATM    6  N   UNL     1       1.976  32.370  53.222  1.00  0.00    -0.324 N 
HETATM    7  C   UNL     1       2.312  31.814  52.004  1.00  0.00     0.264 A 
HETATM    8  O   UNL     1       1.803  32.070  50.924  1.00  0.00    -0.270 OA
HETATM    9  C   UNL     1       3.529  30.843  52.234  1.00  0.00     0.250 A 
HETATM   10  N   UNL     1       4.757  31.256  51.444  1.00  0.00    -0.043 N 
HETATM   11  H   UNL     1       5.558  30.747  51.844  1.00  0.00     0.282 HD
HETATM   12  C   UNL     1       4.495  30.793  50.034  1.00  0.00     0.204 C 
HETATM   13  C   UNL     1       5.813  31.154  49.390  1.00  0.00     0.036 C 
HETATM   14  C   UNL     1       6.108  32.542  50.007  1.00  0.00     0.030 C 
HETATM   15  C   UNL     1       5.243  32.659  51.277  1.00  0.00     0.237 C 
HETATM   16  C   UNL     1       3.886  29.422  50.226  1.00  0.00     0.126 C 
HETATM   17  C   UNL     1       3.168  29.483  51.581  1.00  0.00     0.145 C 
HETATM   18  C   UNL     1       3.715  28.298  52.316  1.00  0.00     0.239 C 
HETATM   19  O   UNL     1       3.206  27.925  53.362  1.00  0.00    -0.272 OA
HETATM   20  N   UNL     1       4.806  27.793  51.640  1.00  0.00    -0.252 N 
HETATM   21  C   UNL     1       4.919  28.355  50.389  1.00  0.00     0.238 C 
HETATM   22  O   UNL     1       5.736  28.153  49.503  1.00  0.00    -0.272 OA
HETATM   23  C   UNL     1       2.735  32.240  55.562  1.00  0.00     0.031 A 
HETATM   24  C   UNL     1       3.668  31.655  56.418  1.00  0.00     0.009 A 
HETATM   25  H   UNL     1       1.221  33.034  53.348  1.00  0.00     0.169 HD
ENDROOT
BRANCH  20  26
HETATM   26  C   UNL     1       5.720  26.822  52.173  1.00  0.00     0.045 A 
HETATM   27  C   UNL     1       5.567  25.450  51.920  1.00  0.00     0.033 A 
HETATM   28  C   UNL     1       6.402  24.497  52.523  1.00  0.00     0.039 A 
HETATM   29  C   UNL     1       7.418  24.882  53.392  1.00  0.00     0.068 A 
HETATM   30  C   UNL     1       7.611  26.235  53.630  1.00  0.00     0.039 A 
HETATM   31  C   UNL     1       6.775  27.187  53.025  1.00  0.00     0.033 A 
BRANCH  29  32
HETATM   32  O   UNL     1       8.137  23.856  53.934  1.00  0.00    -0.356 OA
HETATM   33  C   UNL     1       7.986  22.574  53.334  1.00  0.00     0.210 C 
ENDBRANCH  29  32
ENDBRANCH  20  26
TORSDOF 2
ENDMDL
MODEL 9
REMARK VINA RESULT:      -7.7      6.885     11.406
REMARK  2 active torsions:
REMARK  status: ('A' for Active; 'I' for Inactive)
REMARK    1  A    between atoms: N_20  and  C_21 
REMARK    2  A    between atoms: C_24  and  O_25 
ROOT
HETATM    1  C   UNL     1       4.428  36.533  58.088  1.00  0.00     0.048 C 
HETATM    2  C   UNL     1       4.109  35.210  58.727  1.00  0.00    -0.061 A 
HETATM    3  C   UNL     1       4.585  34.900  60.012  1.00  0.00     0.019 A 
HETATM    4  C   UNL     1       4.215  33.692  60.587  1.00  0.00     0.016 A 
HETATM    5  C   UNL     1       3.404  32.805  59.870  1.00  0.00     0.044 A 
HETATM    6  N   UNL     1       3.186  31.646  60.597  1.00  0.00    -0.324 N 
HETATM    7  C   UNL     1       3.820  31.702  61.823  1.00  0.00     0.264 A 
HETATM    8  O   UNL     1       3.847  30.820  62.666  1.00  0.00    -0.270 OA
HETATM    9  C   UNL     1       4.576  33.079  61.913  1.00  0.00     0.250 A 
HETATM   10  N   UNL     1       6.075  32.906  62.080  1.00  0.00    -0.043 N 
HETATM   11  H   UNL     1       6.508  33.816  61.868  1.00  0.00     0.282 HD
HETATM   12  C   UNL     1       6.274  32.560  63.533  1.00  0.00     0.204 C 
HETATM   13  C   UNL     1       7.783  32.529  63.591  1.00  0.00     0.036 C 
HETATM   14  C   UNL     1       8.145  31.803  62.274  1.00  0.00     0.030 C 
HETATM   15  C   UNL     1       6.913  31.906  61.354  1.00  0.00     0.237 C 
HETATM   16  C   UNL     1       5.324  33.495  64.248  1.00  0.00     0.126 C 
HETATM   17  C   UNL     1       4.176  33.740  63.258  1.00  0.00     0.145 C 
HETATM   18  C   UNL     1       4.089  35.234  63.193  1.00  0.00     0.239 C 
HETATM   19  O   UNL     1       3.142  35.779  62.649  1.00  0.00    -0.272 OA
HETATM   20  N   UNL     1       5.198  35.792  63.794  1.00  0.00    -0.252 N 
HETATM   21  C   UNL     1       5.920  34.845  64.483  1.00  0.00     0.238 C 
HETATM   22  O   UNL     1       6.939  34.957  65.147  1.00  0.00    -0.272 OA
HETATM   23  C   UNL     1       2.924  33.075  58.608  1.00  0.00     0.031 A 
HETATM   24  C   UNL     1       3.280  34.297  58.039  1.00  0.00     0.009 A 
HETATM   25  H   UNL     1       2.627  30.859  60.288  1.00  0.00     0.169 HD
ENDROOT
BRANCH  20  26
HETATM   26  C   UNL     1       5.568  37.177  63.702  1.00  0.00     0.045 A 
HETATM   27  C   UNL     1       6.104  37.719  62.524  1.00  0.00     0.033 A 
HETATM   28  C   UNL     1       6.556  39.047  62.469  1.00  0.00     0.039 A 
HETATM   29  C   UNL     1       6.483  39.876  63.585  1.00  0.00     0.068 A 
HETATM   30  C   UNL     1       5.924  39.372  64.750  1.00  0.00     0.039 A 
HETATM   31  C   UNL     1       5.472  38.044  64.803  1.00  0.00     0.033 A 
BRANCH  29  32
HETATM   32  O   UNL     1       6.984  41.133  63.407  1.00  0.00    -0.356 OA
HETATM   33  C   UNL     1       6.430  41.904  62.346  1.00  0.00     0.210 C 
ENDBRANCH  29  32
ENDBRANCH  20  26
TORSDOF 2
ENDMDL
MODEL 10
REMARK VINA RESULT:      -7.5     19.041     21.580
REMARK  2 active torsions:
REMARK  status: ('A' for Active; 'I' for Inactive)
REMARK    1  A    between atoms: N_20  and  C_21 
REMARK    2  A    between atoms: C_24  and  O_25 
ROOT
HETATM    1  C   UNL     1      17.955   8.188  51.509  1.00  0.00     0.048 C 
HETATM    2  C   UNL     1      16.802   9.120  51.253  1.00  0.00    -0.061 A 
HETATM    3  C   UNL     1      15.890   9.430  52.275  1.00  0.00     0.019 A 
HETATM    4  C   UNL     1      14.877  10.342  52.010  1.00  0.00     0.016 A 
HETATM    5  C   UNL     1      14.772  10.908  50.734  1.00  0.00     0.044 A 
HETATM    6  N   UNL     1      13.678  11.754  50.664  1.00  0.00    -0.324 N 
HETATM    7  C   UNL     1      13.011  11.806  51.871  1.00  0.00     0.264 A 
HETATM    8  O   UNL     1      11.989  12.429  52.109  1.00  0.00    -0.270 OA
HETATM    9  C   UNL     1      13.755  10.850  52.876  1.00  0.00     0.250 A 
HETATM   10  N   UNL     1      12.862   9.730  53.379  1.00  0.00    -0.043 N 
HETATM   11  H   UNL     1      13.478   9.021  53.803  1.00  0.00     0.282 HD
HETATM   12  C   UNL     1      11.990  10.362  54.433  1.00  0.00     0.204 C 
HETATM   13  C   UNL     1      11.245   9.143  54.923  1.00  0.00     0.036 C 
HETATM   14  C   UNL     1      10.934   8.398  53.603  1.00  0.00     0.030 C 
HETATM   15  C   UNL     1      11.904   8.949  52.540  1.00  0.00     0.237 C 
HETATM   16  C   UNL     1      12.951  11.247  55.195  1.00  0.00     0.126 C 
HETATM   17  C   UNL     1      14.021  11.657  54.173  1.00  0.00     0.145 C 
HETATM   18  C   UNL     1      15.305  11.295  54.855  1.00  0.00     0.239 C 
HETATM   19  O   UNL     1      16.376  11.673  54.405  1.00  0.00    -0.272 OA
HETATM   20  N   UNL     1      15.042  10.513  55.961  1.00  0.00    -0.252 N 
HETATM   21  C   UNL     1      13.698  10.502  56.253  1.00  0.00     0.238 C 
HETATM   22  O   UNL     1      13.090   9.946  57.155  1.00  0.00    -0.272 OA
HETATM   23  C   UNL     1      15.647  10.623  49.710  1.00  0.00     0.031 A 
HETATM   24  C   UNL     1      16.676   9.721  49.982  1.00  0.00     0.009 A 
HETATM   25  H   UNL     1      13.399  12.281  49.844  1.00  0.00     0.169 HD
ENDROOT
BRANCH  20  26
HETATM   26  C   UNL     1      16.034   9.788  56.703  1.00  0.00     0.045 A 
HETATM   27  C   UNL     1      16.993  10.446  57.488  1.00  0.00     0.033 A 
HETATM   28  C   UNL     1      18.022   9.740  58.132  1.00  0.00     0.039 A 
HETATM   29  C   UNL     1      18.122   8.356  58.018  1.00  0.00     0.068 A 
HETATM   30  C   UNL     1      17.164   7.681  57.276  1.00  0.00     0.039 A 
HETATM   31  C   UNL     1      16.136   8.389  56.633  1.00  0.00     0.033 A 
BRANCH  29  32
HETATM   32  O   UNL     1      19.184   7.797  58.667  1.00  0.00    -0.356 OA
HETATM   33  C   UNL     1      19.789   8.567  59.700  1.00  0.00     0.210 C 
ENDBRANCH  29  32
ENDBRANCH  20  26
TORSDOF 2
ENDMDL
