MODEL 1
REMARK VINA RESULT:      -8.9      0.000      0.000
REMARK  6 active torsions:
REMARK  status: ('A' for Active; 'I' for Inactive)
REMARK    1  A    between atoms: C_2  and  N_3 
REMARK    2  A    between atoms: N_3  and  C_5 
REMARK    3  A    between atoms: N_3  and  C_26 
REMARK    4  A    between atoms: C_8  and  N_9 
REMARK       I    between atoms: N_9  and  C_10 
REMARK    5  A    between atoms: C_10  and  C_11 
REMARK    6  A    between atoms: C_19  and  O_20 
ROOT
HETATM    1  N   UNL     1       7.571  27.600  57.812  1.00  0.00    -0.321 N 
HETATM    2  C   UNL     1       8.351  28.735  57.639  1.00  0.00     0.280 C 
HETATM    3  O   UNL     1       9.234  28.846  56.796  1.00  0.00    -0.265 OA
HETATM    4  H   UNL     1       6.982  27.628  58.639  1.00  0.00     0.169 HD
ENDROOT
BRANCH   1   5
HETATM    5  C   UNL     1       7.672  26.390  57.108  1.00  0.00     0.035 A 
HETATM    6  C   UNL     1       8.556  25.366  57.445  1.00  0.00     0.032 A 
HETATM    7  C   UNL     1       8.554  24.160  56.734  1.00  0.00     0.039 A 
HETATM    8  C   UNL     1       7.634  23.943  55.704  1.00  0.00     0.134 A 
HETATM    9  C   UNL     1       6.781  24.984  55.335  1.00  0.00     0.039 A 
HETATM   10  C   UNL     1       6.818  26.208  56.018  1.00  0.00     0.032 A 
BRANCH   8  11
HETATM   11  N   UNL     1       7.609  22.602  55.051  1.00  0.00    -0.042 N 
HETATM   12  H   UNL     1       6.683  22.225  55.295  1.00  0.00     0.286 HD
BRANCH  11  13
HETATM   13  C   UNL     1       7.652  22.702  53.539  1.00  0.00     0.237 C 
HETATM   14  C   UNL     1       8.021  21.377  52.894  1.00  0.00     0.035 C 
ENDBRANCH  11  13
BRANCH  11  15
HETATM   15  C   UNL     1       8.567  21.596  55.658  1.00  0.00     0.237 C 
HETATM   16  C   UNL     1       7.880  20.418  56.338  1.00  0.00     0.035 C 
ENDBRANCH  11  15
ENDBRANCH   8  11
ENDBRANCH   1   5
BRANCH   2  17
HETATM   17  C   UNL     1       8.067  29.759  58.629  1.00  0.00     0.150 A 
HETATM   18  O   UNL     1       8.847  29.811  59.757  1.00  0.00    -0.304 OA
HETATM   19  C   UNL     1       8.387  30.838  60.518  1.00  0.00     0.087 A 
HETATM   20  C   UNL     1       7.335  31.480  59.882  1.00  0.00     0.009 A 
HETATM   21  C   UNL     1       8.893  31.209  61.760  1.00  0.00     0.041 A 
HETATM   22  C   UNL     1       7.126  30.779  58.655  1.00  0.00    -0.009 A 
HETATM   23  C   UNL     1       6.753  32.589  60.523  1.00  0.00     0.051 A 
HETATM   24  C   UNL     1       6.122  31.086  57.601  1.00  0.00     0.052 C 
HETATM   25  C   UNL     1       7.236  32.999  61.776  1.00  0.00     0.069 A 
HETATM   26  C   UNL     1       8.290  32.311  62.384  1.00  0.00     0.039 A 
BRANCH  25  27
HETATM   27  O   UNL     1       6.587  34.088  62.294  1.00  0.00    -0.356 OA
HETATM   28  C   UNL     1       5.269  34.343  61.826  1.00  0.00     0.210 C 
ENDBRANCH  25  27
ENDBRANCH   2  17
TORSDOF 6
ENDMDL
MODEL 2
REMARK VINA RESULT:      -8.6      1.839      3.227
REMARK  6 active torsions:
REMARK  status: ('A' for Active; 'I' for Inactive)
REMARK    1  A    between atoms: C_2  and  N_3 
REMARK    2  A    between atoms: N_3  and  C_5 
REMARK    3  A    between atoms: N_3  and  C_26 
REMARK    4  A    between atoms: C_8  and  N_9 
REMARK       I    between atoms: N_9  and  C_10 
REMARK    5  A    between atoms: C_10  and  C_11 
REMARK    6  A    between atoms: C_19  and  O_20 
ROOT
HETATM    1  N   UNL     1       7.350  29.423  58.676  1.00  0.00    -0.321 N 
HETATM    2  C   UNL     1       8.409  30.232  59.065  1.00  0.00     0.280 C 
HETATM    3  O   UNL     1       9.513  30.233  58.530  1.00  0.00    -0.265 OA
HETATM    4  H   UNL     1       6.556  29.452  59.308  1.00  0.00     0.169 HD
ENDROOT
BRANCH   1   5
HETATM    5  C   UNL     1       7.356  28.454  57.660  1.00  0.00     0.035 A 
HETATM    6  C   UNL     1       7.680  27.115  57.866  1.00  0.00     0.032 A 
HETATM    7  C   UNL     1       7.601  26.193  56.815  1.00  0.00     0.039 A 
HETATM    8  C   UNL     1       7.150  26.590  55.553  1.00  0.00     0.134 A 
HETATM    9  C   UNL     1       6.869  27.939  55.334  1.00  0.00     0.039 A 
HETATM   10  C   UNL     1       6.995  28.868  56.376  1.00  0.00     0.032 A 
BRANCH   8  11
HETATM   11  N   UNL     1       6.986  25.545  54.501  1.00  0.00    -0.042 N 
HETATM   12  H   UNL     1       7.215  26.035  53.626  1.00  0.00     0.286 HD
BRANCH  11  13
HETATM   13  C   UNL     1       7.997  24.424  54.647  1.00  0.00     0.237 C 
HETATM   14  C   UNL     1       7.994  23.498  53.443  1.00  0.00     0.035 C 
ENDBRANCH  11  13
BRANCH  11  15
HETATM   15  C   UNL     1       5.554  25.096  54.287  1.00  0.00     0.237 C 
HETATM   16  C   UNL     1       4.941  25.583  52.979  1.00  0.00     0.035 C 
ENDBRANCH  11  15
ENDBRANCH   8  11
ENDBRANCH   1   5
BRANCH   2  17
HETATM   17  C   UNL     1       8.098  31.026  60.241  1.00  0.00     0.150 A 
HETATM   18  O   UNL     1       7.089  31.951  60.154  1.00  0.00    -0.304 OA
HETATM   19  C   UNL     1       6.994  32.559  61.365  1.00  0.00     0.087 A 
HETATM   20  C   UNL     1       7.911  32.015  62.254  1.00  0.00     0.009 A 
HETATM   21  C   UNL     1       6.105  33.581  61.687  1.00  0.00     0.041 A 
HETATM   22  C   UNL     1       8.629  31.020  61.524  1.00  0.00    -0.009 A 
HETATM   23  C   UNL     1       7.931  32.514  63.569  1.00  0.00     0.051 A 
HETATM   24  C   UNL     1       9.711  30.134  62.031  1.00  0.00     0.052 C 
HETATM   25  C   UNL     1       7.049  33.543  63.936  1.00  0.00     0.069 A 
HETATM   26  C   UNL     1       6.152  34.068  63.001  1.00  0.00     0.039 A 
BRANCH  25  27
HETATM   27  O   UNL     1       7.167  33.940  65.241  1.00  0.00    -0.356 OA
HETATM   28  C   UNL     1       5.972  34.018  66.008  1.00  0.00     0.210 C 
ENDBRANCH  25  27
ENDBRANCH   2  17
TORSDOF 6
ENDMDL
MODEL 3
REMARK VINA RESULT:      -8.4      1.188      1.900
REMARK  6 active torsions:
REMARK  status: ('A' for Active; 'I' for Inactive)
REMARK    1  A    between atoms: C_2  and  N_3 
REMARK    2  A    between atoms: N_3  and  C_5 
REMARK    3  A    between atoms: N_3  and  C_26 
REMARK    4  A    between atoms: C_8  and  N_9 
REMARK       I    between atoms: N_9  and  C_10 
REMARK    5  A    between atoms: C_10  and  C_11 
REMARK    6  A    between atoms: C_19  and  O_20 
ROOT
HETATM    1  N   UNL     1       7.506  28.611  58.048  1.00  0.00    -0.321 N 
HETATM    2  C   UNL     1       8.439  29.614  58.266  1.00  0.00     0.280 C 
HETATM    3  O   UNL     1       9.514  29.699  57.682  1.00  0.00    -0.265 OA
HETATM    4  H   UNL     1       6.734  28.616  58.708  1.00  0.00     0.169 HD
ENDROOT
BRANCH   1   5
HETATM    5  C   UNL     1       7.631  27.514  57.180  1.00  0.00     0.035 A 
HETATM    6  C   UNL     1       8.019  26.239  57.591  1.00  0.00     0.032 A 
HETATM    7  C   UNL     1       8.059  25.178  56.678  1.00  0.00     0.039 A 
HETATM    8  C   UNL     1       7.667  25.368  55.350  1.00  0.00     0.134 A 
HETATM    9  C   UNL     1       7.323  26.652  54.928  1.00  0.00     0.039 A 
HETATM   10  C   UNL     1       7.330  27.723  55.833  1.00  0.00     0.032 A 
BRANCH   8  11
HETATM   11  N   UNL     1       7.630  24.179  54.449  1.00  0.00    -0.042 N 
HETATM   12  H   UNL     1       8.592  24.109  54.092  1.00  0.00     0.286 HD
BRANCH  11  13
HETATM   13  C   UNL     1       7.356  22.895  55.208  1.00  0.00     0.237 C 
HETATM   14  C   UNL     1       8.430  21.850  54.960  1.00  0.00     0.035 C 
ENDBRANCH  11  13
BRANCH  11  15
HETATM   15  C   UNL     1       6.803  24.375  53.194  1.00  0.00     0.237 C 
HETATM   16  C   UNL     1       7.630  24.654  51.944  1.00  0.00     0.035 C 
ENDBRANCH  11  15
ENDBRANCH   8  11
ENDBRANCH   1   5
BRANCH   2  17
HETATM   17  C   UNL     1       8.042  30.519  59.331  1.00  0.00     0.150 A 
HETATM   18  O   UNL     1       8.701  30.442  60.531  1.00  0.00    -0.304 OA
HETATM   19  C   UNL     1       8.153  31.376  61.352  1.00  0.00     0.087 A 
HETATM   20  C   UNL     1       7.163  32.085  60.687  1.00  0.00     0.009 A 
HETATM   21  C   UNL     1       8.524  31.603  62.675  1.00  0.00     0.041 A 
HETATM   22  C   UNL     1       7.090  31.529  59.374  1.00  0.00    -0.009 A 
HETATM   23  C   UNL     1       6.505  33.113  61.387  1.00  0.00     0.051 A 
HETATM   24  C   UNL     1       6.196  31.953  58.264  1.00  0.00     0.052 C 
HETATM   25  C   UNL     1       6.851  33.378  62.722  1.00  0.00     0.069 A 
HETATM   26  C   UNL     1       7.846  32.626  63.353  1.00  0.00     0.039 A 
BRANCH  25  27
HETATM   27  O   UNL     1       6.139  34.400  63.290  1.00  0.00    -0.356 OA
HETATM   28  C   UNL     1       5.525  35.333  62.409  1.00  0.00     0.210 C 
ENDBRANCH  25  27
ENDBRANCH   2  17
TORSDOF 6
ENDMDL
MODEL 4
REMARK VINA RESULT:      -8.2      7.854     11.206
REMARK  6 active torsions:
REMARK  status: ('A' for Active; 'I' for Inactive)
REMARK    1  A    between atoms: C_2  and  N_3 
REMARK    2  A    between atoms: N_3  and  C_5 
REMARK    3  A    between atoms: N_3  and  C_26 
REMARK    4  A    between atoms: C_8  and  N_9 
REMARK       I    between atoms: N_9  and  C_10 
REMARK    5  A    between atoms: C_10  and  C_11 
REMARK    6  A    between atoms: C_19  and  O_20 
ROOT
HETATM    1  N   UNL     1       4.462  26.019  50.689  1.00  0.00    -0.321 N 
HETATM    2  C   UNL     1       4.584  27.191  49.957  1.00  0.00     0.280 C 
HETATM    3  O   UNL     1       5.485  28.010  50.105  1.00  0.00    -0.265 OA
HETATM    4  H   UNL     1       3.590  25.525  50.532  1.00  0.00     0.169 HD
ENDROOT
BRANCH   1   5
HETATM    5  C   UNL     1       5.292  25.585  51.735  1.00  0.00     0.035 A 
HETATM    6  C   UNL     1       4.833  25.282  53.016  1.00  0.00     0.032 A 
HETATM    7  C   UNL     1       5.713  24.793  53.990  1.00  0.00     0.039 A 
HETATM    8  C   UNL     1       7.055  24.556  53.682  1.00  0.00     0.134 A 
HETATM    9  C   UNL     1       7.525  24.904  52.415  1.00  0.00     0.039 A 
HETATM   10  C   UNL     1       6.652  25.438  51.457  1.00  0.00     0.032 A 
BRANCH   8  11
HETATM   11  N   UNL     1       7.920  23.937  54.728  1.00  0.00    -0.042 N 
HETATM   12  H   UNL     1       8.873  24.035  54.351  1.00  0.00     0.286 HD
BRANCH  11  13
HETATM   13  C   UNL     1       7.888  24.714  56.030  1.00  0.00     0.237 C 
HETATM   14  C   UNL     1       8.779  24.085  57.087  1.00  0.00     0.035 C 
ENDBRANCH  11  13
BRANCH  11  15
HETATM   15  C   UNL     1       7.751  22.437  54.868  1.00  0.00     0.237 C 
HETATM   16  C   UNL     1       8.346  21.635  53.717  1.00  0.00     0.035 C 
ENDBRANCH  11  15
ENDBRANCH   8  11
ENDBRANCH   1   5
BRANCH   2  17
HETATM   17  C   UNL     1       3.474  27.392  49.041  1.00  0.00     0.150 A 
HETATM   18  O   UNL     1       2.902  28.636  48.973  1.00  0.00    -0.304 OA
HETATM   19  C   UNL     1       1.898  28.568  48.061  1.00  0.00     0.087 A 
HETATM   20  C   UNL     1       1.830  27.298  47.507  1.00  0.00     0.009 A 
HETATM   21  C   UNL     1       1.050  29.617  47.715  1.00  0.00     0.041 A 
HETATM   22  C   UNL     1       2.854  26.532  48.144  1.00  0.00    -0.009 A 
HETATM   23  C   UNL     1       0.857  27.058  46.520  1.00  0.00     0.051 A 
HETATM   24  C   UNL     1       3.207  25.111  47.889  1.00  0.00     0.052 C 
HETATM   25  C   UNL     1      -0.016  28.091  46.141  1.00  0.00     0.069 A 
HETATM   26  C   UNL     1       0.082  29.350  46.737  1.00  0.00     0.039 A 
BRANCH  25  27
HETATM   27  O   UNL     1      -0.917  27.732  45.173  1.00  0.00    -0.356 OA
HETATM   28  C   UNL     1      -1.324  28.742  44.258  1.00  0.00     0.210 C 
ENDBRANCH  25  27
ENDBRANCH   2  17
TORSDOF 6
ENDMDL
MODEL 5
REMARK VINA RESULT:      -7.9      1.559      2.764
REMARK  6 active torsions:
REMARK  status: ('A' for Active; 'I' for Inactive)
REMARK    1  A    between atoms: C_2  and  N_3 
REMARK    2  A    between atoms: N_3  and  C_5 
REMARK    3  A    between atoms: N_3  and  C_26 
REMARK    4  A    between atoms: C_8  and  N_9 
REMARK       I    between atoms: N_9  and  C_10 
REMARK    5  A    between atoms: C_10  and  C_11 
REMARK    6  A    between atoms: C_19  and  O_20 
ROOT
HETATM    1  N   UNL     1       7.001  27.096  56.809  1.00  0.00    -0.321 N 
HETATM    2  C   UNL     1       7.365  28.346  56.328  1.00  0.00     0.280 C 
HETATM    3  O   UNL     1       8.050  28.531  55.328  1.00  0.00    -0.265 OA
HETATM    4  H   UNL     1       6.548  27.120  57.717  1.00  0.00     0.169 HD
ENDROOT
BRANCH   1   5
HETATM    5  C   UNL     1       7.373  25.848  56.285  1.00  0.00     0.035 A 
HETATM    6  C   UNL     1       6.782  25.269  55.163  1.00  0.00     0.032 A 
HETATM    7  C   UNL     1       7.251  24.049  54.660  1.00  0.00     0.039 A 
HETATM    8  C   UNL     1       8.350  23.414  55.245  1.00  0.00     0.134 A 
HETATM    9  C   UNL     1       8.912  23.969  56.395  1.00  0.00     0.039 A 
HETATM   10  C   UNL     1       8.410  25.166  56.925  1.00  0.00     0.032 A 
BRANCH   8  11
HETATM   11  N   UNL     1       8.871  22.172  54.604  1.00  0.00    -0.042 N 
HETATM   12  H   UNL     1       9.816  22.431  54.293  1.00  0.00     0.286 HD
BRANCH  11  13
HETATM   13  C   UNL     1       9.038  21.041  55.601  1.00  0.00     0.237 C 
HETATM   14  C   UNL     1       7.702  20.566  56.147  1.00  0.00     0.035 C 
ENDBRANCH  11  13
BRANCH  11  15
HETATM   15  C   UNL     1       8.168  21.795  53.315  1.00  0.00     0.237 C 
HETATM   16  C   UNL     1       8.473  20.381  52.833  1.00  0.00     0.035 C 
ENDBRANCH  11  15
ENDBRANCH   8  11
ENDBRANCH   1   5
BRANCH   2  17
HETATM   17  C   UNL     1       6.915  29.425  57.191  1.00  0.00     0.150 A 
HETATM   18  O   UNL     1       5.593  29.787  57.146  1.00  0.00    -0.304 OA
HETATM   19  C   UNL     1       5.425  30.805  58.029  1.00  0.00     0.087 A 
HETATM   20  C   UNL     1       6.619  31.090  58.675  1.00  0.00     0.009 A 
HETATM   21  C   UNL     1       4.228  31.476  58.267  1.00  0.00     0.041 A 
HETATM   22  C   UNL     1       7.588  30.194  58.131  1.00  0.00    -0.009 A 
HETATM   23  C   UNL     1       6.618  32.107  59.647  1.00  0.00     0.051 A 
HETATM   24  C   UNL     1       9.023  30.082  58.504  1.00  0.00     0.052 C 
HETATM   25  C   UNL     1       5.431  32.807  59.920  1.00  0.00     0.069 A 
HETATM   26  C   UNL     1       4.256  32.493  59.232  1.00  0.00     0.039 A 
BRANCH  25  27
HETATM   27  O   UNL     1       5.561  33.771  60.884  1.00  0.00    -0.356 OA
HETATM   28  C   UNL     1       6.419  33.482  61.981  1.00  0.00     0.210 C 
ENDBRANCH  25  27
ENDBRANCH   2  17
TORSDOF 6
ENDMDL
MODEL 6
REMARK VINA RESULT:      -7.9      6.951     10.189
REMARK  6 active torsions:
REMARK  status: ('A' for Active; 'I' for Inactive)
REMARK    1  A    between atoms: C_2  and  N_3 
REMARK    2  A    between atoms: N_3  and  C_5 
REMARK    3  A    between atoms: N_3  and  C_26 
REMARK    4  A    between atoms: C_8  and  N_9 
REMARK       I    between atoms: N_9  and  C_10 
REMARK    5  A    between atoms: C_10  and  C_11 
REMARK    6  A    between atoms: C_19  and  O_20 
ROOT
HETATM    1  N   UNL     1       5.249  25.841  51.413  1.00  0.00    -0.321 N 
HETATM    2  C   UNL     1       5.177  27.189  51.089  1.00  0.00     0.280 C 
HETATM    3  O   UNL     1       5.870  28.062  51.600  1.00  0.00    -0.265 OA
HETATM    4  H   UNL     1       4.517  25.277  50.994  1.00  0.00     0.169 HD
ENDROOT
BRANCH   1   5
HETATM    5  C   UNL     1       6.070  25.248  52.387  1.00  0.00     0.035 A 
HETATM    6  C   UNL     1       5.665  25.004  53.698  1.00  0.00     0.032 A 
HETATM    7  C   UNL     1       6.518  24.350  54.596  1.00  0.00     0.039 A 
HETATM    8  C   UNL     1       7.770  23.889  54.180  1.00  0.00     0.134 A 
HETATM    9  C   UNL     1       8.194  24.175  52.882  1.00  0.00     0.039 A 
HETATM   10  C   UNL     1       7.357  24.872  51.999  1.00  0.00     0.032 A 
BRANCH   8  11
HETATM   11  N   UNL     1       8.592  23.108  55.150  1.00  0.00    -0.042 N 
HETATM   12  H   UNL     1       9.536  23.506  55.052  1.00  0.00     0.286 HD
BRANCH  11  13
HETATM   13  C   UNL     1       8.166  23.350  56.585  1.00  0.00     0.237 C 
HETATM   14  C   UNL     1       9.008  24.424  57.252  1.00  0.00     0.035 C 
ENDBRANCH  11  13
BRANCH  11  15
HETATM   15  C   UNL     1       8.784  21.652  54.772  1.00  0.00     0.237 C 
HETATM   16  C   UNL     1       7.864  20.692  55.517  1.00  0.00     0.035 C 
ENDBRANCH  11  15
ENDBRANCH   8  11
ENDBRANCH   1   5
BRANCH   2  17
HETATM   17  C   UNL     1       4.124  27.473  50.130  1.00  0.00     0.150 A 
HETATM   18  O   UNL     1       3.850  26.536  49.166  1.00  0.00    -0.304 OA
HETATM   19  C   UNL     1       2.842  27.030  48.399  1.00  0.00     0.087 A 
HETATM   20  C   UNL     1       2.433  28.267  48.875  1.00  0.00     0.009 A 
HETATM   21  C   UNL     1       2.286  26.394  47.293  1.00  0.00     0.041 A 
HETATM   22  C   UNL     1       3.266  28.556  49.998  1.00  0.00    -0.009 A 
HETATM   23  C   UNL     1       1.375  28.913  48.209  1.00  0.00     0.051 A 
HETATM   24  C   UNL     1       3.216  29.759  50.872  1.00  0.00     0.052 C 
HETATM   25  C   UNL     1       0.783  28.305  47.091  1.00  0.00     0.069 A 
HETATM   26  C   UNL     1       1.240  27.063  46.641  1.00  0.00     0.039 A 
BRANCH  25  27
HETATM   27  O   UNL     1      -0.234  29.033  46.533  1.00  0.00    -0.356 OA
HETATM   28  C   UNL     1       0.093  30.318  46.019  1.00  0.00     0.210 C 
ENDBRANCH  25  27
ENDBRANCH   2  17
TORSDOF 6
ENDMDL
MODEL 7
REMARK VINA RESULT:      -7.8      7.320      9.261
REMARK  6 active torsions:
REMARK  status: ('A' for Active; 'I' for Inactive)
REMARK    1  A    between atoms: C_2  and  N_3 
REMARK    2  A    between atoms: N_3  and  C_5 
REMARK    3  A    between atoms: N_3  and  C_26 
REMARK    4  A    between atoms: C_8  and  N_9 
REMARK       I    between atoms: N_9  and  C_10 
REMARK    5  A    between atoms: C_10  and  C_11 
REMARK    6  A    between atoms: C_19  and  O_20 
ROOT
HETATM    1  N   UNL     1       6.268  26.621  51.667  1.00  0.00    -0.321 N 
HETATM    2  C   UNL     1       5.285  26.569  50.688  1.00  0.00     0.280 C 
HETATM    3  O   UNL     1       4.611  25.576  50.436  1.00  0.00    -0.265 OA
HETATM    4  H   UNL     1       6.818  27.474  51.653  1.00  0.00     0.169 HD
ENDROOT
BRANCH   1   5
HETATM    5  C   UNL     1       6.694  25.570  52.495  1.00  0.00     0.035 A 
HETATM    6  C   UNL     1       5.994  25.135  53.619  1.00  0.00     0.032 A 
HETATM    7  C   UNL     1       6.448  24.036  54.359  1.00  0.00     0.039 A 
HETATM    8  C   UNL     1       7.584  23.328  53.957  1.00  0.00     0.134 A 
HETATM    9  C   UNL     1       8.311  23.791  52.860  1.00  0.00     0.039 A 
HETATM   10  C   UNL     1       7.880  24.920  52.149  1.00  0.00     0.032 A 
BRANCH   8  11
HETATM   11  N   UNL     1       7.961  22.105  54.723  1.00  0.00    -0.042 N 
HETATM   12  H   UNL     1       7.096  21.548  54.741  1.00  0.00     0.286 HD
BRANCH  11  13
HETATM   13  C   UNL     1       8.998  21.271  53.995  1.00  0.00     0.237 C 
HETATM   14  C   UNL     1       8.361  20.325  52.992  1.00  0.00     0.035 C 
ENDBRANCH  11  13
BRANCH  11  15
HETATM   15  C   UNL     1       8.249  22.353  56.191  1.00  0.00     0.237 C 
HETATM   16  C   UNL     1       8.361  21.082  57.024  1.00  0.00     0.035 C 
ENDBRANCH  11  15
ENDBRANCH   8  11
ENDBRANCH   1   5
BRANCH   2  17
HETATM   17  C   UNL     1       5.194  27.803  49.927  1.00  0.00     0.150 A 
HETATM   18  O   UNL     1       5.633  28.963  50.511  1.00  0.00    -0.304 OA
HETATM   19  C   UNL     1       5.442  29.964  49.613  1.00  0.00     0.087 A 
HETATM   20  C   UNL     1       4.912  29.462  48.433  1.00  0.00     0.009 A 
HETATM   21  C   UNL     1       5.736  31.308  49.828  1.00  0.00     0.041 A 
HETATM   22  C   UNL     1       4.750  28.058  48.636  1.00  0.00    -0.009 A 
HETATM   23  C   UNL     1       4.674  30.364  47.379  1.00  0.00     0.051 A 
HETATM   24  C   UNL     1       4.233  27.060  47.663  1.00  0.00     0.052 C 
HETATM   25  C   UNL     1       4.959  31.728  47.555  1.00  0.00     0.069 A 
HETATM   26  C   UNL     1       5.479  32.188  48.767  1.00  0.00     0.039 A 
BRANCH  25  27
HETATM   27  O   UNL     1       4.683  32.500  46.458  1.00  0.00    -0.356 OA
HETATM   28  C   UNL     1       4.380  31.822  45.245  1.00  0.00     0.210 C 
ENDBRANCH  25  27
ENDBRANCH   2  17
TORSDOF 6
ENDMDL
MODEL 8
REMARK VINA RESULT:      -7.7      2.718      9.825
REMARK  6 active torsions:
REMARK  status: ('A' for Active; 'I' for Inactive)
REMARK    1  A    between atoms: C_2  and  N_3 
REMARK    2  A    between atoms: N_3  and  C_5 
REMARK    3  A    between atoms: N_3  and  C_26 
REMARK    4  A    between atoms: C_8  and  N_9 
REMARK       I    between atoms: N_9  and  C_10 
REMARK    5  A    between atoms: C_10  and  C_11 
REMARK    6  A    between atoms: C_19  and  O_20 
ROOT
HETATM    1  N   UNL     1       7.119  27.789  57.088  1.00  0.00    -0.321 N 
HETATM    2  C   UNL     1       7.609  27.488  55.824  1.00  0.00     0.280 C 
HETATM    3  O   UNL     1       7.877  28.323  54.968  1.00  0.00    -0.265 OA
HETATM    4  H   UNL     1       6.826  26.976  57.620  1.00  0.00     0.169 HD
ENDROOT
BRANCH   1   5
HETATM    5  C   UNL     1       6.805  29.062  57.591  1.00  0.00     0.035 A 
HETATM    6  C   UNL     1       5.590  29.708  57.365  1.00  0.00     0.032 A 
HETATM    7  C   UNL     1       5.325  30.950  57.954  1.00  0.00     0.039 A 
HETATM    8  C   UNL     1       6.253  31.542  58.816  1.00  0.00     0.134 A 
HETATM    9  C   UNL     1       7.486  30.919  59.005  1.00  0.00     0.039 A 
HETATM   10  C   UNL     1       7.768  29.698  58.376  1.00  0.00     0.032 A 
BRANCH   8  11
HETATM   11  N   UNL     1       5.873  32.814  59.496  1.00  0.00    -0.042 N 
HETATM   12  H   UNL     1       6.732  33.380  59.463  1.00  0.00     0.286 HD
BRANCH  11  13
HETATM   13  C   UNL     1       4.818  33.583  58.722  1.00  0.00     0.237 C 
HETATM   14  C   UNL     1       3.524  33.714  59.506  1.00  0.00     0.035 C 
ENDBRANCH  11  13
BRANCH  11  15
HETATM   15  C   UNL     1       5.604  32.670  60.981  1.00  0.00     0.237 C 
HETATM   16  C   UNL     1       6.419  33.619  61.853  1.00  0.00     0.035 C 
ENDBRANCH  11  15
ENDBRANCH   8  11
ENDBRANCH   1   5
BRANCH   2  17
HETATM   17  C   UNL     1       7.693  26.057  55.589  1.00  0.00     0.150 A 
HETATM   18  O   UNL     1       7.977  25.237  56.651  1.00  0.00    -0.304 OA
HETATM   19  C   UNL     1       8.004  23.963  56.181  1.00  0.00     0.087 A 
HETATM   20  C   UNL     1       7.707  23.940  54.826  1.00  0.00     0.009 A 
HETATM   21  C   UNL     1       8.284  22.829  56.939  1.00  0.00     0.041 A 
HETATM   22  C   UNL     1       7.506  25.300  54.440  1.00  0.00    -0.009 A 
HETATM   23  C   UNL     1       7.667  22.690  54.179  1.00  0.00     0.051 A 
HETATM   24  C   UNL     1       7.145  25.810  53.091  1.00  0.00     0.052 C 
HETATM   25  C   UNL     1       7.940  21.522  54.909  1.00  0.00     0.069 A 
HETATM   26  C   UNL     1       8.248  21.598  56.270  1.00  0.00     0.039 A 
BRANCH  25  27
HETATM   27  O   UNL     1       7.869  20.373  54.168  1.00  0.00    -0.356 OA
HETATM   28  C   UNL     1       8.332  20.436  52.824  1.00  0.00     0.210 C 
ENDBRANCH  25  27
ENDBRANCH   2  17
TORSDOF 6
ENDMDL
MODEL 9
REMARK VINA RESULT:      -7.5      2.515      9.818
REMARK  6 active torsions:
REMARK  status: ('A' for Active; 'I' for Inactive)
REMARK    1  A    between atoms: C_2  and  N_3 
REMARK    2  A    between atoms: N_3  and  C_5 
REMARK    3  A    between atoms: N_3  and  C_26 
REMARK    4  A    between atoms: C_8  and  N_9 
REMARK       I    between atoms: N_9  and  C_10 
REMARK    5  A    between atoms: C_10  and  C_11 
REMARK    6  A    between atoms: C_19  and  O_20 
ROOT
HETATM    1  N   UNL     1       7.830  29.571  58.966  1.00  0.00    -0.321 N 
HETATM    2  C   UNL     1       7.300  29.485  57.686  1.00  0.00     0.280 C 
HETATM    3  O   UNL     1       6.662  30.377  57.138  1.00  0.00    -0.265 OA
HETATM    4  H   UNL     1       8.212  28.697  59.313  1.00  0.00     0.169 HD
ENDROOT
BRANCH   1   5
HETATM    5  C   UNL     1       7.700  30.643  59.863  1.00  0.00     0.035 A 
HETATM    6  C   UNL     1       6.688  31.598  59.790  1.00  0.00     0.032 A 
HETATM    7  C   UNL     1       6.585  32.603  60.761  1.00  0.00     0.039 A 
HETATM    8  C   UNL     1       7.467  32.638  61.845  1.00  0.00     0.134 A 
HETATM    9  C   UNL     1       8.509  31.711  61.893  1.00  0.00     0.039 A 
HETATM   10  C   UNL     1       8.637  30.735  60.894  1.00  0.00     0.032 A 
BRANCH   8  11
HETATM   11  N   UNL     1       7.246  33.667  62.901  1.00  0.00    -0.042 N 
HETATM   12  H   UNL     1       7.880  34.433  62.639  1.00  0.00     0.286 HD
BRANCH  11  13
HETATM   13  C   UNL     1       5.840  34.235  62.860  1.00  0.00     0.237 C 
HETATM   14  C   UNL     1       5.835  35.706  62.482  1.00  0.00     0.035 C 
ENDBRANCH  11  13
BRANCH  11  15
HETATM   15  C   UNL     1       7.736  33.261  64.278  1.00  0.00     0.237 C 
HETATM   16  C   UNL     1       6.872  33.780  65.421  1.00  0.00     0.035 C 
ENDBRANCH  11  15
ENDBRANCH   8  11
ENDBRANCH   1   5
BRANCH   2  17
HETATM   17  C   UNL     1       7.512  28.179  57.085  1.00  0.00     0.150 A 
HETATM   18  O   UNL     1       8.099  27.199  57.844  1.00  0.00    -0.304 OA
HETATM   19  C   UNL     1       8.189  26.088  57.069  1.00  0.00     0.087 A 
HETATM   20  C   UNL     1       7.634  26.323  55.819  1.00  0.00     0.009 A 
HETATM   21  C   UNL     1       8.750  24.875  57.459  1.00  0.00     0.041 A 
HETATM   22  C   UNL     1       7.195  27.681  55.828  1.00  0.00    -0.009 A 
HETATM   23  C   UNL     1       7.621  25.264  54.892  1.00  0.00     0.051 A 
HETATM   24  C   UNL     1       6.514  28.416  54.729  1.00  0.00     0.052 C 
HETATM   25  C   UNL     1       8.175  24.023  55.248  1.00  0.00     0.069 A 
HETATM   26  C   UNL     1       8.734  23.839  56.515  1.00  0.00     0.039 A 
BRANCH  25  27
HETATM   27  O   UNL     1       8.100  23.076  54.261  1.00  0.00    -0.356 OA
HETATM   28  C   UNL     1       7.417  23.435  53.067  1.00  0.00     0.210 C 
ENDBRANCH  25  27
ENDBRANCH   2  17
TORSDOF 6
ENDMDL
MODEL 10
REMARK VINA RESULT:      -7.5      2.496      3.561
REMARK  6 active torsions:
REMARK  status: ('A' for Active; 'I' for Inactive)
REMARK    1  A    between atoms: C_2  and  N_3 
REMARK    2  A    between atoms: N_3  and  C_5 
REMARK    3  A    between atoms: N_3  and  C_26 
REMARK    4  A    between atoms: C_8  and  N_9 
REMARK       I    between atoms: N_9  and  C_10 
REMARK    5  A    between atoms: C_10  and  C_11 
REMARK    6  A    between atoms: C_19  and  O_20 
ROOT
HETATM    1  N   UNL     1       6.492  29.969  58.171  1.00  0.00    -0.321 N 
HETATM    2  C   UNL     1       6.304  31.343  58.226  1.00  0.00     0.280 C 
HETATM    3  O   UNL     1       6.134  32.059  57.245  1.00  0.00    -0.265 OA
HETATM    4  H   UNL     1       6.750  29.553  59.060  1.00  0.00     0.169 HD
ENDROOT
BRANCH   1   5
HETATM    5  C   UNL     1       6.566  29.172  57.018  1.00  0.00     0.035 A 
HETATM    6  C   UNL     1       7.652  29.170  56.144  1.00  0.00     0.032 A 
HETATM    7  C   UNL     1       7.682  28.299  55.048  1.00  0.00     0.039 A 
HETATM    8  C   UNL     1       6.646  27.385  54.837  1.00  0.00     0.134 A 
HETATM    9  C   UNL     1       5.537  27.419  55.683  1.00  0.00     0.039 A 
HETATM   10  C   UNL     1       5.488  28.325  56.753  1.00  0.00     0.032 A 
BRANCH   8  11
HETATM   11  N   UNL     1       6.781  26.412  53.714  1.00  0.00    -0.042 N 
HETATM   12  H   UNL     1       7.268  26.945  52.981  1.00  0.00     0.286 HD
BRANCH  11  13
HETATM   13  C   UNL     1       7.684  25.247  54.074  1.00  0.00     0.237 C 
HETATM   14  C   UNL     1       7.502  24.076  53.124  1.00  0.00     0.035 C 
ENDBRANCH  11  13
BRANCH  11  15
HETATM   15  C   UNL     1       5.468  26.030  53.059  1.00  0.00     0.237 C 
HETATM   16  C   UNL     1       5.246  26.676  51.696  1.00  0.00     0.035 C 
ENDBRANCH  11  15
ENDBRANCH   8  11
ENDBRANCH   1   5
BRANCH   2  17
HETATM   17  C   UNL     1       6.414  31.864  59.578  1.00  0.00     0.150 A 
HETATM   18  O   UNL     1       7.541  31.567  60.301  1.00  0.00    -0.304 OA
HETATM   19  C   UNL     1       7.407  32.158  61.517  1.00  0.00     0.087 A 
HETATM   20  C   UNL     1       6.216  32.868  61.583  1.00  0.00     0.009 A 
HETATM   21  C   UNL     1       8.327  32.077  62.559  1.00  0.00     0.041 A 
HETATM   22  C   UNL     1       5.570  32.677  60.323  1.00  0.00    -0.009 A 
HETATM   23  C   UNL     1       5.928  33.566  62.770  1.00  0.00     0.051 A 
HETATM   24  C   UNL     1       4.270  33.247  59.882  1.00  0.00     0.052 C 
HETATM   25  C   UNL     1       6.831  33.513  63.844  1.00  0.00     0.069 A 
HETATM   26  C   UNL     1       8.012  32.773  63.734  1.00  0.00     0.039 A 
BRANCH  25  27
HETATM   27  O   UNL     1       6.437  34.232  64.940  1.00  0.00    -0.356 OA
HETATM   28  C   UNL     1       5.227  33.838  65.576  1.00  0.00     0.210 C 
ENDBRANCH  25  27
ENDBRANCH   2  17
TORSDOF 6
ENDMDL
