MODEL 1
REMARK VINA RESULT:      -8.6      0.000      0.000
REMARK  5 active torsions:
REMARK  status: ('A' for Active; 'I' for Inactive)
REMARK    1  A    between atoms: C_2  and  C_3 
REMARK    2  A    between atoms: C_2  and  C_20 
REMARK       I    between atoms: C_3  and  N_4 
REMARK    3  A    between atoms: N_4  and  C_5 
REMARK    4  A    between atoms: C_8  and  O_9 
REMARK    5  A    between atoms: O_9  and  C_10 
ROOT
HETATM    1  C   UNL     1       5.631  25.402  51.808  1.00  0.00     0.052 A 
HETATM    2  C   UNL     1       5.079  25.192  53.070  1.00  0.00     0.149 A 
HETATM    3  N   UNL     1       5.792  24.809  54.162  1.00  0.00    -0.235 NA
HETATM    4  C   UNL     1       7.119  24.632  53.993  1.00  0.00     0.169 A 
HETATM    5  C   UNL     1       7.766  24.822  52.783  1.00  0.00     0.060 A 
HETATM    6  C   UNL     1       7.007  25.202  51.676  1.00  0.00     0.035 A 
ENDROOT
BRANCH   1   7
HETATM    7  N   UNL     1       4.914  25.790  50.655  1.00  0.00    -0.325 N 
HETATM    8  C   UNL     1       4.835  27.067  50.121  1.00  0.00     0.231 C 
HETATM    9  O   UNL     1       5.445  28.036  50.560  1.00  0.00    -0.272 OA
HETATM   10  H   UNL     1       4.458  25.042  50.151  1.00  0.00     0.169 HD
BRANCH   8  11
HETATM   11  C   UNL     1       3.966  27.168  48.847  1.00  0.00     0.046 C 
HETATM   12  C   UNL     1       4.824  27.795  47.730  1.00  0.00     0.026 C 
HETATM   13  C   UNL     1       3.482  25.780  48.390  1.00  0.00     0.026 C 
BRANCH  11  14
HETATM   14  C   UNL     1       2.770  28.116  49.103  1.00  0.00     0.133 C 
HETATM   15 CL   UNL     1       1.226  27.550  48.405  1.00  0.00    -0.129 Cl
ENDBRANCH  11  14
ENDBRANCH   8  11
ENDBRANCH   1   7
BRANCH   4  16
HETATM   16  O   UNL     1       7.926  24.260  55.064  1.00  0.00    -0.289 OA
BRANCH  16  17
HETATM   17  C   UNL     1       7.991  22.919  55.346  1.00  0.00     0.116 A 
HETATM   18  C   UNL     1       8.354  22.515  56.628  1.00  0.00     0.150 A 
HETATM   19  F   UNL     1       8.585  23.427  57.585  1.00  0.00    -0.203 F 
HETATM   20  C   UNL     1       8.492  21.164  56.933  1.00  0.00     0.045 A 
HETATM   21  C   UNL     1       8.279  20.207  55.939  1.00  0.00     0.003 A 
HETATM   22  C   UNL     1       7.935  20.607  54.645  1.00  0.00     0.003 A 
HETATM   23  C   UNL     1       7.799  21.964  54.343  1.00  0.00     0.040 A 
ENDBRANCH  16  17
ENDBRANCH   4  16
TORSDOF 5
ENDMDL
MODEL 2
REMARK VINA RESULT:      -8.4      1.131      1.423
REMARK  5 active torsions:
REMARK  status: ('A' for Active; 'I' for Inactive)
REMARK    1  A    between atoms: C_2  and  C_3 
REMARK    2  A    between atoms: C_2  and  C_20 
REMARK       I    between atoms: C_3  and  N_4 
REMARK    3  A    between atoms: N_4  and  C_5 
REMARK    4  A    between atoms: C_8  and  O_9 
REMARK    5  A    between atoms: O_9  and  C_10 
ROOT
HETATM    1  C   UNL     1       5.429  25.561  51.685  1.00  0.00     0.052 A 
HETATM    2  C   UNL     1       4.953  25.088  52.906  1.00  0.00     0.149 A 
HETATM    3  N   UNL     1       5.745  24.608  53.900  1.00  0.00    -0.235 NA
HETATM    4  C   UNL     1       7.075  24.604  53.673  1.00  0.00     0.169 A 
HETATM    5  C   UNL     1       7.650  25.060  52.498  1.00  0.00     0.060 A 
HETATM    6  C   UNL     1       6.812  25.534  51.489  1.00  0.00     0.035 A 
ENDROOT
BRANCH   1   7
HETATM    7  N   UNL     1       4.630  26.057  50.632  1.00  0.00    -0.325 N 
HETATM    8  C   UNL     1       4.567  27.368  50.186  1.00  0.00     0.231 C 
HETATM    9  O   UNL     1       5.264  28.277  50.623  1.00  0.00    -0.272 OA
HETATM   10  H   UNL     1       4.091  25.364  50.129  1.00  0.00     0.169 HD
BRANCH   8  11
HETATM   11  C   UNL     1       3.591  27.591  49.009  1.00  0.00     0.046 C 
HETATM   12  C   UNL     1       3.270  26.218  48.384  1.00  0.00     0.026 C 
HETATM   13  C   UNL     1       2.281  28.245  49.487  1.00  0.00     0.026 C 
BRANCH  11  14
HETATM   14  C   UNL     1       4.274  28.450  47.919  1.00  0.00     0.133 C 
HETATM   15 CL   UNL     1       5.715  27.691  47.185  1.00  0.00    -0.129 Cl
ENDBRANCH  11  14
ENDBRANCH   8  11
ENDBRANCH   1   7
BRANCH   4  16
HETATM   16  O   UNL     1       7.959  24.148  54.647  1.00  0.00    -0.289 OA
BRANCH  16  17
HETATM   17  C   UNL     1       8.031  22.789  54.821  1.00  0.00     0.116 A 
HETATM   18  C   UNL     1       8.097  22.277  56.114  1.00  0.00     0.150 A 
HETATM   19  F   UNL     1       8.038  23.099  57.173  1.00  0.00    -0.203 F 
HETATM   20  C   UNL     1       8.235  20.908  56.327  1.00  0.00     0.045 A 
HETATM   21  C   UNL     1       8.324  20.044  55.233  1.00  0.00     0.003 A 
HETATM   22  C   UNL     1       8.280  20.555  53.934  1.00  0.00     0.003 A 
HETATM   23  C   UNL     1       8.142  21.929  53.725  1.00  0.00     0.040 A 
ENDBRANCH  16  17
ENDBRANCH   4  16
TORSDOF 5
ENDMDL
MODEL 3
REMARK VINA RESULT:      -7.9      6.228      8.174
REMARK  5 active torsions:
REMARK  status: ('A' for Active; 'I' for Inactive)
REMARK    1  A    between atoms: C_2  and  C_3 
REMARK    2  A    between atoms: C_2  and  C_20 
REMARK       I    between atoms: C_3  and  N_4 
REMARK    3  A    between atoms: N_4  and  C_5 
REMARK    4  A    between atoms: C_8  and  O_9 
REMARK    5  A    between atoms: O_9  and  C_10 
ROOT
HETATM    1  C   UNL     1       6.736  28.442  57.662  1.00  0.00     0.052 A 
HETATM    2  C   UNL     1       5.615  28.525  56.839  1.00  0.00     0.149 A 
HETATM    3  N   UNL     1       5.160  27.506  56.062  1.00  0.00    -0.235 NA
HETATM    4  C   UNL     1       5.849  26.347  56.111  1.00  0.00     0.169 A 
HETATM    5  C   UNL     1       6.971  26.159  56.902  1.00  0.00     0.060 A 
HETATM    6  C   UNL     1       7.423  27.226  57.679  1.00  0.00     0.035 A 
ENDROOT
BRANCH   1   7
HETATM    7  N   UNL     1       7.236  29.485  58.472  1.00  0.00    -0.325 N 
HETATM    8  C   UNL     1       8.533  29.975  58.483  1.00  0.00     0.231 C 
HETATM    9  O   UNL     1       9.419  29.594  57.725  1.00  0.00    -0.272 OA
HETATM   10  H   UNL     1       6.556  29.944  59.063  1.00  0.00     0.169 HD
BRANCH   8  11
HETATM   11  C   UNL     1       8.767  31.125  59.488  1.00  0.00     0.046 C 
HETATM   12  C   UNL     1       9.986  31.940  59.009  1.00  0.00     0.026 C 
HETATM   13  C   UNL     1       7.542  32.054  59.568  1.00  0.00     0.026 C 
BRANCH  11  14
HETATM   14  C   UNL     1       9.114  30.544  60.879  1.00  0.00     0.133 C 
HETATM   15 CL   UNL     1       8.673  31.605  62.247  1.00  0.00    -0.129 Cl
ENDBRANCH  11  14
ENDBRANCH   8  11
ENDBRANCH   1   7
BRANCH   4  16
HETATM   16  O   UNL     1       5.439  25.248  55.362  1.00  0.00    -0.289 OA
BRANCH  16  17
HETATM   17  C   UNL     1       6.239  24.893  54.306  1.00  0.00     0.116 A 
HETATM   18  C   UNL     1       6.984  23.720  54.388  1.00  0.00     0.150 A 
HETATM   19  F   UNL     1       6.880  22.925  55.464  1.00  0.00    -0.203 F 
HETATM   20  C   UNL     1       7.854  23.360  53.363  1.00  0.00     0.045 A 
HETATM   21  C   UNL     1       7.990  24.192  52.249  1.00  0.00     0.003 A 
HETATM   22  C   UNL     1       7.261  25.380  52.171  1.00  0.00     0.003 A 
HETATM   23  C   UNL     1       6.390  25.738  53.203  1.00  0.00     0.040 A 
ENDBRANCH  16  17
ENDBRANCH   4  16
TORSDOF 5
ENDMDL
MODEL 4
REMARK VINA RESULT:      -7.8      5.010      7.942
REMARK  5 active torsions:
REMARK  status: ('A' for Active; 'I' for Inactive)
REMARK    1  A    between atoms: C_2  and  C_3 
REMARK    2  A    between atoms: C_2  and  C_20 
REMARK       I    between atoms: C_3  and  N_4 
REMARK    3  A    between atoms: N_4  and  C_5 
REMARK    4  A    between atoms: C_8  and  O_9 
REMARK    5  A    between atoms: O_9  and  C_10 
ROOT
HETATM    1  C   UNL     1       7.231  24.690  55.958  1.00  0.00     0.052 A 
HETATM    2  C   UNL     1       6.911  25.610  54.961  1.00  0.00     0.149 A 
HETATM    3  N   UNL     1       6.843  26.953  55.155  1.00  0.00    -0.235 NA
HETATM    4  C   UNL     1       7.112  27.406  56.398  1.00  0.00     0.169 A 
HETATM    5  C   UNL     1       7.448  26.576  57.455  1.00  0.00     0.060 A 
HETATM    6  C   UNL     1       7.498  25.201  57.231  1.00  0.00     0.035 A 
ENDROOT
BRANCH   1   7
HETATM    7  N   UNL     1       7.301  23.290  55.788  1.00  0.00    -0.325 N 
HETATM    8  C   UNL     1       8.423  22.553  55.446  1.00  0.00     0.231 C 
HETATM    9  O   UNL     1       9.544  23.030  55.304  1.00  0.00    -0.272 OA
HETATM   10  H   UNL     1       6.449  22.783  55.987  1.00  0.00     0.169 HD
BRANCH   8  11
HETATM   11  C   UNL     1       8.173  21.032  55.336  1.00  0.00     0.046 C 
HETATM   12  C   UNL     1       9.527  20.310  55.493  1.00  0.00     0.026 C 
HETATM   13  C   UNL     1       7.213  20.543  56.436  1.00  0.00     0.026 C 
BRANCH  11  14
HETATM   14  C   UNL     1       7.625  20.691  53.930  1.00  0.00     0.133 C 
HETATM   15 CL   UNL     1       8.890  20.368  52.710  1.00  0.00    -0.129 Cl
ENDBRANCH  11  14
ENDBRANCH   8  11
ENDBRANCH   1   7
BRANCH   4  16
HETATM   16  O   UNL     1       7.084  28.769  56.676  1.00  0.00    -0.289 OA
BRANCH  16  17
HETATM   17  C   UNL     1       8.285  29.356  56.985  1.00  0.00     0.116 A 
HETATM   18  C   UNL     1       8.404  30.059  58.181  1.00  0.00     0.150 A 
HETATM   19  F   UNL     1       7.374  30.115  59.040  1.00  0.00    -0.203 F 
HETATM   20  C   UNL     1       9.586  30.721  58.500  1.00  0.00     0.045 A 
HETATM   21  C   UNL     1      10.656  30.691  57.603  1.00  0.00     0.003 A 
HETATM   22  C   UNL     1      10.535  30.006  56.392  1.00  0.00     0.003 A 
HETATM   23  C   UNL     1       9.346  29.344  56.077  1.00  0.00     0.040 A 
ENDBRANCH  16  17
ENDBRANCH   4  16
TORSDOF 5
ENDMDL
MODEL 5
REMARK VINA RESULT:      -7.8      6.887      8.301
REMARK  5 active torsions:
REMARK  status: ('A' for Active; 'I' for Inactive)
REMARK    1  A    between atoms: C_2  and  C_3 
REMARK    2  A    between atoms: C_2  and  C_20 
REMARK       I    between atoms: C_3  and  N_4 
REMARK    3  A    between atoms: N_4  and  C_5 
REMARK    4  A    between atoms: C_8  and  O_9 
REMARK    5  A    between atoms: O_9  and  C_10 
ROOT
HETATM    1  C   UNL     1       7.648  27.976  56.554  1.00  0.00     0.052 A 
HETATM    2  C   UNL     1       6.613  28.725  57.110  1.00  0.00     0.149 A 
HETATM    3  N   UNL     1       6.793  29.879  57.806  1.00  0.00    -0.235 NA
HETATM    4  C   UNL     1       8.062  30.313  57.951  1.00  0.00     0.169 A 
HETATM    5  C   UNL     1       9.160  29.647  57.430  1.00  0.00     0.060 A 
HETATM    6  C   UNL     1       8.947  28.458  56.732  1.00  0.00     0.035 A 
ENDROOT
BRANCH   1   7
HETATM    7  N   UNL     1       7.491  26.771  55.835  1.00  0.00    -0.325 N 
HETATM    8  C   UNL     1       7.383  26.636  54.460  1.00  0.00     0.231 C 
HETATM    9  O   UNL     1       7.475  27.568  53.667  1.00  0.00    -0.272 OA
HETATM   10  H   UNL     1       7.511  25.926  56.390  1.00  0.00     0.169 HD
BRANCH   8  11
HETATM   11  C   UNL     1       7.221  25.177  53.977  1.00  0.00     0.046 C 
HETATM   12  C   UNL     1       7.794  25.077  52.549  1.00  0.00     0.026 C 
HETATM   13  C   UNL     1       7.978  24.199  54.893  1.00  0.00     0.026 C 
BRANCH  11  14
HETATM   14  C   UNL     1       5.718  24.816  53.901  1.00  0.00     0.133 C 
HETATM   15 CL   UNL     1       5.033  24.876  52.252  1.00  0.00    -0.129 Cl
ENDBRANCH  11  14
ENDBRANCH   8  11
ENDBRANCH   1   7
BRANCH   4  16
HETATM   16  O   UNL     1       8.333  31.496  58.632  1.00  0.00    -0.289 OA
BRANCH  16  17
HETATM   17  C   UNL     1       8.229  31.453  60.000  1.00  0.00     0.116 A 
HETATM   18  C   UNL     1       7.224  32.187  60.623  1.00  0.00     0.150 A 
HETATM   19  F   UNL     1       6.339  32.882  59.892  1.00  0.00    -0.203 F 
HETATM   20  C   UNL     1       7.127  32.218  62.011  1.00  0.00     0.045 A 
HETATM   21  C   UNL     1       8.056  31.519  62.784  1.00  0.00     0.003 A 
HETATM   22  C   UNL     1       9.080  30.799  62.164  1.00  0.00     0.003 A 
HETATM   23  C   UNL     1       9.174  30.771  60.771  1.00  0.00     0.040 A 
ENDBRANCH  16  17
ENDBRANCH   4  16
TORSDOF 5
ENDMDL
MODEL 6
REMARK VINA RESULT:      -7.8      7.904      9.701
REMARK  5 active torsions:
REMARK  status: ('A' for Active; 'I' for Inactive)
REMARK    1  A    between atoms: C_2  and  C_3 
REMARK    2  A    between atoms: C_2  and  C_20 
REMARK       I    between atoms: C_3  and  N_4 
REMARK    3  A    between atoms: N_4  and  C_5 
REMARK    4  A    between atoms: C_8  and  O_9 
REMARK    5  A    between atoms: O_9  and  C_10 
ROOT
HETATM    1  C   UNL     1       8.210  28.852  57.342  1.00  0.00     0.052 A 
HETATM    2  C   UNL     1       9.474  29.407  57.528  1.00  0.00     0.149 A 
HETATM    3  N   UNL     1       9.706  30.576  58.182  1.00  0.00    -0.235 NA
HETATM    4  C   UNL     1       8.630  31.221  58.680  1.00  0.00     0.169 A 
HETATM    5  C   UNL     1       7.334  30.750  58.556  1.00  0.00     0.060 A 
HETATM    6  C   UNL     1       7.124  29.555  57.869  1.00  0.00     0.035 A 
ENDROOT
BRANCH   1   7
HETATM    7  N   UNL     1       7.939  27.646  56.660  1.00  0.00    -0.325 N 
HETATM    8  C   UNL     1       7.838  26.382  57.221  1.00  0.00     0.231 C 
HETATM    9  O   UNL     1       7.912  26.156  58.424  1.00  0.00    -0.272 OA
HETATM   10  H   UNL     1       7.753  27.736  55.670  1.00  0.00     0.169 HD
BRANCH   8  11
HETATM   11  C   UNL     1       7.531  25.260  56.204  1.00  0.00     0.046 C 
HETATM   12  C   UNL     1       7.537  25.878  54.790  1.00  0.00     0.026 C 
HETATM   13  C   UNL     1       8.588  24.144  56.269  1.00  0.00     0.026 C 
BRANCH  11  14
HETATM   14  C   UNL     1       6.113  24.696  56.458  1.00  0.00     0.133 C 
HETATM   15 CL   UNL     1       4.929  25.915  57.012  1.00  0.00    -0.129 Cl
ENDBRANCH  11  14
ENDBRANCH   8  11
ENDBRANCH   1   7
BRANCH   4  16
HETATM   16  O   UNL     1       8.782  32.414  59.381  1.00  0.00    -0.289 OA
BRANCH  16  17
HETATM   17  C   UNL     1       8.176  32.485  60.610  1.00  0.00     0.116 A 
HETATM   18  C   UNL     1       8.883  32.070  61.735  1.00  0.00     0.150 A 
HETATM   19  F   UNL     1      10.155  31.657  61.623  1.00  0.00    -0.203 F 
HETATM   20  C   UNL     1       8.279  32.069  62.990  1.00  0.00     0.045 A 
HETATM   21  C   UNL     1       6.949  32.472  63.116  1.00  0.00     0.003 A 
HETATM   22  C   UNL     1       6.228  32.869  61.987  1.00  0.00     0.003 A 
HETATM   23  C   UNL     1       6.838  32.868  60.730  1.00  0.00     0.040 A 
ENDBRANCH  16  17
ENDBRANCH   4  16
TORSDOF 5
ENDMDL
MODEL 7
REMARK VINA RESULT:      -7.8      7.107      8.612
REMARK  5 active torsions:
REMARK  status: ('A' for Active; 'I' for Inactive)
REMARK    1  A    between atoms: C_2  and  C_3 
REMARK    2  A    between atoms: C_2  and  C_20 
REMARK       I    between atoms: C_3  and  N_4 
REMARK    3  A    between atoms: N_4  and  C_5 
REMARK    4  A    between atoms: C_8  and  O_9 
REMARK    5  A    between atoms: O_9  and  C_10 
ROOT
HETATM    1  C   UNL     1       7.208  28.099  56.754  1.00  0.00     0.052 A 
HETATM    2  C   UNL     1       8.373  28.456  57.429  1.00  0.00     0.149 A 
HETATM    3  N   UNL     1       8.579  29.668  58.009  1.00  0.00    -0.235 NA
HETATM    4  C   UNL     1       7.576  30.567  57.919  1.00  0.00     0.169 A 
HETATM    5  C   UNL     1       6.376  30.308  57.278  1.00  0.00     0.060 A 
HETATM    6  C   UNL     1       6.197  29.060  56.680  1.00  0.00     0.035 A 
ENDROOT
BRANCH   1   7
HETATM    7  N   UNL     1       6.970  26.852  56.136  1.00  0.00    -0.325 N 
HETATM    8  C   UNL     1       7.189  26.534  54.804  1.00  0.00     0.231 C 
HETATM    9  O   UNL     1       7.689  27.299  53.987  1.00  0.00    -0.272 OA
HETATM   10  H   UNL     1       6.655  26.113  56.749  1.00  0.00     0.169 HD
BRANCH   8  11
HETATM   11  C   UNL     1       6.826  25.078  54.433  1.00  0.00     0.046 C 
HETATM   12  C   UNL     1       6.820  24.240  55.728  1.00  0.00     0.026 C 
HETATM   13  C   UNL     1       5.436  24.999  53.777  1.00  0.00     0.026 C 
BRANCH  11  14
HETATM   14  C   UNL     1       7.913  24.489  53.503  1.00  0.00     0.133 C 
HETATM   15 CL   UNL     1       7.604  22.805  52.991  1.00  0.00    -0.129 Cl
ENDBRANCH  11  14
ENDBRANCH   8  11
ENDBRANCH   1   7
BRANCH   4  16
HETATM   16  O   UNL     1       7.698  31.824  58.502  1.00  0.00    -0.289 OA
BRANCH  16  17
HETATM   17  C   UNL     1       7.971  31.853  59.846  1.00  0.00     0.116 A 
HETATM   18  C   UNL     1       9.295  31.960  60.264  1.00  0.00     0.150 A 
HETATM   19  F   UNL     1      10.281  32.085  59.363  1.00  0.00    -0.203 F 
HETATM   20  C   UNL     1       9.615  31.929  61.618  1.00  0.00     0.045 A 
HETATM   21  C   UNL     1       8.600  31.774  62.564  1.00  0.00     0.003 A 
HETATM   22  C   UNL     1       7.272  31.645  62.150  1.00  0.00     0.003 A 
HETATM   23  C   UNL     1       6.955  31.676  60.790  1.00  0.00     0.040 A 
ENDBRANCH  16  17
ENDBRANCH   4  16
TORSDOF 5
ENDMDL
MODEL 8
REMARK VINA RESULT:      -7.7      6.570      8.330
REMARK  5 active torsions:
REMARK  status: ('A' for Active; 'I' for Inactive)
REMARK    1  A    between atoms: C_2  and  C_3 
REMARK    2  A    between atoms: C_2  and  C_20 
REMARK       I    between atoms: C_3  and  N_4 
REMARK    3  A    between atoms: N_4  and  C_5 
REMARK    4  A    between atoms: C_8  and  O_9 
REMARK    5  A    between atoms: O_9  and  C_10 
ROOT
HETATM    1  C   UNL     1       8.022  28.797  57.188  1.00  0.00     0.052 A 
HETATM    2  C   UNL     1       8.259  28.936  55.822  1.00  0.00     0.149 A 
HETATM    3  N   UNL     1       7.767  28.098  54.872  1.00  0.00    -0.235 NA
HETATM    4  C   UNL     1       6.998  27.075  55.299  1.00  0.00     0.169 A 
HETATM    5  C   UNL     1       6.696  26.853  56.633  1.00  0.00     0.060 A 
HETATM    6  C   UNL     1       7.225  27.721  57.587  1.00  0.00     0.035 A 
ENDROOT
BRANCH   1   7
HETATM    7  N   UNL     1       8.527  29.645  58.197  1.00  0.00    -0.325 N 
HETATM    8  C   UNL     1       7.859  30.698  58.803  1.00  0.00     0.231 C 
HETATM    9  O   UNL     1       6.691  30.994  58.576  1.00  0.00    -0.272 OA
HETATM   10  H   UNL     1       9.452  29.419  58.536  1.00  0.00     0.169 HD
BRANCH   8  11
HETATM   11  C   UNL     1       8.687  31.440  59.877  1.00  0.00     0.046 C 
HETATM   12  C   UNL     1       9.995  31.928  59.221  1.00  0.00     0.026 C 
HETATM   13  C   UNL     1       7.921  32.653  60.434  1.00  0.00     0.026 C 
BRANCH  11  14
HETATM   14  C   UNL     1       9.073  30.459  61.010  1.00  0.00     0.133 C 
HETATM   15 CL   UNL     1       8.427  30.905  62.615  1.00  0.00    -0.129 Cl
ENDBRANCH  11  14
ENDBRANCH   8  11
ENDBRANCH   1   7
BRANCH   4  16
HETATM   16  O   UNL     1       6.438  26.182  54.390  1.00  0.00    -0.289 OA
BRANCH  16  17
HETATM   17  C   UNL     1       7.039  24.953  54.289  1.00  0.00     0.116 A 
HETATM   18  C   UNL     1       7.699  24.620  53.109  1.00  0.00     0.150 A 
HETATM   19  F   UNL     1       7.789  25.509  52.108  1.00  0.00    -0.203 F 
HETATM   20  C   UNL     1       8.266  23.359  52.946  1.00  0.00     0.045 A 
HETATM   21  C   UNL     1       8.157  22.416  53.970  1.00  0.00     0.003 A 
HETATM   22  C   UNL     1       7.477  22.737  55.147  1.00  0.00     0.003 A 
HETATM   23  C   UNL     1       6.909  24.004  55.306  1.00  0.00     0.040 A 
ENDBRANCH  16  17
ENDBRANCH   4  16
TORSDOF 5
ENDMDL
MODEL 9
REMARK VINA RESULT:      -7.6      1.844      2.169
REMARK  5 active torsions:
REMARK  status: ('A' for Active; 'I' for Inactive)
REMARK    1  A    between atoms: C_2  and  C_3 
REMARK    2  A    between atoms: C_2  and  C_20 
REMARK       I    between atoms: C_3  and  N_4 
REMARK    3  A    between atoms: N_4  and  C_5 
REMARK    4  A    between atoms: C_8  and  O_9 
REMARK    5  A    between atoms: O_9  and  C_10 
ROOT
HETATM    1  C   UNL     1       5.123  26.650  52.396  1.00  0.00     0.052 A 
HETATM    2  C   UNL     1       4.769  25.438  52.983  1.00  0.00     0.149 A 
HETATM    3  N   UNL     1       5.590  24.708  53.783  1.00  0.00    -0.235 NA
HETATM    4  C   UNL     1       6.821  25.211  54.016  1.00  0.00     0.169 A 
HETATM    5  C   UNL     1       7.267  26.410  53.486  1.00  0.00     0.060 A 
HETATM    6  C   UNL     1       6.407  27.132  52.658  1.00  0.00     0.035 A 
ENDROOT
BRANCH   1   7
HETATM    7  N   UNL     1       4.294  27.424  51.554  1.00  0.00    -0.325 N 
HETATM    8  C   UNL     1       4.281  27.413  50.168  1.00  0.00     0.231 C 
HETATM    9  O   UNL     1       4.964  26.663  49.479  1.00  0.00    -0.272 OA
HETATM   10  H   UNL     1       3.613  28.005  52.025  1.00  0.00     0.169 HD
BRANCH   8  11
HETATM   11  C   UNL     1       3.255  28.381  49.536  1.00  0.00     0.046 C 
HETATM   12  C   UNL     1       4.028  29.424  48.704  1.00  0.00     0.026 C 
HETATM   13  C   UNL     1       2.275  27.631  48.616  1.00  0.00     0.026 C 
BRANCH  11  14
HETATM   14  C   UNL     1       2.499  29.142  50.650  1.00  0.00     0.133 C 
HETATM   15 CL   UNL     1       1.103  30.093  50.068  1.00  0.00    -0.129 Cl
ENDBRANCH  11  14
ENDBRANCH   8  11
ENDBRANCH   1   7
BRANCH   4  16
HETATM   16  O   UNL     1       7.717  24.537  54.840  1.00  0.00    -0.289 OA
BRANCH  16  17
HETATM   17  C   UNL     1       7.853  23.188  54.625  1.00  0.00     0.116 A 
HETATM   18  C   UNL     1       8.145  22.736  53.341  1.00  0.00     0.150 A 
HETATM   19  F   UNL     1       8.341  23.610  52.342  1.00  0.00    -0.203 F 
HETATM   20  C   UNL     1       8.228  21.373  53.073  1.00  0.00     0.045 A 
HETATM   21  C   UNL     1       8.000  20.452  54.098  1.00  0.00     0.003 A 
HETATM   22  C   UNL     1       7.686  20.900  55.383  1.00  0.00     0.003 A 
HETATM   23  C   UNL     1       7.603  22.269  55.648  1.00  0.00     0.040 A 
ENDBRANCH  16  17
ENDBRANCH   4  16
TORSDOF 5
ENDMDL
MODEL 10
REMARK VINA RESULT:      -7.5      6.936      8.790
REMARK  5 active torsions:
REMARK  status: ('A' for Active; 'I' for Inactive)
REMARK    1  A    between atoms: C_2  and  C_3 
REMARK    2  A    between atoms: C_2  and  C_20 
REMARK       I    between atoms: C_3  and  N_4 
REMARK    3  A    between atoms: N_4  and  C_5 
REMARK    4  A    between atoms: C_8  and  O_9 
REMARK    5  A    between atoms: O_9  and  C_10 
ROOT
HETATM    1  C   UNL     1       6.430  29.676  57.362  1.00  0.00     0.052 A 
HETATM    2  C   UNL     1       7.281  29.344  56.310  1.00  0.00     0.149 A 
HETATM    3  N   UNL     1       6.963  28.473  55.316  1.00  0.00    -0.235 NA
HETATM    4  C   UNL     1       5.739  27.909  55.367  1.00  0.00     0.169 A 
HETATM    5  C   UNL     1       4.817  28.177  56.366  1.00  0.00     0.060 A 
HETATM    6  C   UNL     1       5.174  29.064  57.380  1.00  0.00     0.035 A 
ENDROOT
BRANCH   1   7
HETATM    7  N   UNL     1       6.737  30.569  58.412  1.00  0.00    -0.325 N 
HETATM    8  C   UNL     1       7.773  30.450  59.324  1.00  0.00     0.231 C 
HETATM    9  O   UNL     1       8.616  29.560  59.296  1.00  0.00    -0.272 OA
HETATM   10  H   UNL     1       6.163  31.400  58.459  1.00  0.00     0.169 HD
BRANCH   8  11
HETATM   11  C   UNL     1       7.843  31.597  60.357  1.00  0.00     0.046 C 
HETATM   12  C   UNL     1       9.101  32.438  60.057  1.00  0.00     0.026 C 
HETATM   13  C   UNL     1       6.601  32.502  60.272  1.00  0.00     0.026 C 
BRANCH  11  14
HETATM   14  C   UNL     1       8.005  31.011  61.780  1.00  0.00     0.133 C 
HETATM   15 CL   UNL     1       8.172  32.242  63.064  1.00  0.00    -0.129 Cl
ENDBRANCH  11  14
ENDBRANCH   8  11
ENDBRANCH   1   7
BRANCH   4  16
HETATM   16  O   UNL     1       5.326  27.021  54.378  1.00  0.00    -0.289 OA
BRANCH  16  17
HETATM   17  C   UNL     1       6.193  26.004  54.066  1.00  0.00     0.116 A 
HETATM   18  C   UNL     1       6.671  25.902  52.763  1.00  0.00     0.150 A 
HETATM   19  F   UNL     1       6.328  26.814  51.841  1.00  0.00    -0.203 F 
HETATM   20  C   UNL     1       7.503  24.848  52.394  1.00  0.00     0.045 A 
HETATM   21  C   UNL     1       7.846  23.877  53.338  1.00  0.00     0.003 A 
HETATM   22  C   UNL     1       7.352  23.964  54.641  1.00  0.00     0.003 A 
HETATM   23  C   UNL     1       6.518  25.023  55.007  1.00  0.00     0.040 A 
ENDBRANCH  16  17
ENDBRANCH   4  16
TORSDOF 5
ENDMDL
