MODEL 1
REMARK VINA RESULT:      -9.3      0.000      0.000
REMARK  7 active torsions:
REMARK  status: ('A' for Active; 'I' for Inactive)
REMARK    1  A    between atoms: O_2  and  C_3 
REMARK    2  A    between atoms: C_5  and  C_6 
REMARK    3  A    between atoms: C_6  and  N_7 
REMARK    4  A    between atoms: C_6  and  C_13 
REMARK    5  A    between atoms: C_13  and  N_14 
REMARK       I    between atoms: N_14  and  C_15 
REMARK       I    between atoms: C_15  and  N_16 
REMARK    6  A    between atoms: N_16  and  C_17 
REMARK    7  A    between atoms: C_18  and  O_19 
ROOT
HETATM    1  N   UNL     1       7.046  27.554  56.808  1.00  0.00    -0.341 N 
HETATM    2  C   UNL     1       7.348  28.887  56.930  1.00  0.00     0.316 C 
HETATM    3  N   UNL     1       6.681  29.477  57.956  1.00  0.00    -0.332 N 
HETATM    4  O   UNL     1       8.214  29.432  56.261  1.00  0.00    -0.247 OA
HETATM    5  H   UNL     1       6.121  27.303  57.134  1.00  0.00     0.164 HD
HETATM    6  H   UNL     1       5.724  29.186  58.112  1.00  0.00     0.165 HD
ENDROOT
BRANCH   1   7
HETATM    7  C   UNL     1       7.600  26.779  55.706  1.00  0.00     0.162 C 
BRANCH   7   8
HETATM    8  C   UNL     1       6.582  25.957  54.844  1.00  0.00     0.238 C 
BRANCH   8   9
HETATM    9  C   UNL     1       7.108  24.577  54.466  1.00  0.00    -0.023 A 
HETATM   10  C   UNL     1       7.285  23.620  55.483  1.00  0.00     0.046 A 
HETATM   11  C   UNL     1       7.769  22.338  55.205  1.00  0.00     0.068 A 
HETATM   12  C   UNL     1       8.057  21.987  53.890  1.00  0.00     0.037 A 
HETATM   13  C   UNL     1       7.874  22.918  52.866  1.00  0.00     0.003 A 
HETATM   14  C   UNL     1       7.405  24.203  53.148  1.00  0.00     0.009 A 
BRANCH  11  15
HETATM   15  O   UNL     1       7.904  21.533  56.301  1.00  0.00    -0.356 OA
HETATM   16  C   UNL     1       8.798  20.431  56.179  1.00  0.00     0.210 C 
ENDBRANCH  11  15
ENDBRANCH   8   9
BRANCH   8  17
HETATM   17  N   UNL     1       6.073  26.687  53.594  1.00  0.00    -0.061 N 
HETATM   18  H   UNL     1       6.511  26.169  52.821  1.00  0.00     0.280 HD
HETATM   19  C   UNL     1       6.462  28.128  53.404  1.00  0.00     0.236 C 
HETATM   20  C   UNL     1       5.170  28.894  53.595  1.00  0.00     0.029 C 
HETATM   21  C   UNL     1       4.136  27.982  52.971  1.00  0.00     0.029 C 
HETATM   22  C   UNL     1       4.578  26.581  53.357  1.00  0.00     0.236 C 
ENDBRANCH   8  17
ENDBRANCH   7   8
ENDBRANCH   1   7
BRANCH   3  23
HETATM   23  C   UNL     1       6.893  30.887  58.233  1.00  0.00     0.149 C 
HETATM   24  C   UNL     1       5.567  31.674  58.459  1.00  0.00     0.149 C 
HETATM   25  C   UNL     1       5.870  32.747  59.521  1.00  0.00     0.073 C 
HETATM   26  C   UNL     1       7.033  32.149  60.257  1.00  0.00    -0.047 A 
HETATM   27  C   UNL     1       7.614  31.102  59.534  1.00  0.00    -0.026 A 
HETATM   28  C   UNL     1       7.561  32.561  61.470  1.00  0.00     0.008 A 
HETATM   29  C   UNL     1       8.743  30.452  60.011  1.00  0.00     0.010 A 
HETATM   30  C   UNL     1       9.275  30.852  61.239  1.00  0.00     0.001 A 
HETATM   31  C   UNL     1       8.687  31.900  61.962  1.00  0.00     0.001 A 
BRANCH  24  32
HETATM   32  O   UNL     1       4.531  30.800  58.951  1.00  0.00    -0.393 OA
HETATM   33  H   UNL     1       3.845  30.774  58.261  1.00  0.00     0.210 HD
ENDBRANCH  24  32
ENDBRANCH   3  23
TORSDOF 7
ENDMDL
MODEL 2
REMARK VINA RESULT:      -9.2      1.064      1.557
REMARK  7 active torsions:
REMARK  status: ('A' for Active; 'I' for Inactive)
REMARK    1  A    between atoms: O_2  and  C_3 
REMARK    2  A    between atoms: C_5  and  C_6 
REMARK    3  A    between atoms: C_6  and  N_7 
REMARK    4  A    between atoms: C_6  and  C_13 
REMARK    5  A    between atoms: C_13  and  N_14 
REMARK       I    between atoms: N_14  and  C_15 
REMARK       I    between atoms: C_15  and  N_16 
REMARK    6  A    between atoms: N_16  and  C_17 
REMARK    7  A    between atoms: C_18  and  O_19 
ROOT
HETATM    1  N   UNL     1       7.241  27.353  57.431  1.00  0.00    -0.341 N 
HETATM    2  C   UNL     1       7.597  28.679  57.454  1.00  0.00     0.316 C 
HETATM    3  N   UNL     1       6.815  29.410  58.290  1.00  0.00    -0.332 N 
HETATM    4  O   UNL     1       8.586  29.107  56.875  1.00  0.00    -0.247 OA
HETATM    5  H   UNL     1       6.264  27.179  57.631  1.00  0.00     0.164 HD
HETATM    6  H   UNL     1       5.831  29.177  58.322  1.00  0.00     0.165 HD
ENDROOT
BRANCH   1   7
HETATM    7  C   UNL     1       7.913  26.434  56.521  1.00  0.00     0.162 C 
BRANCH   7   8
HETATM    8  C   UNL     1       6.994  25.507  55.655  1.00  0.00     0.238 C 
BRANCH   8   9
HETATM    9  C   UNL     1       7.487  24.065  55.607  1.00  0.00    -0.023 A 
HETATM   10  C   UNL     1       7.441  23.376  54.381  1.00  0.00     0.046 A 
HETATM   11  C   UNL     1       7.871  22.051  54.271  1.00  0.00     0.068 A 
HETATM   12  C   UNL     1       8.385  21.403  55.391  1.00  0.00     0.037 A 
HETATM   13  C   UNL     1       8.451  22.076  56.613  1.00  0.00     0.003 A 
HETATM   14  C   UNL     1       8.005  23.395  56.724  1.00  0.00     0.009 A 
BRANCH  11  15
HETATM   15  O   UNL     1       7.744  21.515  53.020  1.00  0.00    -0.356 OA
HETATM   16  C   UNL     1       8.420  20.285  52.780  1.00  0.00     0.210 C 
ENDBRANCH  11  15
ENDBRANCH   8   9
BRANCH   8  17
HETATM   17  N   UNL     1       6.733  26.022  54.233  1.00  0.00    -0.061 N 
HETATM   18  H   UNL     1       7.003  25.227  53.639  1.00  0.00     0.280 HD
HETATM   19  C   UNL     1       7.533  27.199  53.744  1.00  0.00     0.236 C 
HETATM   20  C   UNL     1       6.525  28.324  53.649  1.00  0.00     0.029 C 
HETATM   21  C   UNL     1       5.270  27.622  53.175  1.00  0.00     0.029 C 
HETATM   22  C   UNL     1       5.275  26.293  53.910  1.00  0.00     0.236 C 
ENDBRANCH   8  17
ENDBRANCH   7   8
ENDBRANCH   1   7
BRANCH   3  23
HETATM   23  C   UNL     1       7.063  30.833  58.442  1.00  0.00     0.149 C 
HETATM   24  C   UNL     1       5.757  31.681  58.484  1.00  0.00     0.149 C 
HETATM   25  C   UNL     1       6.022  32.847  59.455  1.00  0.00     0.073 C 
HETATM   26  C   UNL     1       7.100  32.289  60.336  1.00  0.00    -0.047 A 
HETATM   27  C   UNL     1       7.692  31.156  59.768  1.00  0.00    -0.026 A 
HETATM   28  C   UNL     1       7.552  32.805  61.540  1.00  0.00     0.008 A 
HETATM   29  C   UNL     1       8.755  30.521  60.395  1.00  0.00     0.010 A 
HETATM   30  C   UNL     1       9.208  31.026  61.615  1.00  0.00     0.001 A 
HETATM   31  C   UNL     1       8.610  32.161  62.183  1.00  0.00     0.001 A 
BRANCH  24  32
HETATM   32  O   UNL     1       4.652  30.897  58.976  1.00  0.00    -0.393 OA
HETATM   33  H   UNL     1       4.784  29.994  58.636  1.00  0.00     0.210 HD
ENDBRANCH  24  32
ENDBRANCH   3  23
TORSDOF 7
ENDMDL
MODEL 3
REMARK VINA RESULT:      -9.1      2.465      8.474
REMARK  7 active torsions:
REMARK  status: ('A' for Active; 'I' for Inactive)
REMARK    1  A    between atoms: O_2  and  C_3 
REMARK    2  A    between atoms: C_5  and  C_6 
REMARK    3  A    between atoms: C_6  and  N_7 
REMARK    4  A    between atoms: C_6  and  C_13 
REMARK    5  A    between atoms: C_13  and  N_14 
REMARK       I    between atoms: N_14  and  C_15 
REMARK       I    between atoms: C_15  and  N_16 
REMARK    6  A    between atoms: N_16  and  C_17 
REMARK    7  A    between atoms: C_18  and  O_19 
ROOT
HETATM    1  N   UNL     1       7.125  26.888  56.900  1.00  0.00    -0.341 N 
HETATM    2  C   UNL     1       6.508  25.930  56.136  1.00  0.00     0.316 C 
HETATM    3  N   UNL     1       7.373  24.974  55.706  1.00  0.00    -0.332 N 
HETATM    4  O   UNL     1       5.296  25.891  55.977  1.00  0.00    -0.247 OA
HETATM    5  H   UNL     1       8.104  27.030  56.682  1.00  0.00     0.164 HD
HETATM    6  H   UNL     1       8.299  25.279  55.437  1.00  0.00     0.165 HD
ENDROOT
BRANCH   1   7
HETATM    7  C   UNL     1       6.370  28.041  57.374  1.00  0.00     0.162 C 
BRANCH   7   8
HETATM    8  C   UNL     1       6.716  29.423  56.723  1.00  0.00     0.238 C 
BRANCH   8   9
HETATM    9  C   UNL     1       8.146  29.869  57.010  1.00  0.00    -0.023 A 
HETATM   10  C   UNL     1       8.379  30.726  58.101  1.00  0.00     0.046 A 
HETATM   11  C   UNL     1       9.665  31.177  58.415  1.00  0.00     0.068 A 
HETATM   12  C   UNL     1      10.746  30.746  57.651  1.00  0.00     0.037 A 
HETATM   13  C   UNL     1      10.535  29.883  56.573  1.00  0.00     0.003 A 
HETATM   14  C   UNL     1       9.248  29.448  56.252  1.00  0.00     0.009 A 
BRANCH  11  15
HETATM   15  O   UNL     1       9.724  32.019  59.489  1.00  0.00    -0.356 OA
HETATM   16  C   UNL     1       8.487  32.350  60.112  1.00  0.00     0.210 C 
ENDBRANCH  11  15
ENDBRANCH   8   9
BRANCH   8  17
HETATM   17  N   UNL     1       5.734  30.550  57.065  1.00  0.00    -0.061 N 
HETATM   18  H   UNL     1       6.302  31.198  57.626  1.00  0.00     0.280 HD
HETATM   19  C   UNL     1       4.531  30.216  57.905  1.00  0.00     0.236 C 
HETATM   20  C   UNL     1       3.361  30.351  56.955  1.00  0.00     0.029 C 
HETATM   21  C   UNL     1       3.757  31.527  56.088  1.00  0.00     0.029 C 
HETATM   22  C   UNL     1       5.251  31.360  55.875  1.00  0.00     0.236 C 
ENDBRANCH   8  17
ENDBRANCH   7   8
ENDBRANCH   1   7
BRANCH   3  23
HETATM   23  C   UNL     1       6.882  23.876  54.893  1.00  0.00     0.149 C 
HETATM   24  C   UNL     1       7.124  24.087  53.368  1.00  0.00     0.149 C 
HETATM   25  C   UNL     1       7.410  22.695  52.773  1.00  0.00     0.073 C 
HETATM   26  C   UNL     1       7.928  21.940  53.961  1.00  0.00    -0.047 A 
HETATM   27  C   UNL     1       7.631  22.601  55.158  1.00  0.00    -0.026 A 
HETATM   28  C   UNL     1       8.574  20.715  53.961  1.00  0.00     0.008 A 
HETATM   29  C   UNL     1       7.970  22.039  56.381  1.00  0.00     0.010 A 
HETATM   30  C   UNL     1       8.632  20.809  56.390  1.00  0.00     0.001 A 
HETATM   31  C   UNL     1       8.931  20.153  55.188  1.00  0.00     0.001 A 
BRANCH  24  32
HETATM   32  O   UNL     1       8.264  24.941  53.144  1.00  0.00    -0.393 OA
HETATM   33  H   UNL     1       8.909  24.412  52.643  1.00  0.00     0.210 HD
ENDBRANCH  24  32
ENDBRANCH   3  23
TORSDOF 7
ENDMDL
MODEL 4
REMARK VINA RESULT:      -8.9      3.969      7.617
REMARK  7 active torsions:
REMARK  status: ('A' for Active; 'I' for Inactive)
REMARK    1  A    between atoms: O_2  and  C_3 
REMARK    2  A    between atoms: C_5  and  C_6 
REMARK    3  A    between atoms: C_6  and  N_7 
REMARK    4  A    between atoms: C_6  and  C_13 
REMARK    5  A    between atoms: C_13  and  N_14 
REMARK       I    between atoms: N_14  and  C_15 
REMARK       I    between atoms: C_15  and  N_16 
REMARK    6  A    between atoms: N_16  and  C_17 
REMARK    7  A    between atoms: C_18  and  O_19 
ROOT
HETATM    1  N   UNL     1       4.451  26.329  52.859  1.00  0.00    -0.341 N 
HETATM    2  C   UNL     1       4.815  26.421  51.539  1.00  0.00     0.316 C 
HETATM    3  N   UNL     1       4.238  27.482  50.916  1.00  0.00    -0.332 N 
HETATM    4  O   UNL     1       5.659  25.695  51.034  1.00  0.00    -0.247 OA
HETATM    5  H   UNL     1       3.539  26.714  53.069  1.00  0.00     0.164 HD
HETATM    6  H   UNL     1       3.283  27.699  51.166  1.00  0.00     0.165 HD
ENDROOT
BRANCH   1   7
HETATM    7  C   UNL     1       4.903  25.200  53.662  1.00  0.00     0.162 C 
BRANCH   7   8
HETATM    8  C   UNL     1       6.373  25.264  54.199  1.00  0.00     0.238 C 
BRANCH   8   9
HETATM    9  C   UNL     1       7.093  23.923  54.109  1.00  0.00    -0.023 A 
HETATM   10  C   UNL     1       7.431  23.257  55.302  1.00  0.00     0.046 A 
HETATM   11  C   UNL     1       8.096  22.028  55.291  1.00  0.00     0.068 A 
HETATM   12  C   UNL     1       8.408  21.431  54.072  1.00  0.00     0.037 A 
HETATM   13  C   UNL     1       8.068  22.070  52.878  1.00  0.00     0.003 A 
HETATM   14  C   UNL     1       7.418  23.306  52.893  1.00  0.00     0.009 A 
BRANCH  11  15
HETATM   15  O   UNL     1       8.371  21.520  56.528  1.00  0.00    -0.356 OA
HETATM   16  C   UNL     1       9.060  20.274  56.570  1.00  0.00     0.210 C 
ENDBRANCH  11  15
ENDBRANCH   8   9
BRANCH   8  17
HETATM   17  N   UNL     1       6.508  25.842  55.613  1.00  0.00    -0.061 N 
HETATM   18  H   UNL     1       7.105  25.156  56.094  1.00  0.00     0.280 HD
HETATM   19  C   UNL     1       5.265  25.974  56.450  1.00  0.00     0.236 C 
HETATM   20  C   UNL     1       5.039  27.467  56.553  1.00  0.00     0.029 C 
HETATM   21  C   UNL     1       6.444  28.021  56.645  1.00  0.00     0.029 C 
HETATM   22  C   UNL     1       7.258  27.159  55.696  1.00  0.00     0.236 C 
ENDBRANCH   8  17
ENDBRANCH   7   8
ENDBRANCH   1   7
BRANCH   3  23
HETATM   23  C   UNL     1       4.526  27.734  49.515  1.00  0.00     0.149 C 
HETATM   24  C   UNL     1       3.295  27.507  48.587  1.00  0.00     0.149 C 
HETATM   25  C   UNL     1       3.397  28.552  47.459  1.00  0.00     0.073 C 
HETATM   26  C   UNL     1       4.213  29.635  48.101  1.00  0.00    -0.047 A 
HETATM   27  C   UNL     1       4.852  29.178  49.258  1.00  0.00    -0.026 A 
HETATM   28  C   UNL     1       4.406  30.926  47.639  1.00  0.00     0.008 A 
HETATM   29  C   UNL     1       5.707  30.008  49.972  1.00  0.00     0.010 A 
HETATM   30  C   UNL     1       5.898  31.316  49.520  1.00  0.00     0.001 A 
HETATM   31  C   UNL     1       5.251  31.770  48.361  1.00  0.00     0.001 A 
BRANCH  24  32
HETATM   32  O   UNL     1       2.064  27.709  49.309  1.00  0.00    -0.393 OA
HETATM   33  H   UNL     1       1.457  28.161  48.697  1.00  0.00     0.210 HD
ENDBRANCH  24  32
ENDBRANCH   3  23
TORSDOF 7
ENDMDL
MODEL 5
REMARK VINA RESULT:      -8.8      1.616      2.474
REMARK  7 active torsions:
REMARK  status: ('A' for Active; 'I' for Inactive)
REMARK    1  A    between atoms: O_2  and  C_3 
REMARK    2  A    between atoms: C_5  and  C_6 
REMARK    3  A    between atoms: C_6  and  N_7 
REMARK    4  A    between atoms: C_6  and  C_13 
REMARK    5  A    between atoms: C_13  and  N_14 
REMARK       I    between atoms: N_14  and  C_15 
REMARK       I    between atoms: C_15  and  N_16 
REMARK    6  A    between atoms: N_16  and  C_17 
REMARK    7  A    between atoms: C_18  and  O_19 
ROOT
HETATM    1  N   UNL     1       7.905  29.458  55.741  1.00  0.00    -0.341 N 
HETATM    2  C   UNL     1       8.174  29.354  57.083  1.00  0.00     0.316 C 
HETATM    3  N   UNL     1       8.095  30.551  57.721  1.00  0.00    -0.332 N 
HETATM    4  O   UNL     1       8.340  28.279  57.643  1.00  0.00    -0.247 OA
HETATM    5  H   UNL     1       8.130  30.359  55.338  1.00  0.00     0.164 HD
HETATM    6  H   UNL     1       8.442  31.361  57.224  1.00  0.00     0.165 HD
ENDROOT
BRANCH   1   7
HETATM    7  C   UNL     1       8.030  28.288  54.881  1.00  0.00     0.162 C 
BRANCH   7   8
HETATM    8  C   UNL     1       7.047  27.102  55.161  1.00  0.00     0.238 C 
BRANCH   8   9
HETATM    9  C   UNL     1       7.372  25.859  54.340  1.00  0.00    -0.023 A 
HETATM   10  C   UNL     1       7.330  24.603  54.972  1.00  0.00     0.046 A 
HETATM   11  C   UNL     1       7.623  23.425  54.278  1.00  0.00     0.068 A 
HETATM   12  C   UNL     1       7.935  23.489  52.923  1.00  0.00     0.037 A 
HETATM   13  C   UNL     1       7.967  24.726  52.276  1.00  0.00     0.003 A 
HETATM   14  C   UNL     1       7.690  25.903  52.976  1.00  0.00     0.009 A 
BRANCH  11  15
HETATM   15  O   UNL     1       7.560  22.289  55.036  1.00  0.00    -0.356 OA
HETATM   16  C   UNL     1       8.247  22.313  56.283  1.00  0.00     0.210 C 
ENDBRANCH  11  15
ENDBRANCH   8   9
BRANCH   8  17
HETATM   17  N   UNL     1       5.562  27.459  55.012  1.00  0.00    -0.061 N 
HETATM   18  H   UNL     1       5.135  26.575  54.707  1.00  0.00     0.280 HD
HETATM   19  C   UNL     1       5.177  28.486  53.983  1.00  0.00     0.236 C 
HETATM   20  C   UNL     1       4.724  29.680  54.795  1.00  0.00     0.029 C 
HETATM   21  C   UNL     1       4.021  29.045  55.976  1.00  0.00     0.029 C 
HETATM   22  C   UNL     1       4.859  27.823  56.308  1.00  0.00     0.236 C 
ENDBRANCH   8  17
ENDBRANCH   7   8
ENDBRANCH   1   7
BRANCH   3  23
HETATM   23  C   UNL     1       8.341  30.620  59.151  1.00  0.00     0.149 C 
HETATM   24  C   UNL     1       9.726  31.239  59.506  1.00  0.00     0.149 C 
HETATM   25  C   UNL     1       9.529  32.033  60.811  1.00  0.00     0.073 C 
HETATM   26  C   UNL     1       8.064  32.352  60.772  1.00  0.00    -0.047 A 
HETATM   27  C   UNL     1       7.390  31.557  59.840  1.00  0.00    -0.026 A 
HETATM   28  C   UNL     1       7.381  33.260  61.566  1.00  0.00     0.008 A 
HETATM   29  C   UNL     1       6.013  31.651  59.691  1.00  0.00     0.010 A 
HETATM   30  C   UNL     1       5.318  32.572  60.478  1.00  0.00     0.001 A 
HETATM   31  C   UNL     1       5.999  33.370  61.409  1.00  0.00     0.001 A 
BRANCH  24  32
HETATM   32  O   UNL     1      10.167  32.136  58.467  1.00  0.00    -0.393 OA
HETATM   33  H   UNL     1      10.507  32.930  58.916  1.00  0.00     0.210 HD
ENDBRANCH  24  32
ENDBRANCH   3  23
TORSDOF 7
ENDMDL
MODEL 6
REMARK VINA RESULT:      -8.8      4.912      8.439
REMARK  7 active torsions:
REMARK  status: ('A' for Active; 'I' for Inactive)
REMARK    1  A    between atoms: O_2  and  C_3 
REMARK    2  A    between atoms: C_5  and  C_6 
REMARK    3  A    between atoms: C_6  and  N_7 
REMARK    4  A    between atoms: C_6  and  C_13 
REMARK    5  A    between atoms: C_13  and  N_14 
REMARK       I    between atoms: N_14  and  C_15 
REMARK       I    between atoms: C_15  and  N_16 
REMARK    6  A    between atoms: N_16  and  C_17 
REMARK    7  A    between atoms: C_18  and  O_19 
ROOT
HETATM    1  N   UNL     1       4.131  27.364  52.087  1.00  0.00    -0.341 N 
HETATM    2  C   UNL     1       5.162  27.255  52.986  1.00  0.00     0.316 C 
HETATM    3  N   UNL     1       5.500  25.962  53.230  1.00  0.00    -0.332 N 
HETATM    4  O   UNL     1       5.774  28.225  53.411  1.00  0.00    -0.247 OA
HETATM    5  H   UNL     1       3.497  26.575  52.080  1.00  0.00     0.164 HD
HETATM    6  H   UNL     1       4.746  25.290  53.282  1.00  0.00     0.165 HD
ENDROOT
BRANCH   1   7
HETATM    7  C   UNL     1       3.574  28.674  51.773  1.00  0.00     0.162 C 
BRANCH   7   8
HETATM    8  C   UNL     1       3.636  29.121  50.272  1.00  0.00     0.238 C 
BRANCH   8   9
HETATM    9  C   UNL     1       3.281  27.997  49.306  1.00  0.00    -0.023 A 
HETATM   10  C   UNL     1       1.988  27.965  48.753  1.00  0.00     0.046 A 
HETATM   11  C   UNL     1       1.596  26.958  47.865  1.00  0.00     0.068 A 
HETATM   12  C   UNL     1       2.513  25.979  47.496  1.00  0.00     0.037 A 
HETATM   13  C   UNL     1       3.806  26.002  48.024  1.00  0.00     0.003 A 
HETATM   14  C   UNL     1       4.189  27.000  48.923  1.00  0.00     0.009 A 
BRANCH  11  15
HETATM   15  O   UNL     1       0.304  27.055  47.432  1.00  0.00    -0.356 OA
HETATM   16  C   UNL     1       0.112  27.444  46.075  1.00  0.00     0.210 C 
ENDBRANCH  11  15
ENDBRANCH   8   9
BRANCH   8  17
HETATM   17  N   UNL     1       4.961  29.773  49.858  1.00  0.00    -0.061 N 
HETATM   18  H   UNL     1       5.582  28.969  49.699  1.00  0.00     0.280 HD
HETATM   19  C   UNL     1       5.665  30.652  50.857  1.00  0.00     0.236 C 
HETATM   20  C   UNL     1       5.538  32.047  50.284  1.00  0.00     0.029 C 
HETATM   21  C   UNL     1       5.667  31.819  48.793  1.00  0.00     0.029 C 
HETATM   22  C   UNL     1       4.920  30.522  48.538  1.00  0.00     0.236 C 
ENDBRANCH   8  17
ENDBRANCH   7   8
ENDBRANCH   1   7
BRANCH   3  23
HETATM   23  C   UNL     1       6.584  25.666  54.152  1.00  0.00     0.149 C 
HETATM   24  C   UNL     1       6.151  25.735  55.647  1.00  0.00     0.149 C 
HETATM   25  C   UNL     1       6.954  24.648  56.386  1.00  0.00     0.073 C 
HETATM   26  C   UNL     1       7.262  23.675  55.286  1.00  0.00    -0.047 A 
HETATM   27  C   UNL     1       7.057  24.246  54.025  1.00  0.00    -0.026 A 
HETATM   28  C   UNL     1       7.748  22.385  55.417  1.00  0.00     0.008 A 
HETATM   29  C   UNL     1       7.343  23.532  52.869  1.00  0.00     0.010 A 
HETATM   30  C   UNL     1       7.821  22.226  52.992  1.00  0.00     0.001 A 
HETATM   31  C   UNL     1       8.022  21.657  54.258  1.00  0.00     0.001 A 
BRANCH  24  32
HETATM   32  O   UNL     1       4.743  25.460  55.786  1.00  0.00    -0.393 OA
HETATM   33  H   UNL     1       4.636  24.502  55.652  1.00  0.00     0.210 HD
ENDBRANCH  24  32
ENDBRANCH   3  23
TORSDOF 7
ENDMDL
MODEL 7
REMARK VINA RESULT:      -8.8      4.699      8.071
REMARK  7 active torsions:
REMARK  status: ('A' for Active; 'I' for Inactive)
REMARK    1  A    between atoms: O_2  and  C_3 
REMARK    2  A    between atoms: C_5  and  C_6 
REMARK    3  A    between atoms: C_6  and  N_7 
REMARK    4  A    between atoms: C_6  and  C_13 
REMARK    5  A    between atoms: C_13  and  N_14 
REMARK       I    between atoms: N_14  and  C_15 
REMARK       I    between atoms: C_15  and  N_16 
REMARK    6  A    between atoms: N_16  and  C_17 
REMARK    7  A    between atoms: C_18  and  O_19 
ROOT
HETATM    1  N   UNL     1       3.508  27.541  52.975  1.00  0.00    -0.341 N 
HETATM    2  C   UNL     1       4.714  27.426  53.620  1.00  0.00     0.316 C 
HETATM    3  N   UNL     1       4.920  26.176  54.111  1.00  0.00    -0.332 N 
HETATM    4  O   UNL     1       5.545  28.322  53.630  1.00  0.00    -0.247 OA
HETATM    5  H   UNL     1       2.790  26.913  53.315  1.00  0.00     0.164 HD
HETATM    6  H   UNL     1       4.120  25.697  54.503  1.00  0.00     0.165 HD
ENDROOT
BRANCH   1   7
HETATM    7  C   UNL     1       3.077  28.835  52.461  1.00  0.00     0.162 C 
BRANCH   7   8
HETATM    8  C   UNL     1       2.465  28.849  51.019  1.00  0.00     0.238 C 
BRANCH   8   9
HETATM    9  C   UNL     1       3.503  28.578  49.935  1.00  0.00    -0.023 A 
HETATM   10  C   UNL     1       3.212  27.622  48.945  1.00  0.00     0.046 A 
HETATM   11  C   UNL     1       4.122  27.322  47.927  1.00  0.00     0.068 A 
HETATM   12  C   UNL     1       5.334  28.005  47.871  1.00  0.00     0.037 A 
HETATM   13  C   UNL     1       5.634  28.969  48.837  1.00  0.00     0.003 A 
HETATM   14  C   UNL     1       4.729  29.254  49.862  1.00  0.00     0.009 A 
BRANCH  11  15
HETATM   15  O   UNL     1       3.702  26.358  47.056  1.00  0.00    -0.356 OA
HETATM   16  C   UNL     1       2.971  25.268  47.611  1.00  0.00     0.210 C 
ENDBRANCH  11  15
ENDBRANCH   8   9
BRANCH   8  17
HETATM   17  N   UNL     1       1.667  30.114  50.680  1.00  0.00    -0.061 N 
HETATM   18  H   UNL     1       0.833  30.036  51.277  1.00  0.00     0.280 HD
HETATM   19  C   UNL     1       1.159  30.280  49.273  1.00  0.00     0.236 C 
HETATM   20  C   UNL     1       1.980  31.421  48.711  1.00  0.00     0.029 C 
HETATM   21  C   UNL     1       2.141  32.346  49.898  1.00  0.00     0.029 C 
HETATM   22  C   UNL     1       2.333  31.417  51.084  1.00  0.00     0.236 C 
ENDBRANCH   8  17
ENDBRANCH   7   8
ENDBRANCH   1   7
BRANCH   3  23
HETATM   23  C   UNL     1       6.156  25.877  54.815  1.00  0.00     0.149 C 
HETATM   24  C   UNL     1       5.960  25.708  56.351  1.00  0.00     0.149 C 
HETATM   25  C   UNL     1       6.956  24.623  56.803  1.00  0.00     0.073 C 
HETATM   26  C   UNL     1       7.167  23.838  55.542  1.00  0.00    -0.047 A 
HETATM   27  C   UNL     1       6.719  24.542  54.419  1.00  0.00    -0.026 A 
HETATM   28  C   UNL     1       7.772  22.599  55.416  1.00  0.00     0.008 A 
HETATM   29  C   UNL     1       6.878  24.017  53.143  1.00  0.00     0.010 A 
HETATM   30  C   UNL     1       7.475  22.763  53.008  1.00  0.00     0.001 A 
HETATM   31  C   UNL     1       7.919  22.059  54.137  1.00  0.00     0.001 A 
BRANCH  24  32
HETATM   32  O   UNL     1       4.618  25.273  56.652  1.00  0.00    -0.393 OA
HETATM   33  H   UNL     1       4.288  25.866  57.349  1.00  0.00     0.210 HD
ENDBRANCH  24  32
ENDBRANCH   3  23
TORSDOF 7
ENDMDL
MODEL 8
REMARK VINA RESULT:      -8.6      1.621      2.331
REMARK  7 active torsions:
REMARK  status: ('A' for Active; 'I' for Inactive)
REMARK    1  A    between atoms: O_2  and  C_3 
REMARK    2  A    between atoms: C_5  and  C_6 
REMARK    3  A    between atoms: C_6  and  N_7 
REMARK    4  A    between atoms: C_6  and  C_13 
REMARK    5  A    between atoms: C_13  and  N_14 
REMARK       I    between atoms: N_14  and  C_15 
REMARK       I    between atoms: C_15  and  N_16 
REMARK    6  A    between atoms: N_16  and  C_17 
REMARK    7  A    between atoms: C_18  and  O_19 
ROOT
HETATM    1  N   UNL     1       7.917  28.006  58.142  1.00  0.00    -0.341 N 
HETATM    2  C   UNL     1       7.851  29.374  58.055  1.00  0.00     0.316 C 
HETATM    3  N   UNL     1       7.522  29.952  59.240  1.00  0.00    -0.332 N 
HETATM    4  O   UNL     1       8.178  29.989  57.050  1.00  0.00    -0.247 OA
HETATM    5  H   UNL     1       7.316  27.602  58.850  1.00  0.00     0.164 HD
HETATM    6  H   UNL     1       6.836  29.474  59.811  1.00  0.00     0.165 HD
ENDROOT
BRANCH   1   7
HETATM    7  C   UNL     1       8.169  27.211  56.946  1.00  0.00     0.162 C 
BRANCH   7   8
HETATM    8  C   UNL     1       7.081  26.150  56.565  1.00  0.00     0.238 C 
BRANCH   8   9
HETATM    9  C   UNL     1       7.674  24.903  55.919  1.00  0.00    -0.023 A 
HETATM   10  C   UNL     1       7.635  24.786  54.517  1.00  0.00     0.046 A 
HETATM   11  C   UNL     1       8.155  23.666  53.862  1.00  0.00     0.068 A 
HETATM   12  C   UNL     1       8.753  22.654  54.608  1.00  0.00     0.037 A 
HETATM   13  C   UNL     1       8.813  22.760  55.999  1.00  0.00     0.003 A 
HETATM   14  C   UNL     1       8.278  23.872  56.652  1.00  0.00     0.009 A 
BRANCH  11  15
HETATM   15  O   UNL     1       8.024  23.692  52.503  1.00  0.00    -0.356 OA
HETATM   16  C   UNL     1       7.579  24.916  51.926  1.00  0.00     0.210 C 
ENDBRANCH  11  15
ENDBRANCH   8   9
BRANCH   8  17
HETATM   17  N   UNL     1       5.936  26.697  55.704  1.00  0.00    -0.061 N 
HETATM   18  H   UNL     1       5.599  25.865  55.201  1.00  0.00     0.280 HD
HETATM   19  C   UNL     1       6.263  27.719  54.649  1.00  0.00     0.236 C 
HETATM   20  C   UNL     1       5.636  28.999  55.160  1.00  0.00     0.029 C 
HETATM   21  C   UNL     1       4.358  28.518  55.813  1.00  0.00     0.029 C 
HETATM   22  C   UNL     1       4.739  27.211  56.484  1.00  0.00     0.236 C 
ENDBRANCH   8  17
ENDBRANCH   7   8
ENDBRANCH   1   7
BRANCH   3  23
HETATM   23  C   UNL     1       7.420  31.398  59.329  1.00  0.00     0.149 C 
HETATM   24  C   UNL     1       6.043  31.946  58.847  1.00  0.00     0.149 C 
HETATM   25  C   UNL     1       5.721  33.163  59.734  1.00  0.00     0.073 C 
HETATM   26  C   UNL     1       6.512  32.872  60.975  1.00  0.00    -0.047 A 
HETATM   27  C   UNL     1       7.471  31.880  60.751  1.00  0.00    -0.026 A 
HETATM   28  C   UNL     1       6.406  33.501  62.205  1.00  0.00     0.008 A 
HETATM   29  C   UNL     1       8.351  31.503  61.757  1.00  0.00     0.010 A 
HETATM   30  C   UNL     1       8.243  32.123  63.003  1.00  0.00     0.001 A 
HETATM   31  C   UNL     1       7.277  33.115  63.225  1.00  0.00     0.001 A 
BRANCH  24  32
HETATM   32  O   UNL     1       5.011  30.953  59.013  1.00  0.00    -0.393 OA
HETATM   33  H   UNL     1       5.418  30.096  58.798  1.00  0.00     0.210 HD
ENDBRANCH  24  32
ENDBRANCH   3  23
TORSDOF 7
ENDMDL
MODEL 9
REMARK VINA RESULT:      -8.6      5.455      9.220
REMARK  7 active torsions:
REMARK  status: ('A' for Active; 'I' for Inactive)
REMARK    1  A    between atoms: O_2  and  C_3 
REMARK    2  A    between atoms: C_5  and  C_6 
REMARK    3  A    between atoms: C_6  and  N_7 
REMARK    4  A    between atoms: C_6  and  C_13 
REMARK    5  A    between atoms: C_13  and  N_14 
REMARK       I    between atoms: N_14  and  C_15 
REMARK       I    between atoms: C_15  and  N_16 
REMARK    6  A    between atoms: N_16  and  C_17 
REMARK    7  A    between atoms: C_18  and  O_19 
ROOT
HETATM    1  N   UNL     1       5.308  26.137  51.443  1.00  0.00    -0.341 N 
HETATM    2  C   UNL     1       6.310  26.016  52.374  1.00  0.00     0.316 C 
HETATM    3  N   UNL     1       6.392  24.760  52.885  1.00  0.00    -0.332 N 
HETATM    4  O   UNL     1       7.104  26.915  52.610  1.00  0.00    -0.247 OA
HETATM    5  H   UNL     1       4.532  25.501  51.579  1.00  0.00     0.164 HD
HETATM    6  H   UNL     1       5.522  24.272  53.051  1.00  0.00     0.165 HD
ENDROOT
BRANCH   1   7
HETATM    7  C   UNL     1       5.014  27.437  50.854  1.00  0.00     0.162 C 
BRANCH   7   8
HETATM    8  C   UNL     1       4.567  27.443  49.353  1.00  0.00     0.238 C 
BRANCH   8   9
HETATM    9  C   UNL     1       4.542  28.842  48.749  1.00  0.00    -0.023 A 
HETATM   10  C   UNL     1       4.413  29.947  49.611  1.00  0.00     0.046 A 
HETATM   11  C   UNL     1       4.378  31.256  49.122  1.00  0.00     0.068 A 
HETATM   12  C   UNL     1       4.502  31.478  47.754  1.00  0.00     0.037 A 
HETATM   13  C   UNL     1       4.645  30.395  46.884  1.00  0.00     0.003 A 
HETATM   14  C   UNL     1       4.664  29.087  47.374  1.00  0.00     0.009 A 
BRANCH  11  15
HETATM   15  O   UNL     1       4.228  32.217  50.082  1.00  0.00    -0.356 OA
HETATM   16  C   UNL     1       2.897  32.639  50.364  1.00  0.00     0.210 C 
ENDBRANCH  11  15
ENDBRANCH   8   9
BRANCH   8  17
HETATM   17  N   UNL     1       3.236  26.729  49.084  1.00  0.00    -0.061 N 
HETATM   18  H   UNL     1       3.010  26.299  49.990  1.00  0.00     0.280 HD
HETATM   19  C   UNL     1       3.218  25.612  48.075  1.00  0.00     0.236 C 
HETATM   20  C   UNL     1       2.421  26.167  46.915  1.00  0.00     0.029 C 
HETATM   21  C   UNL     1       1.356  26.999  47.597  1.00  0.00     0.029 C 
HETATM   22  C   UNL     1       2.070  27.649  48.769  1.00  0.00     0.236 C 
ENDBRANCH   8  17
ENDBRANCH   7   8
ENDBRANCH   1   7
BRANCH   3  23
HETATM   23  C   UNL     1       7.408  24.454  53.877  1.00  0.00     0.149 C 
HETATM   24  C   UNL     1       6.993  24.858  55.323  1.00  0.00     0.149 C 
HETATM   25  C   UNL     1       7.599  23.800  56.265  1.00  0.00     0.073 C 
HETATM   26  C   UNL     1       7.738  22.611  55.361  1.00  0.00    -0.047 A 
HETATM   27  C   UNL     1       7.634  22.975  54.014  1.00  0.00    -0.026 A 
HETATM   28  C   UNL     1       7.997  21.301  55.730  1.00  0.00     0.008 A 
HETATM   29  C   UNL     1       7.795  22.031  53.009  1.00  0.00     0.010 A 
HETATM   30  C   UNL     1       8.043  20.706  53.373  1.00  0.00     0.001 A 
HETATM   31  C   UNL     1       8.143  20.345  54.725  1.00  0.00     0.001 A 
BRANCH  24  32
HETATM   32  O   UNL     1       5.558  24.852  55.464  1.00  0.00    -0.393 OA
HETATM   33  H   UNL     1       5.305  23.932  55.655  1.00  0.00     0.210 HD
ENDBRANCH  24  32
ENDBRANCH   3  23
TORSDOF 7
ENDMDL
MODEL 10
REMARK VINA RESULT:      -8.4      5.086      9.189
REMARK  7 active torsions:
REMARK  status: ('A' for Active; 'I' for Inactive)
REMARK    1  A    between atoms: O_2  and  C_3 
REMARK    2  A    between atoms: C_5  and  C_6 
REMARK    3  A    between atoms: C_6  and  N_7 
REMARK    4  A    between atoms: C_6  and  C_13 
REMARK    5  A    between atoms: C_13  and  N_14 
REMARK       I    between atoms: N_14  and  C_15 
REMARK       I    between atoms: C_15  and  N_16 
REMARK    6  A    between atoms: N_16  and  C_17 
REMARK    7  A    between atoms: C_18  and  O_19 
ROOT
HETATM    1  N   UNL     1       4.535  27.026  51.456  1.00  0.00    -0.341 N 
HETATM    2  C   UNL     1       5.535  26.961  52.395  1.00  0.00     0.316 C 
HETATM    3  N   UNL     1       5.694  25.708  52.895  1.00  0.00    -0.332 N 
HETATM    4  O   UNL     1       6.268  27.907  52.646  1.00  0.00    -0.247 OA
HETATM    5  H   UNL     1       3.801  26.340  51.579  1.00  0.00     0.164 HD
HETATM    6  H   UNL     1       4.855  25.163  53.049  1.00  0.00     0.165 HD
ENDROOT
BRANCH   1   7
HETATM    7  C   UNL     1       4.163  28.310  50.876  1.00  0.00     0.162 C 
BRANCH   7   8
HETATM    8  C   UNL     1       4.850  28.693  49.521  1.00  0.00     0.238 C 
BRANCH   8   9
HETATM    9  C   UNL     1       5.142  30.185  49.409  1.00  0.00    -0.023 A 
HETATM   10  C   UNL     1       5.041  30.801  48.148  1.00  0.00     0.046 A 
HETATM   11  C   UNL     1       5.302  32.164  47.976  1.00  0.00     0.068 A 
HETATM   12  C   UNL     1       5.641  32.939  49.081  1.00  0.00     0.037 A 
HETATM   13  C   UNL     1       5.732  32.349  50.343  1.00  0.00     0.003 A 
HETATM   14  C   UNL     1       5.487  30.984  50.509  1.00  0.00     0.009 A 
BRANCH  11  15
HETATM   15  O   UNL     1       5.181  32.606  46.689  1.00  0.00    -0.356 OA
HETATM   16  C   UNL     1       4.828  31.635  45.709  1.00  0.00     0.210 C 
ENDBRANCH  11  15
ENDBRANCH   8   9
BRANCH   8  17
HETATM   17  N   UNL     1       4.105  28.207  48.271  1.00  0.00    -0.061 N 
HETATM   18  H   UNL     1       4.233  28.979  47.603  1.00  0.00     0.280 HD
HETATM   19  C   UNL     1       2.620  27.982  48.370  1.00  0.00     0.236 C 
HETATM   20  C   UNL     1       2.460  26.481  48.267  1.00  0.00     0.029 C 
HETATM   21  C   UNL     1       3.530  26.090  47.269  1.00  0.00     0.029 C 
HETATM   22  C   UNL     1       4.709  26.986  47.602  1.00  0.00     0.236 C 
ENDBRANCH   8  17
ENDBRANCH   7   8
ENDBRANCH   1   7
BRANCH   3  23
HETATM   23  C   UNL     1       6.719  25.459  53.894  1.00  0.00     0.149 C 
HETATM   24  C   UNL     1       6.213  25.659  55.354  1.00  0.00     0.149 C 
HETATM   25  C   UNL     1       6.944  24.615  56.218  1.00  0.00     0.073 C 
HETATM   26  C   UNL     1       7.280  23.550  55.216  1.00  0.00    -0.047 A 
HETATM   27  C   UNL     1       7.156  24.022  53.905  1.00  0.00    -0.026 A 
HETATM   28  C   UNL     1       7.720  22.262  55.475  1.00  0.00     0.008 A 
HETATM   29  C   UNL     1       7.480  23.211  52.826  1.00  0.00     0.010 A 
HETATM   30  C   UNL     1       7.912  21.907  53.077  1.00  0.00     0.001 A 
HETATM   31  C   UNL     1       8.031  21.437  54.394  1.00  0.00     0.001 A 
BRANCH  24  32
HETATM   32  O   UNL     1       4.792  25.433  55.439  1.00  0.00    -0.393 OA
HETATM   33  H   UNL     1       4.650  24.494  55.225  1.00  0.00     0.210 HD
ENDBRANCH  24  32
ENDBRANCH   3  23
TORSDOF 7
ENDMDL
