MODEL 1
REMARK VINA RESULT:     -10.1      0.000      0.000
REMARK  8 active torsions:
REMARK  status: ('A' for Active; 'I' for Inactive)
REMARK    1  A    between atoms: C_2  and  O_3 
REMARK    2  A    between atoms: O_3  and  C_4 
REMARK    3  A    between atoms: C_4  and  C_5 
REMARK    4  A    between atoms: C_10  and  C_11 
REMARK       I    between atoms: C_11  and  N_12 
REMARK    5  A    between atoms: N_12  and  C_13 
REMARK    6  A    between atoms: C_15  and  C_16 
REMARK    7  A    between atoms: C_16  and  C_17 
REMARK    8  A    between atoms: C_17  and  C_18 
ROOT
HETATM    1  C   UNL     1       7.842  29.168  57.997  1.00  0.00     0.725 A 
HETATM    2  N   UNL     1       7.179  28.154  57.501  1.00  0.00    -0.046 NA
HETATM    3  C   UNL     1       7.632  28.049  56.216  1.00  0.00     0.166 A 
HETATM    4  N   UNL     1       8.572  28.942  55.883  1.00  0.00    -0.144 NA
HETATM    5  N   UNL     1       8.692  29.634  57.030  1.00  0.00    -0.106 N 
HETATM    6  H   UNL     1       9.355  30.396  57.078  1.00  0.00     0.208 HD
ENDROOT
BRANCH   1   7
HETATM    7  N   UNL     1       7.765  29.718  59.252  1.00  0.00    -0.152 N 
HETATM    8  C   UNL     1       7.884  31.080  59.444  1.00  0.00     0.272 C 
HETATM    9  O   UNL     1       8.152  31.911  58.584  1.00  0.00    -0.267 OA
HETATM   10  H   UNL     1       7.669  29.125  60.059  1.00  0.00     0.187 HD
BRANCH   8  11
HETATM   11  C   UNL     1       7.700  31.500  60.846  1.00  0.00     0.063 A 
HETATM   12  C   UNL     1       8.471  31.149  61.951  1.00  0.00     0.022 A 
HETATM   13  N   UNL     1       7.885  31.711  63.057  1.00  0.00    -0.354 N 
HETATM   14  C   UNL     1       9.669  30.280  62.108  1.00  0.00     0.069 C 
HETATM   15  C   UNL     1       6.704  32.337  62.730  1.00  0.00     0.115 A 
HETATM   16  H   UNL     1       8.202  31.602  64.013  1.00  0.00     0.166 HD
HETATM   17  C   UNL     1       6.603  32.300  61.344  1.00  0.00    -0.011 A 
HETATM   18  C   UNL     1       5.533  32.916  60.501  1.00  0.00     0.052 C 
BRANCH  15  19
HETATM   19  C   UNL     1       5.837  32.852  63.769  1.00  0.00     0.310 C 
HETATM   20  O   UNL     1       4.774  32.336  64.088  1.00  0.00    -0.258 OA
BRANCH  19  21
HETATM   21  O   UNL     1       6.328  34.014  64.274  1.00  0.00    -0.317 OA
BRANCH  21  22
HETATM   22  C   UNL     1       5.468  35.157  64.183  1.00  0.00     0.175 C 
HETATM   23  C   UNL     1       5.723  35.888  62.878  1.00  0.00     0.034 C 
ENDBRANCH  21  22
ENDBRANCH  19  21
ENDBRANCH  15  19
ENDBRANCH   8  11
ENDBRANCH   1   7
BRANCH   3  24
HETATM   24  C   UNL     1       7.099  27.016  55.294  1.00  0.00     0.087 C 
BRANCH  24  25
HETATM   25  C   UNL     1       7.536  25.612  55.717  1.00  0.00     0.048 C 
BRANCH  25  26
HETATM   26  C   UNL     1       7.701  24.687  54.553  1.00  0.00    -0.030 A 
HETATM   27  C   UNL     1       7.760  23.256  54.613  1.00  0.00    -0.002 A 
HETATM   28  C   UNL     1       7.906  22.787  53.308  1.00  0.00     0.042 A 
HETATM   29  C   UNL     1       7.699  22.317  55.665  1.00  0.00     0.014 A 
HETATM   30  C   UNL     1       7.995  21.425  52.999  1.00  0.00     0.030 A 
HETATM   31  N   UNL     1       7.934  23.888  52.486  1.00  0.00    -0.365 N 
HETATM   32  C   UNL     1       7.934  20.514  54.059  1.00  0.00     0.002 A 
HETATM   33  C   UNL     1       7.788  20.951  55.374  1.00  0.00     0.001 A 
HETATM   34  H   UNL     1       8.026  23.848  51.481  1.00  0.00     0.165 HD
HETATM   35  C   UNL     1       7.814  25.037  53.222  1.00  0.00     0.096 A 
ENDBRANCH  25  26
ENDBRANCH  24  25
ENDBRANCH   3  24
TORSDOF 8
ENDMDL
MODEL 2
REMARK VINA RESULT:      -9.8      2.441      4.111
REMARK  8 active torsions:
REMARK  status: ('A' for Active; 'I' for Inactive)
REMARK    1  A    between atoms: C_2  and  O_3 
REMARK    2  A    between atoms: O_3  and  C_4 
REMARK    3  A    between atoms: C_4  and  C_5 
REMARK    4  A    between atoms: C_10  and  C_11 
REMARK       I    between atoms: C_11  and  N_12 
REMARK    5  A    between atoms: N_12  and  C_13 
REMARK    6  A    between atoms: C_15  and  C_16 
REMARK    7  A    between atoms: C_16  and  C_17 
REMARK    8  A    between atoms: C_17  and  C_18 
ROOT
HETATM    1  C   UNL     1       6.738  28.413  54.180  1.00  0.00     0.725 A 
HETATM    2  N   UNL     1       7.339  27.258  54.041  1.00  0.00    -0.046 NA
HETATM    3  C   UNL     1       6.880  26.779  52.847  1.00  0.00     0.166 A 
HETATM    4  N   UNL     1       6.030  27.594  52.210  1.00  0.00    -0.144 NA
HETATM    5  N   UNL     1       5.963  28.624  53.072  1.00  0.00    -0.106 N 
HETATM    6  H   UNL     1       5.378  29.418  52.846  1.00  0.00     0.208 HD
ENDROOT
BRANCH   1   7
HETATM    7  N   UNL     1       6.828  29.313  55.212  1.00  0.00    -0.152 N 
HETATM    8  C   UNL     1       5.824  29.421  56.154  1.00  0.00     0.272 C 
HETATM    9  O   UNL     1       4.749  28.833  56.137  1.00  0.00    -0.267 OA
HETATM   10  H   UNL     1       7.610  29.943  55.268  1.00  0.00     0.187 HD
BRANCH   8  11
HETATM   11  C   UNL     1       6.122  30.384  57.231  1.00  0.00     0.063 A 
HETATM   12  C   UNL     1       5.526  31.621  57.461  1.00  0.00     0.022 A 
HETATM   13  N   UNL     1       6.173  32.199  58.525  1.00  0.00    -0.354 N 
HETATM   14  C   UNL     1       4.454  32.369  56.751  1.00  0.00     0.069 C 
HETATM   15  C   UNL     1       7.234  31.428  58.939  1.00  0.00     0.115 A 
HETATM   16  H   UNL     1       5.981  33.119  58.903  1.00  0.00     0.166 HD
HETATM   17  C   UNL     1       7.178  30.245  58.210  1.00  0.00    -0.011 A 
HETATM   18  C   UNL     1       8.072  29.055  58.351  1.00  0.00     0.052 C 
BRANCH  15  19
HETATM   19  C   UNL     1       8.156  31.928  59.938  1.00  0.00     0.310 C 
HETATM   20  O   UNL     1       9.001  32.786  59.716  1.00  0.00    -0.258 OA
BRANCH  19  21
HETATM   21  O   UNL     1       8.002  31.263  61.112  1.00  0.00    -0.317 OA
BRANCH  21  22
HETATM   22  C   UNL     1       7.162  31.889  62.090  1.00  0.00     0.175 C 
HETATM   23  C   UNL     1       8.006  32.382  63.251  1.00  0.00     0.034 C 
ENDBRANCH  21  22
ENDBRANCH  19  21
ENDBRANCH  15  19
ENDBRANCH   8  11
ENDBRANCH   1   7
BRANCH   3  24
HETATM   24  C   UNL     1       7.312  25.456  52.331  1.00  0.00     0.087 C 
BRANCH  24  25
HETATM   25  C   UNL     1       6.384  24.340  52.815  1.00  0.00     0.048 C 
BRANCH  25  26
HETATM   26  C   UNL     1       6.928  23.617  54.007  1.00  0.00    -0.030 A 
HETATM   27  C   UNL     1       7.587  22.345  53.995  1.00  0.00    -0.002 A 
HETATM   28  C   UNL     1       7.944  22.045  55.310  1.00  0.00     0.042 A 
HETATM   29  C   UNL     1       7.915  21.422  52.980  1.00  0.00     0.014 A 
HETATM   30  C   UNL     1       8.612  20.867  55.662  1.00  0.00     0.030 A 
HETATM   31  N   UNL     1       7.519  23.094  56.090  1.00  0.00    -0.365 N 
HETATM   32  C   UNL     1       8.924  19.967  54.638  1.00  0.00     0.002 A 
HETATM   33  C   UNL     1       8.581  20.238  53.315  1.00  0.00     0.001 A 
HETATM   34  H   UNL     1       7.649  23.150  57.091  1.00  0.00     0.165 HD
HETATM   35  C   UNL     1       6.905  24.045  55.320  1.00  0.00     0.096 A 
ENDBRANCH  25  26
ENDBRANCH  24  25
ENDBRANCH   3  24
TORSDOF 8
ENDMDL
MODEL 3
REMARK VINA RESULT:      -9.7      1.293      2.106
REMARK  8 active torsions:
REMARK  status: ('A' for Active; 'I' for Inactive)
REMARK    1  A    between atoms: C_2  and  O_3 
REMARK    2  A    between atoms: O_3  and  C_4 
REMARK    3  A    between atoms: C_4  and  C_5 
REMARK    4  A    between atoms: C_10  and  C_11 
REMARK       I    between atoms: C_11  and  N_12 
REMARK    5  A    between atoms: N_12  and  C_13 
REMARK    6  A    between atoms: C_15  and  C_16 
REMARK    7  A    between atoms: C_16  and  C_17 
REMARK    8  A    between atoms: C_17  and  C_18 
ROOT
HETATM    1  C   UNL     1       7.762  29.964  58.000  1.00  0.00     0.725 A 
HETATM    2  N   UNL     1       7.190  29.373  56.981  1.00  0.00    -0.046 NA
HETATM    3  C   UNL     1       8.229  29.025  56.165  1.00  0.00     0.166 A 
HETATM    4  N   UNL     1       9.439  29.351  56.635  1.00  0.00    -0.144 NA
HETATM    5  N   UNL     1       9.116  29.937  57.801  1.00  0.00    -0.106 N 
HETATM    6  H   UNL     1       9.854  30.292  58.395  1.00  0.00     0.208 HD
ENDROOT
BRANCH   1   7
HETATM    7  N   UNL     1       7.180  30.523  59.110  1.00  0.00    -0.152 N 
HETATM    8  C   UNL     1       7.591  31.750  59.590  1.00  0.00     0.272 C 
HETATM    9  O   UNL     1       8.533  32.413  59.171  1.00  0.00    -0.267 OA
HETATM   10  H   UNL     1       6.474  30.019  59.620  1.00  0.00     0.187 HD
BRANCH   8  11
HETATM   11  C   UNL     1       6.805  32.230  60.743  1.00  0.00     0.063 A 
HETATM   12  C   UNL     1       5.638  32.989  60.725  1.00  0.00     0.022 A 
HETATM   13  N   UNL     1       5.305  33.264  62.028  1.00  0.00    -0.354 N 
HETATM   14  C   UNL     1       4.822  33.556  59.617  1.00  0.00     0.069 C 
HETATM   15  C   UNL     1       6.265  32.795  62.895  1.00  0.00     0.115 A 
HETATM   16  H   UNL     1       4.520  33.828  62.330  1.00  0.00     0.166 HD
HETATM   17  C   UNL     1       7.171  32.067  62.132  1.00  0.00    -0.011 A 
HETATM   18  C   UNL     1       8.353  31.297  62.628  1.00  0.00     0.052 C 
BRANCH  15  19
HETATM   19  C   UNL     1       6.199  33.122  64.304  1.00  0.00     0.310 C 
HETATM   20  O   UNL     1       7.169  33.459  64.971  1.00  0.00    -0.258 OA
BRANCH  19  21
HETATM   21  O   UNL     1       4.945  32.925  64.787  1.00  0.00    -0.317 OA
BRANCH  21  22
HETATM   22  C   UNL     1       4.463  33.905  65.716  1.00  0.00     0.175 C 
HETATM   23  C   UNL     1       3.755  35.019  64.967  1.00  0.00     0.034 C 
ENDBRANCH  21  22
ENDBRANCH  19  21
ENDBRANCH  15  19
ENDBRANCH   8  11
ENDBRANCH   1   7
BRANCH   3  24
HETATM   24  C   UNL     1       7.994  28.343  54.868  1.00  0.00     0.087 C 
BRANCH  24  25
HETATM   25  C   UNL     1       7.104  27.110  55.040  1.00  0.00     0.048 C 
BRANCH  25  26
HETATM   26  C   UNL     1       7.418  26.032  54.051  1.00  0.00    -0.030 A 
HETATM   27  C   UNL     1       7.523  24.632  54.334  1.00  0.00    -0.002 A 
HETATM   28  C   UNL     1       7.816  23.982  53.135  1.00  0.00     0.042 A 
HETATM   29  C   UNL     1       7.390  23.857  55.506  1.00  0.00     0.014 A 
HETATM   30  C   UNL     1       7.985  22.596  53.047  1.00  0.00     0.030 A 
HETATM   31  N   UNL     1       7.886  24.950  52.161  1.00  0.00    -0.365 N 
HETATM   32  C   UNL     1       7.851  21.850  54.223  1.00  0.00     0.002 A 
HETATM   33  C   UNL     1       7.558  22.469  55.436  1.00  0.00     0.001 A 
HETATM   34  H   UNL     1       8.080  24.766  51.186  1.00  0.00     0.165 HD
HETATM   35  C   UNL     1       7.651  26.188  52.699  1.00  0.00     0.096 A 
ENDBRANCH  25  26
ENDBRANCH  24  25
ENDBRANCH   3  24
TORSDOF 8
ENDMDL
MODEL 4
REMARK VINA RESULT:      -9.6      1.401      1.789
REMARK  8 active torsions:
REMARK  status: ('A' for Active; 'I' for Inactive)
REMARK    1  A    between atoms: C_2  and  O_3 
REMARK    2  A    between atoms: O_3  and  C_4 
REMARK    3  A    between atoms: C_4  and  C_5 
REMARK    4  A    between atoms: C_10  and  C_11 
REMARK       I    between atoms: C_11  and  N_12 
REMARK    5  A    between atoms: N_12  and  C_13 
REMARK    6  A    between atoms: C_15  and  C_16 
REMARK    7  A    between atoms: C_16  and  C_17 
REMARK    8  A    between atoms: C_17  and  C_18 
ROOT
HETATM    1  C   UNL     1       7.575  29.249  58.124  1.00  0.00     0.725 A 
HETATM    2  N   UNL     1       6.750  28.335  57.680  1.00  0.00    -0.046 NA
HETATM    3  C   UNL     1       7.313  27.910  56.509  1.00  0.00     0.166 A 
HETATM    4  N   UNL     1       8.474  28.503  56.203  1.00  0.00    -0.144 NA
HETATM    5  N   UNL     1       8.621  29.341  57.245  1.00  0.00    -0.106 N 
HETATM    6  H   UNL     1       9.438  29.935  57.287  1.00  0.00     0.208 HD
ENDROOT
BRANCH   1   7
HETATM    7  N   UNL     1       7.485  30.013  59.261  1.00  0.00    -0.152 N 
HETATM    8  C   UNL     1       7.169  31.355  59.197  1.00  0.00     0.272 C 
HETATM    9  O   UNL     1       7.031  32.018  58.176  1.00  0.00    -0.267 OA
HETATM   10  H   UNL     1       7.698  29.611  60.158  1.00  0.00     0.187 HD
BRANCH   8  11
HETATM   11  C   UNL     1       7.042  31.999  60.518  1.00  0.00     0.063 A 
HETATM   12  C   UNL     1       8.041  32.210  61.465  1.00  0.00     0.022 A 
HETATM   13  N   UNL     1       7.449  32.771  62.569  1.00  0.00    -0.354 N 
HETATM   14  C   UNL     1       9.492  31.881  61.488  1.00  0.00     0.069 C 
HETATM   15  C   UNL     1       6.084  32.846  62.417  1.00  0.00     0.115 A 
HETATM   16  H   UNL     1       7.919  33.007  63.435  1.00  0.00     0.166 HD
HETATM   17  C   UNL     1       5.805  32.453  61.113  1.00  0.00    -0.011 A 
HETATM   18  C   UNL     1       4.469  32.438  60.442  1.00  0.00     0.052 C 
BRANCH  15  19
HETATM   19  C   UNL     1       5.246  33.250  63.527  1.00  0.00     0.310 C 
HETATM   20  O   UNL     1       5.024  32.548  64.504  1.00  0.00    -0.258 OA
BRANCH  19  21
HETATM   21  O   UNL     1       4.688  34.466  63.291  1.00  0.00    -0.317 OA
BRANCH  21  22
HETATM   22  C   UNL     1       3.411  34.705  63.898  1.00  0.00     0.175 C 
HETATM   23  C   UNL     1       2.309  34.170  63.003  1.00  0.00     0.034 C 
ENDBRANCH  21  22
ENDBRANCH  19  21
ENDBRANCH  15  19
ENDBRANCH   8  11
ENDBRANCH   1   7
BRANCH   3  24
HETATM   24  C   UNL     1       6.658  26.876  55.671  1.00  0.00     0.087 C 
BRANCH  24  25
HETATM   25  C   UNL     1       7.691  25.992  54.969  1.00  0.00     0.048 C 
BRANCH  25  26
HETATM   26  C   UNL     1       7.822  24.644  55.606  1.00  0.00    -0.030 A 
HETATM   27  C   UNL     1       7.846  23.386  54.921  1.00  0.00    -0.002 A 
HETATM   28  C   UNL     1       7.993  22.387  55.884  1.00  0.00     0.042 A 
HETATM   29  C   UNL     1       7.759  23.008  53.565  1.00  0.00     0.014 A 
HETATM   30  C   UNL     1       8.057  21.027  55.559  1.00  0.00     0.030 A 
HETATM   31  N   UNL     1       8.056  23.014  57.106  1.00  0.00    -0.365 N 
HETATM   32  C   UNL     1       7.967  20.678  54.208  1.00  0.00     0.002 A 
HETATM   33  C   UNL     1       7.820  21.652  53.223  1.00  0.00     0.001 A 
HETATM   34  H   UNL     1       8.168  22.535  57.988  1.00  0.00     0.165 HD
HETATM   35  C   UNL     1       7.952  24.371  56.953  1.00  0.00     0.096 A 
ENDBRANCH  25  26
ENDBRANCH  24  25
ENDBRANCH   3  24
TORSDOF 8
ENDMDL
MODEL 5
REMARK VINA RESULT:      -9.5      1.839      3.033
REMARK  8 active torsions:
REMARK  status: ('A' for Active; 'I' for Inactive)
REMARK    1  A    between atoms: C_2  and  O_3 
REMARK    2  A    between atoms: O_3  and  C_4 
REMARK    3  A    between atoms: C_4  and  C_5 
REMARK    4  A    between atoms: C_10  and  C_11 
REMARK       I    between atoms: C_11  and  N_12 
REMARK    5  A    between atoms: N_12  and  C_13 
REMARK    6  A    between atoms: C_15  and  C_16 
REMARK    7  A    between atoms: C_16  and  C_17 
REMARK    8  A    between atoms: C_17  and  C_18 
ROOT
HETATM    1  C   UNL     1       8.181  30.219  59.293  1.00  0.00     0.725 A 
HETATM    2  N   UNL     1       7.759  29.439  58.330  1.00  0.00    -0.046 NA
HETATM    3  C   UNL     1       8.827  29.340  57.483  1.00  0.00     0.166 A 
HETATM    4  N   UNL     1       9.917  30.008  57.881  1.00  0.00    -0.144 NA
HETATM    5  N   UNL     1       9.483  30.549  59.034  1.00  0.00    -0.106 N 
HETATM    6  H   UNL     1      10.115  31.124  59.576  1.00  0.00     0.208 HD
ENDROOT
BRANCH   1   7
HETATM    7  N   UNL     1       7.504  30.662  60.403  1.00  0.00    -0.152 N 
HETATM    8  C   UNL     1       6.960  31.929  60.449  1.00  0.00     0.272 C 
HETATM    9  O   UNL     1       7.084  32.802  59.598  1.00  0.00    -0.267 OA
HETATM   10  H   UNL     1       7.439  30.080  61.221  1.00  0.00     0.187 HD
BRANCH   8  11
HETATM   11  C   UNL     1       6.205  32.207  61.686  1.00  0.00     0.063 A 
HETATM   12  C   UNL     1       4.824  32.283  61.845  1.00  0.00     0.022 A 
HETATM   13  N   UNL     1       4.579  32.638  63.148  1.00  0.00    -0.354 N 
HETATM   14  C   UNL     1       3.691  32.131  60.893  1.00  0.00     0.069 C 
HETATM   15  C   UNL     1       5.751  32.890  63.823  1.00  0.00     0.115 A 
HETATM   16  H   UNL     1       3.665  32.803  63.554  1.00  0.00     0.166 HD
HETATM   17  C   UNL     1       6.789  32.546  62.965  1.00  0.00    -0.011 A 
HETATM   18  C   UNL     1       8.253  32.569  63.265  1.00  0.00     0.052 C 
BRANCH  15  19
HETATM   19  C   UNL     1       5.719  33.441  65.162  1.00  0.00     0.310 C 
HETATM   20  O   UNL     1       6.718  33.642  65.840  1.00  0.00    -0.258 OA
BRANCH  19  21
HETATM   21  O   UNL     1       4.439  33.624  65.578  1.00  0.00    -0.317 OA
BRANCH  21  22
HETATM   22  C   UNL     1       4.267  34.375  66.787  1.00  0.00     0.175 C 
HETATM   23  C   UNL     1       2.987  35.187  66.708  1.00  0.00     0.034 C 
ENDBRANCH  21  22
ENDBRANCH  19  21
ENDBRANCH  15  19
ENDBRANCH   8  11
ENDBRANCH   1   7
BRANCH   3  24
HETATM   24  C   UNL     1       8.745  28.547  56.231  1.00  0.00     0.087 C 
BRANCH  24  25
HETATM   25  C   UNL     1       7.382  27.868  56.090  1.00  0.00     0.048 C 
BRANCH  25  26
HETATM   26  C   UNL     1       7.447  26.393  56.332  1.00  0.00    -0.030 A 
HETATM   27  C   UNL     1       7.541  25.376  55.328  1.00  0.00    -0.002 A 
HETATM   28  C   UNL     1       7.588  24.144  55.981  1.00  0.00     0.042 A 
HETATM   29  C   UNL     1       7.594  25.394  53.918  1.00  0.00     0.014 A 
HETATM   30  C   UNL     1       7.686  22.928  55.296  1.00  0.00     0.030 A 
HETATM   31  N   UNL     1       7.526  24.403  57.330  1.00  0.00    -0.365 N 
HETATM   32  C   UNL     1       7.734  22.972  53.899  1.00  0.00     0.002 A 
HETATM   33  C   UNL     1       7.688  24.186  53.217  1.00  0.00     0.001 A 
HETATM   34  H   UNL     1       7.548  23.693  58.049  1.00  0.00     0.165 HD
HETATM   35  C   UNL     1       7.438  25.751  57.555  1.00  0.00     0.096 A 
ENDBRANCH  25  26
ENDBRANCH  24  25
ENDBRANCH   3  24
TORSDOF 8
ENDMDL
MODEL 6
REMARK VINA RESULT:      -9.5      2.679      4.096
REMARK  8 active torsions:
REMARK  status: ('A' for Active; 'I' for Inactive)
REMARK    1  A    between atoms: C_2  and  O_3 
REMARK    2  A    between atoms: O_3  and  C_4 
REMARK    3  A    between atoms: C_4  and  C_5 
REMARK    4  A    between atoms: C_10  and  C_11 
REMARK       I    between atoms: C_11  and  N_12 
REMARK    5  A    between atoms: N_12  and  C_13 
REMARK    6  A    between atoms: C_15  and  C_16 
REMARK    7  A    between atoms: C_16  and  C_17 
REMARK    8  A    between atoms: C_17  and  C_18 
ROOT
HETATM    1  C   UNL     1       7.337  28.048  54.293  1.00  0.00     0.725 A 
HETATM    2  N   UNL     1       7.431  26.743  54.278  1.00  0.00    -0.046 NA
HETATM    3  C   UNL     1       6.718  26.365  53.175  1.00  0.00     0.166 A 
HETATM    4  N   UNL     1       6.193  27.380  52.477  1.00  0.00    -0.144 NA
HETATM    5  N   UNL     1       6.607  28.435  53.202  1.00  0.00    -0.106 N 
HETATM    6  H   UNL     1       6.355  29.367  52.901  1.00  0.00     0.208 HD
ENDROOT
BRANCH   1   7
HETATM    7  N   UNL     1       7.859  28.940  55.197  1.00  0.00    -0.152 N 
HETATM    8  C   UNL     1       8.086  28.576  56.509  1.00  0.00     0.272 C 
HETATM    9  O   UNL     1       7.780  27.508  57.027  1.00  0.00    -0.267 OA
HETATM   10  H   UNL     1       8.039  29.891  54.924  1.00  0.00     0.187 HD
BRANCH   8  11
HETATM   11  C   UNL     1       8.719  29.635  57.318  1.00  0.00     0.063 A 
HETATM   12  C   UNL     1      10.075  29.935  57.422  1.00  0.00     0.022 A 
HETATM   13  N   UNL     1      10.204  30.943  58.344  1.00  0.00    -0.354 N 
HETATM   14  C   UNL     1      11.289  29.334  56.805  1.00  0.00     0.069 C 
HETATM   15  C   UNL     1       8.992  31.249  58.919  1.00  0.00     0.115 A 
HETATM   16  H   UNL     1      11.078  31.350  58.656  1.00  0.00     0.166 HD
HETATM   17  C   UNL     1       8.030  30.511  58.238  1.00  0.00    -0.011 A 
HETATM   18  C   UNL     1       6.549  30.555  58.443  1.00  0.00     0.052 C 
BRANCH  15  19
HETATM   19  C   UNL     1       8.924  32.166  60.037  1.00  0.00     0.310 C 
HETATM   20  O   UNL     1       8.271  33.202  60.030  1.00  0.00    -0.258 OA
BRANCH  19  21
HETATM   21  O   UNL     1       9.739  31.759  61.045  1.00  0.00    -0.317 OA
BRANCH  21  22
HETATM   22  C   UNL     1       9.284  30.638  61.814  1.00  0.00     0.175 C 
HETATM   23  C   UNL     1       8.069  31.037  62.632  1.00  0.00     0.034 C 
ENDBRANCH  21  22
ENDBRANCH  19  21
ENDBRANCH  15  19
ENDBRANCH   8  11
ENDBRANCH   1   7
BRANCH   3  24
HETATM   24  C   UNL     1       6.558  24.934  52.815  1.00  0.00     0.087 C 
BRANCH  24  25
HETATM   25  C   UNL     1       7.913  24.239  52.677  1.00  0.00     0.048 C 
BRANCH  25  26
HETATM   26  C   UNL     1       7.944  22.902  53.347  1.00  0.00    -0.030 A 
HETATM   27  C   UNL     1       8.094  22.664  54.752  1.00  0.00    -0.002 A 
HETATM   28  C   UNL     1       8.058  21.284  54.950  1.00  0.00     0.042 A 
HETATM   29  C   UNL     1       8.253  23.502  55.875  1.00  0.00     0.014 A 
HETATM   30  C   UNL     1       8.174  20.698  56.216  1.00  0.00     0.030 A 
HETATM   31  N   UNL     1       7.892  20.705  53.714  1.00  0.00    -0.365 N 
HETATM   32  C   UNL     1       8.334  21.550  57.313  1.00  0.00     0.002 A 
HETATM   33  C   UNL     1       8.374  22.933  57.148  1.00  0.00     0.001 A 
HETATM   34  H   UNL     1       7.825  19.709  53.554  1.00  0.00     0.165 HD
HETATM   35  C   UNL     1       7.825  21.666  52.741  1.00  0.00     0.096 A 
ENDBRANCH  25  26
ENDBRANCH  24  25
ENDBRANCH   3  24
TORSDOF 8
ENDMDL
MODEL 7
REMARK VINA RESULT:      -9.5      2.999     11.039
REMARK  8 active torsions:
REMARK  status: ('A' for Active; 'I' for Inactive)
REMARK    1  A    between atoms: C_2  and  O_3 
REMARK    2  A    between atoms: O_3  and  C_4 
REMARK    3  A    between atoms: C_4  and  C_5 
REMARK    4  A    between atoms: C_10  and  C_11 
REMARK       I    between atoms: C_11  and  N_12 
REMARK    5  A    between atoms: N_12  and  C_13 
REMARK    6  A    between atoms: C_15  and  C_16 
REMARK    7  A    between atoms: C_16  and  C_17 
REMARK    8  A    between atoms: C_17  and  C_18 
ROOT
HETATM    1  C   UNL     1       9.494  29.747  57.671  1.00  0.00     0.725 A 
HETATM    2  N   UNL     1       9.092  30.089  58.869  1.00  0.00    -0.046 NA
HETATM    3  C   UNL     1       9.729  31.273  59.115  1.00  0.00     0.166 A 
HETATM    4  N   UNL     1      10.502  31.708  58.111  1.00  0.00    -0.144 NA
HETATM    5  N   UNL     1      10.329  30.727  57.207  1.00  0.00    -0.106 N 
HETATM    6  H   UNL     1      10.806  30.790  56.316  1.00  0.00     0.208 HD
ENDROOT
BRANCH   1   7
HETATM    7  N   UNL     1       9.172  28.631  56.940  1.00  0.00    -0.152 N 
HETATM    8  C   UNL     1       7.861  28.219  56.806  1.00  0.00     0.272 C 
HETATM    9  O   UNL     1       6.888  28.709  57.365  1.00  0.00    -0.267 OA
HETATM   10  H   UNL     1       9.898  28.068  56.530  1.00  0.00     0.187 HD
BRANCH   8  11
HETATM   11  C   UNL     1       7.695  27.047  55.925  1.00  0.00     0.063 A 
HETATM   12  C   UNL     1       7.243  27.026  54.608  1.00  0.00     0.022 A 
HETATM   13  N   UNL     1       7.178  25.712  54.217  1.00  0.00    -0.354 N 
HETATM   14  C   UNL     1       6.791  28.098  53.681  1.00  0.00     0.069 C 
HETATM   15  C   UNL     1       7.479  24.867  55.260  1.00  0.00     0.115 A 
HETATM   16  H   UNL     1       6.852  25.379  53.317  1.00  0.00     0.166 HD
HETATM   17  C   UNL     1       7.892  25.670  56.318  1.00  0.00    -0.011 A 
HETATM   18  C   UNL     1       8.396  25.216  57.651  1.00  0.00     0.052 C 
BRANCH  15  19
HETATM   19  C   UNL     1       7.309  23.436  55.115  1.00  0.00     0.310 C 
HETATM   20  O   UNL     1       7.337  22.648  56.051  1.00  0.00    -0.258 OA
BRANCH  19  21
HETATM   21  O   UNL     1       7.197  23.095  53.804  1.00  0.00    -0.317 OA
BRANCH  21  22
HETATM   22  C   UNL     1       8.292  22.358  53.246  1.00  0.00     0.175 C 
HETATM   23  C   UNL     1       7.912  20.894  53.115  1.00  0.00     0.034 C 
ENDBRANCH  21  22
ENDBRANCH  19  21
ENDBRANCH  15  19
ENDBRANCH   8  11
ENDBRANCH   1   7
BRANCH   3  24
HETATM   24  C   UNL     1       9.554  31.989  60.403  1.00  0.00     0.087 C 
BRANCH  24  25
HETATM   25  C   UNL     1       8.503  31.307  61.280  1.00  0.00     0.048 C 
BRANCH  25  26
HETATM   26  C   UNL     1       7.340  32.199  61.580  1.00  0.00    -0.030 A 
HETATM   27  C   UNL     1       7.103  32.893  62.811  1.00  0.00    -0.002 A 
HETATM   28  C   UNL     1       5.920  33.617  62.663  1.00  0.00     0.042 A 
HETATM   29  C   UNL     1       7.794  32.973  64.039  1.00  0.00     0.014 A 
HETATM   30  C   UNL     1       5.391  34.418  63.682  1.00  0.00     0.030 A 
HETATM   31  N   UNL     1       5.456  33.374  61.392  1.00  0.00    -0.365 N 
HETATM   32  C   UNL     1       6.093  34.478  64.890  1.00  0.00     0.002 A 
HETATM   33  C   UNL     1       7.277  33.767  65.069  1.00  0.00     0.001 A 
HETATM   34  H   UNL     1       4.613  33.775  61.006  1.00  0.00     0.165 HD
HETATM   35  C   UNL     1       6.299  32.520  60.731  1.00  0.00     0.096 A 
ENDBRANCH  25  26
ENDBRANCH  24  25
ENDBRANCH   3  24
TORSDOF 8
ENDMDL
MODEL 8
REMARK VINA RESULT:      -9.5      1.727      2.181
REMARK  8 active torsions:
REMARK  status: ('A' for Active; 'I' for Inactive)
REMARK    1  A    between atoms: C_2  and  O_3 
REMARK    2  A    between atoms: O_3  and  C_4 
REMARK    3  A    between atoms: C_4  and  C_5 
REMARK    4  A    between atoms: C_10  and  C_11 
REMARK       I    between atoms: C_11  and  N_12 
REMARK    5  A    between atoms: N_12  and  C_13 
REMARK    6  A    between atoms: C_15  and  C_16 
REMARK    7  A    between atoms: C_16  and  C_17 
REMARK    8  A    between atoms: C_17  and  C_18 
ROOT
HETATM    1  C   UNL     1       6.607  29.227  57.230  1.00  0.00     0.725 A 
HETATM    2  N   UNL     1       6.171  28.002  57.083  1.00  0.00    -0.046 NA
HETATM    3  C   UNL     1       6.442  27.700  55.778  1.00  0.00     0.166 A 
HETATM    4  N   UNL     1       7.054  28.677  55.097  1.00  0.00    -0.144 NA
HETATM    5  N   UNL     1       7.153  29.630  56.041  1.00  0.00    -0.106 N 
HETATM    6  H   UNL     1       7.591  30.511  55.807  1.00  0.00     0.208 HD
ENDROOT
BRANCH   1   7
HETATM    7  N   UNL     1       6.571  30.027  58.345  1.00  0.00    -0.152 N 
HETATM    8  C   UNL     1       6.227  31.361  58.257  1.00  0.00     0.272 C 
HETATM    9  O   UNL     1       6.015  31.987  57.225  1.00  0.00    -0.267 OA
HETATM   10  H   UNL     1       6.846  29.659  59.240  1.00  0.00     0.187 HD
BRANCH   8  11
HETATM   11  C   UNL     1       6.168  32.046  59.562  1.00  0.00     0.063 A 
HETATM   12  C   UNL     1       7.232  32.457  60.360  1.00  0.00     0.022 A 
HETATM   13  N   UNL     1       6.704  32.979  61.514  1.00  0.00    -0.354 N 
HETATM   14  C   UNL     1       8.708  32.354  60.201  1.00  0.00     0.069 C 
HETATM   15  C   UNL     1       5.336  32.837  61.543  1.00  0.00     0.115 A 
HETATM   16  H   UNL     1       7.236  33.329  62.302  1.00  0.00     0.166 HD
HETATM   17  C   UNL     1       4.960  32.338  60.301  1.00  0.00    -0.011 A 
HETATM   18  C   UNL     1       3.569  32.084  59.814  1.00  0.00     0.052 C 
BRANCH  15  19
HETATM   19  C   UNL     1       4.591  33.167  62.740  1.00  0.00     0.310 C 
HETATM   20  O   UNL     1       3.644  33.941  62.762  1.00  0.00    -0.258 OA
BRANCH  19  21
HETATM   21  O   UNL     1       5.139  32.565  63.829  1.00  0.00    -0.317 OA
BRANCH  21  22
HETATM   22  C   UNL     1       5.451  33.421  64.935  1.00  0.00     0.175 C 
HETATM   23  C   UNL     1       6.956  33.501  65.114  1.00  0.00     0.034 C 
ENDBRANCH  21  22
ENDBRANCH  19  21
ENDBRANCH  15  19
ENDBRANCH   8  11
ENDBRANCH   1   7
BRANCH   3  24
HETATM   24  C   UNL     1       6.072  26.385  55.199  1.00  0.00     0.087 C 
BRANCH  24  25
HETATM   25  C   UNL     1       7.282  25.695  54.566  1.00  0.00     0.048 C 
BRANCH  25  26
HETATM   26  C   UNL     1       7.633  24.411  55.250  1.00  0.00    -0.030 A 
HETATM   27  C   UNL     1       7.804  23.137  54.618  1.00  0.00    -0.002 A 
HETATM   28  C   UNL     1       8.138  22.217  55.611  1.00  0.00     0.042 A 
HETATM   29  C   UNL     1       7.707  22.684  53.285  1.00  0.00     0.014 A 
HETATM   30  C   UNL     1       8.380  20.865  55.341  1.00  0.00     0.030 A 
HETATM   31  N   UNL     1       8.170  22.905  56.801  1.00  0.00    -0.365 N 
HETATM   32  C   UNL     1       8.275  20.441  54.012  1.00  0.00     0.002 A 
HETATM   33  C   UNL     1       7.943  21.335  52.997  1.00  0.00     0.001 A 
HETATM   34  H   UNL     1       8.392  22.490  57.695  1.00  0.00     0.165 HD
HETATM   35  C   UNL     1       7.866  24.225  56.598  1.00  0.00     0.096 A 
ENDBRANCH  25  26
ENDBRANCH  24  25
ENDBRANCH   3  24
TORSDOF 8
ENDMDL
MODEL 9
REMARK VINA RESULT:      -8.9      2.124      3.201
REMARK  8 active torsions:
REMARK  status: ('A' for Active; 'I' for Inactive)
REMARK    1  A    between atoms: C_2  and  O_3 
REMARK    2  A    between atoms: O_3  and  C_4 
REMARK    3  A    between atoms: C_4  and  C_5 
REMARK    4  A    between atoms: C_10  and  C_11 
REMARK       I    between atoms: C_11  and  N_12 
REMARK    5  A    between atoms: N_12  and  C_13 
REMARK    6  A    between atoms: C_15  and  C_16 
REMARK    7  A    between atoms: C_16  and  C_17 
REMARK    8  A    between atoms: C_17  and  C_18 
ROOT
HETATM    1  C   UNL     1       5.417  28.368  56.521  1.00  0.00     0.725 A 
HETATM    2  N   UNL     1       5.951  27.206  56.243  1.00  0.00    -0.046 NA
HETATM    3  C   UNL     1       5.373  26.842  55.059  1.00  0.00     0.166 A 
HETATM    4  N   UNL     1       4.510  27.739  54.563  1.00  0.00    -0.144 NA
HETATM    5  N   UNL     1       4.562  28.698  55.504  1.00  0.00    -0.106 N 
HETATM    6  H   UNL     1       3.996  29.529  55.391  1.00  0.00     0.208 HD
ENDROOT
BRANCH   1   7
HETATM    7  N   UNL     1       5.632  29.177  57.608  1.00  0.00    -0.152 N 
HETATM    8  C   UNL     1       5.918  30.519  57.455  1.00  0.00     0.272 C 
HETATM    9  O   UNL     1       6.099  31.103  56.393  1.00  0.00    -0.267 OA
HETATM   10  H   UNL     1       5.633  28.789  58.536  1.00  0.00     0.187 HD
BRANCH   8  11
HETATM   11  C   UNL     1       6.045  31.249  58.730  1.00  0.00     0.063 A 
HETATM   12  C   UNL     1       5.171  32.192  59.265  1.00  0.00     0.022 A 
HETATM   13  N   UNL     1       5.732  32.660  60.428  1.00  0.00    -0.354 N 
HETATM   14  C   UNL     1       3.889  32.768  58.777  1.00  0.00     0.069 C 
HETATM   15  C   UNL     1       6.985  32.128  60.624  1.00  0.00     0.115 A 
HETATM   16  H   UNL     1       5.341  33.380  61.023  1.00  0.00     0.166 HD
HETATM   17  C   UNL     1       7.176  31.177  59.628  1.00  0.00    -0.011 A 
HETATM   18  C   UNL     1       8.354  30.271  59.459  1.00  0.00     0.052 C 
BRANCH  15  19
HETATM   19  C   UNL     1       7.824  32.612  61.700  1.00  0.00     0.310 C 
HETATM   20  O   UNL     1       8.975  32.238  61.888  1.00  0.00    -0.258 OA
BRANCH  19  21
HETATM   21  O   UNL     1       7.135  33.464  62.503  1.00  0.00    -0.317 OA
BRANCH  21  22
HETATM   22  C   UNL     1       6.712  32.939  63.769  1.00  0.00     0.175 C 
HETATM   23  C   UNL     1       7.423  33.672  64.891  1.00  0.00     0.034 C 
ENDBRANCH  21  22
ENDBRANCH  19  21
ENDBRANCH  15  19
ENDBRANCH   8  11
ENDBRANCH   1   7
BRANCH   3  24
HETATM   24  C   UNL     1       5.700  25.550  54.407  1.00  0.00     0.087 C 
BRANCH  24  25
HETATM   25  C   UNL     1       7.212  25.330  54.333  1.00  0.00     0.048 C 
BRANCH  25  26
HETATM   26  C   UNL     1       7.655  24.125  55.102  1.00  0.00    -0.030 A 
HETATM   27  C   UNL     1       7.911  22.824  54.558  1.00  0.00    -0.002 A 
HETATM   28  C   UNL     1       8.312  22.001  55.610  1.00  0.00     0.042 A 
HETATM   29  C   UNL     1       7.841  22.274  53.261  1.00  0.00     0.014 A 
HETATM   30  C   UNL     1       8.647  20.654  55.432  1.00  0.00     0.030 A 
HETATM   31  N   UNL     1       8.301  22.771  56.749  1.00  0.00    -0.365 N 
HETATM   32  C   UNL     1       8.567  20.132  54.137  1.00  0.00     0.002 A 
HETATM   33  C   UNL     1       8.169  20.928  53.065  1.00  0.00     0.001 A 
HETATM   34  H   UNL     1       8.554  22.436  57.668  1.00  0.00     0.165 HD
HETATM   35  C   UNL     1       7.905  24.050  56.458  1.00  0.00     0.096 A 
ENDBRANCH  25  26
ENDBRANCH  24  25
ENDBRANCH   3  24
TORSDOF 8
ENDMDL
MODEL 10
REMARK VINA RESULT:      -8.6      3.892     11.228
REMARK  8 active torsions:
REMARK  status: ('A' for Active; 'I' for Inactive)
REMARK    1  A    between atoms: C_2  and  O_3 
REMARK    2  A    between atoms: O_3  and  C_4 
REMARK    3  A    between atoms: C_4  and  C_5 
REMARK    4  A    between atoms: C_10  and  C_11 
REMARK       I    between atoms: C_11  and  N_12 
REMARK    5  A    between atoms: N_12  and  C_13 
REMARK    6  A    between atoms: C_15  and  C_16 
REMARK    7  A    between atoms: C_16  and  C_17 
REMARK    8  A    between atoms: C_17  and  C_18 
ROOT
HETATM    1  C   UNL     1       7.570  30.726  58.958  1.00  0.00     0.725 A 
HETATM    2  N   UNL     1       7.136  31.889  59.376  1.00  0.00    -0.046 NA
HETATM    3  C   UNL     1       7.541  31.952  60.680  1.00  0.00     0.166 A 
HETATM    4  N   UNL     1       8.234  30.885  61.100  1.00  0.00    -0.144 NA
HETATM    5  N   UNL     1       8.244  30.128  59.988  1.00  0.00    -0.106 N 
HETATM    6  H   UNL     1       8.715  29.233  60.007  1.00  0.00     0.208 HD
ENDROOT
BRANCH   1   7
HETATM    7  N   UNL     1       7.426  30.147  57.722  1.00  0.00    -0.152 N 
HETATM    8  C   UNL     1       7.517  28.779  57.560  1.00  0.00     0.272 C 
HETATM    9  O   UNL     1       7.815  27.966  58.427  1.00  0.00    -0.267 OA
HETATM   10  H   UNL     1       7.300  30.721  56.906  1.00  0.00     0.187 HD
BRANCH   8  11
HETATM   11  C   UNL     1       7.262  28.326  56.179  1.00  0.00     0.063 A 
HETATM   12  C   UNL     1       8.083  28.478  55.065  1.00  0.00     0.022 A 
HETATM   13  N   UNL     1       7.406  27.974  53.983  1.00  0.00    -0.354 N 
HETATM   14  C   UNL     1       9.416  29.112  54.875  1.00  0.00     0.069 C 
HETATM   15  C   UNL     1       6.134  27.584  54.330  1.00  0.00     0.115 A 
HETATM   16  H   UNL     1       7.738  27.975  53.025  1.00  0.00     0.166 HD
HETATM   17  C   UNL     1       6.041  27.709  55.712  1.00  0.00    -0.011 A 
HETATM   18  C   UNL     1       4.878  27.336  56.575  1.00  0.00     0.052 C 
BRANCH  15  19
HETATM   19  C   UNL     1       5.189  27.178  53.311  1.00  0.00     0.310 C 
HETATM   20  O   UNL     1       4.873  26.015  53.099  1.00  0.00    -0.258 OA
BRANCH  19  21
HETATM   21  O   UNL     1       4.774  28.249  52.585  1.00  0.00    -0.317 OA
BRANCH  21  22
HETATM   22  C   UNL     1       3.446  28.718  52.851  1.00  0.00     0.175 C 
HETATM   23  C   UNL     1       3.508  29.985  53.685  1.00  0.00     0.034 C 
ENDBRANCH  21  22
ENDBRANCH  19  21
ENDBRANCH  15  19
ENDBRANCH   8  11
ENDBRANCH   1   7
BRANCH   3  24
HETATM   24  C   UNL     1       7.218  33.124  61.530  1.00  0.00     0.087 C 
BRANCH  24  25
HETATM   25  C   UNL     1       7.340  32.784  63.017  1.00  0.00     0.048 C 
BRANCH  25  26
HETATM   26  C   UNL     1       6.095  33.101  63.783  1.00  0.00    -0.030 A 
HETATM   27  C   UNL     1       6.031  33.580  65.131  1.00  0.00    -0.002 A 
HETATM   28  C   UNL     1       4.685  33.756  65.452  1.00  0.00     0.042 A 
HETATM   29  C   UNL     1       7.002  33.884  66.109  1.00  0.00     0.014 A 
HETATM   30  C   UNL     1       4.259  34.220  66.701  1.00  0.00     0.030 A 
HETATM   31  N   UNL     1       3.958  33.398  64.341  1.00  0.00    -0.365 N 
HETATM   32  C   UNL     1       5.241  34.512  67.654  1.00  0.00     0.002 A 
HETATM   33  C   UNL     1       6.593  34.347  67.365  1.00  0.00     0.001 A 
HETATM   34  H   UNL     1       2.950  33.431  64.283  1.00  0.00     0.165 HD
HETATM   35  C   UNL     1       4.794  32.999  63.331  1.00  0.00     0.096 A 
ENDBRANCH  25  26
ENDBRANCH  24  25
ENDBRANCH   3  24
TORSDOF 8
ENDMDL
