MODEL 1
REMARK VINA RESULT:      -9.0      0.000      0.000
REMARK  4 active torsions:
REMARK  status: ('A' for Active; 'I' for Inactive)
REMARK    1  A    between atoms: C_9  and  N_10 
REMARK    2  A    between atoms: N_10  and  C_12 
REMARK    3  A    between atoms: C_12  and  C_13 
REMARK    4  A    between atoms: C_14  and  C_15 
ROOT
HETATM    1  C   UNL     1       9.164  29.741  58.041  1.00  0.00     0.016 A 
HETATM    2  C   UNL     1       9.243  31.009  58.714  1.00  0.00     0.096 A 
HETATM    3  N   UNL     1      10.301  31.710  58.296  1.00  0.00    -0.174 NA
HETATM    4  N   UNL     1      10.943  30.903  57.451  1.00  0.00    -0.288 N 
HETATM    5  H   UNL     1      11.810  31.235  57.035  1.00  0.00     0.188 HD
HETATM    6  C   UNL     1      10.305  29.710  57.260  1.00  0.00     0.120 A 
ENDROOT
BRANCH   1   7
HETATM    7  C   UNL     1       8.072  28.745  58.224  1.00  0.00     0.277 C 
BRANCH   7   8
HETATM    8  N   UNL     1       7.102  28.441  57.098  1.00  0.00    -0.065 N 
HETATM    9  H   UNL     1       6.168  28.518  57.516  1.00  0.00     0.280 HD
HETATM   10  C   UNL     1       7.175  29.438  55.978  1.00  0.00     0.270 C 
BRANCH   8  11
HETATM   11  C   UNL     1       7.310  27.060  56.554  1.00  0.00     0.205 C 
HETATM   12  C   UNL     1       6.003  26.279  56.150  1.00  0.00     0.008 C 
HETATM   13  C   UNL     1       4.642  26.746  56.677  1.00  0.00     0.020 C 
HETATM   14  C   UNL     1       5.930  25.996  54.647  1.00  0.00     0.020 C 
HETATM   15  C   UNL     1       6.510  25.081  56.991  1.00  0.00     0.137 C 
HETATM   16  C   UNL     1       7.589  25.970  57.632  1.00  0.00     0.049 C 
HETATM   17  O   UNL     1       7.176  23.989  56.331  1.00  0.00    -0.385 OA
HETATM   18  C   UNL     1       8.864  25.137  57.433  1.00  0.00     0.035 C 
HETATM   19  C   UNL     1       8.387  23.738  57.048  1.00  0.00     0.168 C 
ENDBRANCH   8  11
ENDBRANCH   7   8
ENDBRANCH   1   7
BRANCH   2  20
HETATM   20  C   UNL     1       8.335  31.563  59.716  1.00  0.00    -0.002 A 
HETATM   21  C   UNL     1       8.729  31.663  61.058  1.00  0.00     0.053 A 
HETATM   22  C   UNL     1       7.851  32.188  62.006  1.00  0.00     0.103 A 
HETATM   23  C   UNL     1       6.573  32.603  61.631  1.00  0.00     0.102 A 
HETATM   24  O   UNL     1       8.317  32.259  63.296  1.00  0.00    -0.346 OA
HETATM   25  O   UNL     1       5.654  33.104  62.514  1.00  0.00    -0.346 OA
HETATM   26  C   UNL     1       6.185  32.536  60.295  1.00  0.00     0.040 A 
HETATM   27  C   UNL     1       6.039  32.873  63.875  1.00  0.00     0.202 C 
HETATM   28  C   UNL     1       7.519  33.159  64.079  1.00  0.00     0.202 C 
HETATM   29  C   UNL     1       7.064  32.020  59.339  1.00  0.00     0.017 A 
ENDBRANCH   2  20
TORSDOF 4
ENDMDL
MODEL 2
REMARK VINA RESULT:      -9.0      3.978      6.253
REMARK  4 active torsions:
REMARK  status: ('A' for Active; 'I' for Inactive)
REMARK    1  A    between atoms: C_9  and  N_10 
REMARK    2  A    between atoms: N_10  and  C_12 
REMARK    3  A    between atoms: C_12  and  C_13 
REMARK    4  A    between atoms: C_14  and  C_15 
ROOT
HETATM    1  C   UNL     1       5.710  25.753  52.949  1.00  0.00     0.016 A 
HETATM    2  C   UNL     1       6.016  27.145  53.144  1.00  0.00     0.096 A 
HETATM    3  N   UNL     1       6.061  27.795  51.978  1.00  0.00    -0.174 NA
HETATM    4  N   UNL     1       5.885  26.857  51.047  1.00  0.00    -0.288 N 
HETATM    5  H   UNL     1       5.916  27.138  50.070  1.00  0.00     0.188 HD
HETATM    6  C   UNL     1       5.667  25.615  51.573  1.00  0.00     0.120 A 
ENDROOT
BRANCH   1   7
HETATM    7  C   UNL     1       5.520  24.760  54.042  1.00  0.00     0.277 C 
BRANCH   7   8
HETATM    8  N   UNL     1       6.570  24.586  55.122  1.00  0.00    -0.065 N 
HETATM    9  H   UNL     1       7.293  25.286  54.914  1.00  0.00     0.280 HD
HETATM   10  C   UNL     1       6.048  24.877  56.498  1.00  0.00     0.270 C 
BRANCH   8  11
HETATM   11  C   UNL     1       7.165  23.210  55.092  1.00  0.00     0.205 C 
HETATM   12  C   UNL     1       8.429  22.990  56.004  1.00  0.00     0.008 C 
HETATM   13  C   UNL     1       9.213  24.199  56.526  1.00  0.00     0.020 C 
HETATM   14  C   UNL     1       8.173  21.986  57.132  1.00  0.00     0.020 C 
HETATM   15  C   UNL     1       9.155  22.383  54.777  1.00  0.00     0.137 C 
HETATM   16  C   UNL     1       8.050  22.910  53.846  1.00  0.00     0.049 C 
HETATM   17  O   UNL     1       9.211  20.953  54.628  1.00  0.00    -0.385 OA
HETATM   18  C   UNL     1       7.675  21.658  53.039  1.00  0.00     0.035 C 
HETATM   19  C   UNL     1       8.794  20.651  53.294  1.00  0.00     0.168 C 
ENDBRANCH   8  11
ENDBRANCH   7   8
ENDBRANCH   1   7
BRANCH   2  20
HETATM   20  C   UNL     1       6.243  27.857  54.400  1.00  0.00    -0.002 A 
HETATM   21  C   UNL     1       7.542  28.032  54.896  1.00  0.00     0.053 A 
HETATM   22  C   UNL     1       7.744  28.709  56.099  1.00  0.00     0.103 A 
HETATM   23  C   UNL     1       6.658  29.201  56.823  1.00  0.00     0.102 A 
HETATM   24  O   UNL     1       9.047  28.846  56.510  1.00  0.00    -0.346 OA
HETATM   25  O   UNL     1       6.785  29.852  58.021  1.00  0.00    -0.346 OA
HETATM   26  C   UNL     1       5.367  29.058  56.322  1.00  0.00     0.040 A 
HETATM   27  C   UNL     1       8.098  29.702  58.576  1.00  0.00     0.202 C 
HETATM   28  C   UNL     1       9.164  29.873  57.505  1.00  0.00     0.202 C 
HETATM   29  C   UNL     1       5.158  28.390  55.113  1.00  0.00     0.017 A 
ENDBRANCH   2  20
TORSDOF 4
ENDMDL
MODEL 3
REMARK VINA RESULT:      -9.0      4.502      6.708
REMARK  4 active torsions:
REMARK  status: ('A' for Active; 'I' for Inactive)
REMARK    1  A    between atoms: C_9  and  N_10 
REMARK    2  A    between atoms: N_10  and  C_12 
REMARK    3  A    between atoms: C_12  and  C_13 
REMARK    4  A    between atoms: C_14  and  C_15 
ROOT
HETATM    1  C   UNL     1       5.348  25.650  52.258  1.00  0.00     0.016 A 
HETATM    2  C   UNL     1       5.284  26.996  52.759  1.00  0.00     0.096 A 
HETATM    3  N   UNL     1       4.699  27.810  51.875  1.00  0.00    -0.174 NA
HETATM    4  N   UNL     1       4.471  27.054  50.801  1.00  0.00    -0.288 N 
HETATM    5  H   UNL     1       4.052  27.494  49.985  1.00  0.00     0.188 HD
HETATM    6  C   UNL     1       4.839  25.750  50.976  1.00  0.00     0.120 A 
ENDROOT
BRANCH   1   7
HETATM    7  C   UNL     1       5.879  24.483  53.015  1.00  0.00     0.277 C 
BRANCH   7   8
HETATM    8  N   UNL     1       7.295  23.990  52.789  1.00  0.00    -0.065 N 
HETATM    9  H   UNL     1       7.196  23.088  52.310  1.00  0.00     0.280 HD
HETATM   10  C   UNL     1       8.091  24.890  51.890  1.00  0.00     0.270 C 
BRANCH   8  11
HETATM   11  C   UNL     1       8.024  23.805  54.086  1.00  0.00     0.205 C 
HETATM   12  C   UNL     1       8.352  22.316  54.481  1.00  0.00     0.008 C 
HETATM   13  C   UNL     1       7.604  21.165  53.801  1.00  0.00     0.020 C 
HETATM   14  C   UNL     1       9.857  22.036  54.516  1.00  0.00     0.020 C 
HETATM   15  C   UNL     1       7.733  22.595  55.874  1.00  0.00     0.137 C 
HETATM   16  C   UNL     1       7.130  23.912  55.358  1.00  0.00     0.049 C 
HETATM   17  O   UNL     1       8.599  22.911  56.980  1.00  0.00    -0.385 OA
HETATM   18  C   UNL     1       7.588  24.923  56.420  1.00  0.00     0.035 C 
HETATM   19  C   UNL     1       8.076  24.088  57.601  1.00  0.00     0.168 C 
ENDBRANCH   8  11
ENDBRANCH   7   8
ENDBRANCH   1   7
BRANCH   2  20
HETATM   20  C   UNL     1       5.743  27.508  54.048  1.00  0.00    -0.002 A 
HETATM   21  C   UNL     1       7.053  27.981  54.202  1.00  0.00     0.053 A 
HETATM   22  C   UNL     1       7.481  28.461  55.440  1.00  0.00     0.103 A 
HETATM   23  C   UNL     1       6.616  28.461  56.535  1.00  0.00     0.102 A 
HETATM   24  O   UNL     1       8.776  28.914  55.505  1.00  0.00    -0.346 OA
HETATM   25  O   UNL     1       6.979  28.895  57.782  1.00  0.00    -0.346 OA
HETATM   26  C   UNL     1       5.303  28.021  56.382  1.00  0.00     0.040 A 
HETATM   27  C   UNL     1       8.398  29.057  57.900  1.00  0.00     0.202 C 
HETATM   28  C   UNL     1       8.974  29.734  56.666  1.00  0.00     0.202 C 
HETATM   29  C   UNL     1       4.866  27.548  55.143  1.00  0.00     0.017 A 
ENDBRANCH   2  20
TORSDOF 4
ENDMDL
MODEL 4
REMARK VINA RESULT:      -8.8      3.174      8.882
REMARK  4 active torsions:
REMARK  status: ('A' for Active; 'I' for Inactive)
REMARK    1  A    between atoms: C_9  and  N_10 
REMARK    2  A    between atoms: N_10  and  C_12 
REMARK    3  A    between atoms: C_12  and  C_13 
REMARK    4  A    between atoms: C_14  and  C_15 
ROOT
HETATM    1  C   UNL     1       6.238  27.056  54.807  1.00  0.00     0.016 A 
HETATM    2  C   UNL     1       5.951  25.818  54.134  1.00  0.00     0.096 A 
HETATM    3  N   UNL     1       4.833  25.913  53.408  1.00  0.00    -0.174 NA
HETATM    4  N   UNL     1       4.353  27.130  53.664  1.00  0.00    -0.288 N 
HETATM    5  H   UNL     1       3.474  27.401  53.229  1.00  0.00     0.188 HD
HETATM    6  C   UNL     1       5.157  27.860  54.495  1.00  0.00     0.120 A 
ENDROOT
BRANCH   1   7
HETATM    7  C   UNL     1       7.442  27.312  55.644  1.00  0.00     0.277 C 
BRANCH   7   8
HETATM    8  N   UNL     1       7.320  27.497  57.144  1.00  0.00    -0.065 N 
HETATM    9  H   UNL     1       6.378  27.879  57.294  1.00  0.00     0.280 HD
HETATM   10  C   UNL     1       7.406  26.205  57.902  1.00  0.00     0.270 C 
BRANCH   8  11
HETATM   11  C   UNL     1       8.350  28.454  57.665  1.00  0.00     0.205 C 
HETATM   12  C   UNL     1       7.819  29.879  58.069  1.00  0.00     0.008 C 
HETATM   13  C   UNL     1       6.454  30.357  57.562  1.00  0.00     0.020 C 
HETATM   14  C   UNL     1       7.964  30.156  59.569  1.00  0.00     0.020 C 
HETATM   15  C   UNL     1       8.946  30.498  57.206  1.00  0.00     0.137 C 
HETATM   16  C   UNL     1       9.228  29.127  56.567  1.00  0.00     0.049 C 
HETATM   17  O   UNL     1      10.158  30.944  57.842  1.00  0.00    -0.385 OA
HETATM   18  C   UNL     1      10.747  28.988  56.742  1.00  0.00     0.035 C 
HETATM   19  C   UNL     1      11.250  30.382  57.110  1.00  0.00     0.168 C 
ENDBRANCH   8  11
ENDBRANCH   7   8
ENDBRANCH   1   7
BRANCH   2  20
HETATM   20  C   UNL     1       6.719  24.575  54.153  1.00  0.00    -0.002 A 
HETATM   21  C   UNL     1       6.915  23.876  55.352  1.00  0.00     0.053 A 
HETATM   22  C   UNL     1       7.655  22.694  55.358  1.00  0.00     0.103 A 
HETATM   23  C   UNL     1       8.217  22.207  54.178  1.00  0.00     0.102 A 
HETATM   24  O   UNL     1       7.792  22.066  56.572  1.00  0.00    -0.346 OA
HETATM   25  O   UNL     1       8.974  21.067  54.118  1.00  0.00    -0.346 OA
HETATM   26  C   UNL     1       8.002  22.879  52.977  1.00  0.00     0.040 A 
HETATM   27  C   UNL     1       9.365  20.616  55.421  1.00  0.00     0.202 C 
HETATM   28  C   UNL     1       8.203  20.702  56.398  1.00  0.00     0.202 C 
HETATM   29  C   UNL     1       7.253  24.058  52.963  1.00  0.00     0.017 A 
ENDBRANCH   2  20
TORSDOF 4
ENDMDL
MODEL 5
REMARK VINA RESULT:      -8.8      1.790      2.937
REMARK  4 active torsions:
REMARK  status: ('A' for Active; 'I' for Inactive)
REMARK    1  A    between atoms: C_9  and  N_10 
REMARK    2  A    between atoms: N_10  and  C_12 
REMARK    3  A    between atoms: C_12  and  C_13 
REMARK    4  A    between atoms: C_14  and  C_15 
ROOT
HETATM    1  C   UNL     1       9.059  30.016  58.159  1.00  0.00     0.016 A 
HETATM    2  C   UNL     1       9.120  31.265  58.870  1.00  0.00     0.096 A 
HETATM    3  N   UNL     1      10.166  31.994  58.471  1.00  0.00    -0.174 NA
HETATM    4  N   UNL     1      10.819  31.223  57.602  1.00  0.00    -0.288 N 
HETATM    5  H   UNL     1      11.680  31.581  57.194  1.00  0.00     0.188 HD
HETATM    6  C   UNL     1      10.198  30.026  57.376  1.00  0.00     0.120 A 
ENDROOT
BRANCH   1   7
HETATM    7  C   UNL     1       7.983  28.999  58.314  1.00  0.00     0.277 C 
BRANCH   7   8
HETATM    8  N   UNL     1       7.667  28.027  57.193  1.00  0.00    -0.065 N 
HETATM    9  H   UNL     1       8.354  28.229  56.457  1.00  0.00     0.280 HD
HETATM   10  C   UNL     1       7.850  26.592  57.594  1.00  0.00     0.270 C 
BRANCH   8  11
HETATM   11  C   UNL     1       6.278  28.228  56.667  1.00  0.00     0.205 C 
HETATM   12  C   UNL     1       6.110  28.095  55.108  1.00  0.00     0.008 C 
HETATM   13  C   UNL     1       7.340  28.181  54.198  1.00  0.00     0.020 C 
HETATM   14  C   UNL     1       5.228  26.908  54.711  1.00  0.00     0.020 C 
HETATM   15  C   UNL     1       5.366  29.454  55.115  1.00  0.00     0.137 C 
HETATM   16  C   UNL     1       5.832  29.717  56.557  1.00  0.00     0.049 C 
HETATM   17  O   UNL     1       3.927  29.470  55.109  1.00  0.00    -0.385 OA
HETATM   18  C   UNL     1       4.520  30.081  57.267  1.00  0.00     0.035 C 
HETATM   19  C   UNL     1       3.510  30.352  56.154  1.00  0.00     0.168 C 
ENDBRANCH   8  11
ENDBRANCH   7   8
ENDBRANCH   1   7
BRANCH   2  20
HETATM   20  C   UNL     1       8.206  31.775  59.890  1.00  0.00    -0.002 A 
HETATM   21  C   UNL     1       8.621  31.898  61.223  1.00  0.00     0.053 A 
HETATM   22  C   UNL     1       7.737  32.381  62.188  1.00  0.00     0.103 A 
HETATM   23  C   UNL     1       6.432  32.728  61.838  1.00  0.00     0.102 A 
HETATM   24  O   UNL     1       8.225  32.480  63.467  1.00  0.00    -0.346 OA
HETATM   25  O   UNL     1       5.507  33.184  62.740  1.00  0.00    -0.346 OA
HETATM   26  C   UNL     1       6.021  32.637  60.511  1.00  0.00     0.040 A 
HETATM   27  C   UNL     1       5.931  32.977  64.093  1.00  0.00     0.202 C 
HETATM   28  C   UNL     1       7.398  33.339  64.265  1.00  0.00     0.202 C 
HETATM   29  C   UNL     1       6.905  32.164  59.538  1.00  0.00     0.017 A 
ENDBRANCH   2  20
TORSDOF 4
ENDMDL
MODEL 6
REMARK VINA RESULT:      -8.6      3.601      8.939
REMARK  4 active torsions:
REMARK  status: ('A' for Active; 'I' for Inactive)
REMARK    1  A    between atoms: C_9  and  N_10 
REMARK    2  A    between atoms: N_10  and  C_12 
REMARK    3  A    between atoms: C_12  and  C_13 
REMARK    4  A    between atoms: C_14  and  C_15 
ROOT
HETATM    1  C   UNL     1       6.511  26.479  53.829  1.00  0.00     0.016 A 
HETATM    2  C   UNL     1       6.840  25.301  53.072  1.00  0.00     0.096 A 
HETATM    3  N   UNL     1       6.648  25.501  51.764  1.00  0.00    -0.174 NA
HETATM    4  N   UNL     1       6.127  26.724  51.671  1.00  0.00    -0.288 N 
HETATM    5  H   UNL     1       5.872  27.068  50.748  1.00  0.00     0.188 HD
HETATM    6  C   UNL     1       6.025  27.357  52.878  1.00  0.00     0.120 A 
ENDROOT
BRANCH   1   7
HETATM    7  C   UNL     1       6.673  26.618  55.302  1.00  0.00     0.277 C 
BRANCH   7   8
HETATM    8  N   UNL     1       5.490  26.972  56.183  1.00  0.00    -0.065 N 
HETATM    9  H   UNL     1       4.729  27.204  55.534  1.00  0.00     0.280 HD
HETATM   10  C   UNL     1       5.025  25.822  57.028  1.00  0.00     0.270 C 
BRANCH   8  11
HETATM   11  C   UNL     1       5.793  28.149  57.060  1.00  0.00     0.205 C 
HETATM   12  C   UNL     1       5.132  29.512  56.631  1.00  0.00     0.008 C 
HETATM   13  C   UNL     1       4.589  29.681  55.208  1.00  0.00     0.020 C 
HETATM   14  C   UNL     1       4.117  30.021  57.659  1.00  0.00     0.020 C 
HETATM   15  C   UNL     1       6.527  30.175  56.744  1.00  0.00     0.137 C 
HETATM   16  C   UNL     1       7.193  28.792  56.828  1.00  0.00     0.049 C 
HETATM   17  O   UNL     1       6.867  30.901  57.940  1.00  0.00    -0.385 OA
HETATM   18  C   UNL     1       8.085  28.931  58.071  1.00  0.00     0.035 C 
HETATM   19  C   UNL     1       8.145  30.426  58.371  1.00  0.00     0.168 C 
ENDBRANCH   8  11
ENDBRANCH   7   8
ENDBRANCH   1   7
BRANCH   2  20
HETATM   20  C   UNL     1       7.343  24.019  53.559  1.00  0.00    -0.002 A 
HETATM   21  C   UNL     1       7.561  23.813  54.929  1.00  0.00     0.053 A 
HETATM   22  C   UNL     1       8.049  22.586  55.381  1.00  0.00     0.103 A 
HETATM   23  C   UNL     1       8.336  21.564  54.476  1.00  0.00     0.102 A 
HETATM   24  O   UNL     1       8.225  22.462  56.737  1.00  0.00    -0.346 OA
HETATM   25  O   UNL     1       8.839  20.346  54.850  1.00  0.00    -0.346 OA
HETATM   26  C   UNL     1       8.094  21.751  53.117  1.00  0.00     0.040 A 
HETATM   27  C   UNL     1       9.309  20.354  56.204  1.00  0.00     0.202 C 
HETATM   28  C   UNL     1       8.333  21.082  57.115  1.00  0.00     0.202 C 
HETATM   29  C   UNL     1       7.597  22.973  52.659  1.00  0.00     0.017 A 
ENDBRANCH   2  20
TORSDOF 4
ENDMDL
MODEL 7
REMARK VINA RESULT:      -8.6      4.369      8.798
REMARK  4 active torsions:
REMARK  status: ('A' for Active; 'I' for Inactive)
REMARK    1  A    between atoms: C_9  and  N_10 
REMARK    2  A    between atoms: N_10  and  C_12 
REMARK    3  A    between atoms: C_12  and  C_13 
REMARK    4  A    between atoms: C_14  and  C_15 
ROOT
HETATM    1  C   UNL     1       5.473  27.503  51.819  1.00  0.00     0.016 A 
HETATM    2  C   UNL     1       5.486  26.068  51.906  1.00  0.00     0.096 A 
HETATM    3  N   UNL     1       4.912  25.516  50.833  1.00  0.00    -0.174 NA
HETATM    4  N   UNL     1       4.457  26.542  50.114  1.00  0.00    -0.288 N 
HETATM    5  H   UNL     1       3.950  26.339  49.255  1.00  0.00     0.188 HD
HETATM    6  C   UNL     1       4.768  27.757  50.657  1.00  0.00     0.120 A 
ENDROOT
BRANCH   1   7
HETATM    7  C   UNL     1       6.090  28.424  52.814  1.00  0.00     0.277 C 
BRANCH   7   8
HETATM    8  N   UNL     1       5.237  29.129  53.851  1.00  0.00    -0.065 N 
HETATM    9  H   UNL     1       5.344  30.131  53.654  1.00  0.00     0.280 HD
HETATM   10  C   UNL     1       3.777  28.802  53.728  1.00  0.00     0.270 C 
BRANCH   8  11
HETATM   11  C   UNL     1       5.703  28.826  55.243  1.00  0.00     0.205 C 
HETATM   12  C   UNL     1       5.510  29.980  56.296  1.00  0.00     0.008 C 
HETATM   13  C   UNL     1       5.265  31.415  55.819  1.00  0.00     0.020 C 
HETATM   14  C   UNL     1       4.522  29.604  57.404  1.00  0.00     0.020 C 
HETATM   15  C   UNL     1       6.996  29.806  56.696  1.00  0.00     0.137 C 
HETATM   16  C   UNL     1       7.244  28.936  55.452  1.00  0.00     0.049 C 
HETATM   17  O   UNL     1       7.327  29.019  57.855  1.00  0.00    -0.385 OA
HETATM   18  C   UNL     1       7.932  27.699  56.047  1.00  0.00     0.035 C 
HETATM   19  C   UNL     1       8.345  28.096  57.462  1.00  0.00     0.168 C 
ENDBRANCH   8  11
ENDBRANCH   7   8
ENDBRANCH   1   7
BRANCH   2  20
HETATM   20  C   UNL     1       6.043  25.227  52.964  1.00  0.00    -0.002 A 
HETATM   21  C   UNL     1       7.045  24.291  52.678  1.00  0.00     0.053 A 
HETATM   22  C   UNL     1       7.564  23.490  53.695  1.00  0.00     0.103 A 
HETATM   23  C   UNL     1       7.080  23.604  54.999  1.00  0.00     0.102 A 
HETATM   24  O   UNL     1       8.549  22.604  53.333  1.00  0.00    -0.346 OA
HETATM   25  O   UNL     1       7.527  22.832  56.038  1.00  0.00    -0.346 OA
HETATM   26  C   UNL     1       6.105  24.553  55.297  1.00  0.00     0.040 A 
HETATM   27  C   UNL     1       8.306  21.719  55.582  1.00  0.00     0.202 C 
HETATM   28  C   UNL     1       9.270  22.142  54.485  1.00  0.00     0.202 C 
HETATM   29  C   UNL     1       5.589  25.365  54.284  1.00  0.00     0.017 A 
ENDBRANCH   2  20
TORSDOF 4
ENDMDL
MODEL 8
REMARK VINA RESULT:      -8.5      3.021      4.896
REMARK  4 active torsions:
REMARK  status: ('A' for Active; 'I' for Inactive)
REMARK    1  A    between atoms: C_9  and  N_10 
REMARK    2  A    between atoms: N_10  and  C_12 
REMARK    3  A    between atoms: C_12  and  C_13 
REMARK    4  A    between atoms: C_14  and  C_15 
ROOT
HETATM    1  C   UNL     1       5.617  27.233  54.889  1.00  0.00     0.016 A 
HETATM    2  C   UNL     1       5.125  28.531  55.263  1.00  0.00     0.096 A 
HETATM    3  N   UNL     1       4.024  28.845  54.573  1.00  0.00    -0.174 NA
HETATM    4  N   UNL     1       3.850  27.839  53.717  1.00  0.00    -0.288 N 
HETATM    5  H   UNL     1       3.071  27.894  53.064  1.00  0.00     0.188 HD
HETATM    6  C   UNL     1       4.775  26.844  53.863  1.00  0.00     0.120 A 
ENDROOT
BRANCH   1   7
HETATM    7  C   UNL     1       6.787  26.553  55.510  1.00  0.00     0.277 C 
BRANCH   7   8
HETATM    8  N   UNL     1       6.591  25.398  56.473  1.00  0.00    -0.065 N 
HETATM    9  H   UNL     1       7.186  25.615  57.281  1.00  0.00     0.280 HD
HETATM   10  C   UNL     1       5.181  25.283  56.972  1.00  0.00     0.270 C 
BRANCH   8  11
HETATM   11  C   UNL     1       7.014  24.096  55.860  1.00  0.00     0.205 C 
HETATM   12  C   UNL     1       8.347  23.476  56.422  1.00  0.00     0.008 C 
HETATM   13  C   UNL     1       9.324  24.354  57.211  1.00  0.00     0.020 C 
HETATM   14  C   UNL     1       8.117  22.144  57.142  1.00  0.00     0.020 C 
HETATM   15  C   UNL     1       8.841  23.322  54.961  1.00  0.00     0.137 C 
HETATM   16  C   UNL     1       7.698  24.224  54.466  1.00  0.00     0.049 C 
HETATM   17  O   UNL     1       8.712  22.048  54.304  1.00  0.00    -0.385 OA
HETATM   18  C   UNL     1       7.083  23.386  53.335  1.00  0.00     0.035 C 
HETATM   19  C   UNL     1       8.101  22.289  53.034  1.00  0.00     0.168 C 
ENDBRANCH   8  11
ENDBRANCH   7   8
ENDBRANCH   1   7
BRANCH   2  20
HETATM   20  C   UNL     1       5.663  29.454  56.260  1.00  0.00    -0.002 A 
HETATM   21  C   UNL     1       6.657  29.036  57.156  1.00  0.00     0.053 A 
HETATM   22  C   UNL     1       7.157  29.925  58.108  1.00  0.00     0.103 A 
HETATM   23  C   UNL     1       6.664  31.227  58.186  1.00  0.00     0.102 A 
HETATM   24  O   UNL     1       8.135  29.439  58.941  1.00  0.00    -0.346 OA
HETATM   25  O   UNL     1       7.093  32.141  59.111  1.00  0.00    -0.346 OA
HETATM   26  C   UNL     1       5.698  31.659  57.280  1.00  0.00     0.040 A 
HETATM   27  C   UNL     1       7.863  31.528  60.152  1.00  0.00     0.202 C 
HETATM   28  C   UNL     1       8.841  30.513  59.581  1.00  0.00     0.202 C 
HETATM   29  C   UNL     1       5.200  30.777  56.318  1.00  0.00     0.017 A 
ENDBRANCH   2  20
TORSDOF 4
ENDMDL
MODEL 9
REMARK VINA RESULT:      -8.4      2.849      4.409
REMARK  4 active torsions:
REMARK  status: ('A' for Active; 'I' for Inactive)
REMARK    1  A    between atoms: C_9  and  N_10 
REMARK    2  A    between atoms: N_10  and  C_12 
REMARK    3  A    between atoms: C_12  and  C_13 
REMARK    4  A    between atoms: C_14  and  C_15 
ROOT
HETATM    1  C   UNL     1       4.889  28.500  54.754  1.00  0.00     0.016 A 
HETATM    2  C   UNL     1       5.094  29.624  55.627  1.00  0.00     0.096 A 
HETATM    3  N   UNL     1       4.250  30.619  55.336  1.00  0.00    -0.174 NA
HETATM    4  N   UNL     1       3.582  30.206  54.259  1.00  0.00    -0.288 N 
HETATM    5  H   UNL     1       2.899  30.838  53.846  1.00  0.00     0.188 HD
HETATM    6  C   UNL     1       3.923  28.942  53.869  1.00  0.00     0.120 A 
ENDROOT
BRANCH   1   7
HETATM    7  C   UNL     1       5.615  27.204  54.849  1.00  0.00     0.277 C 
BRANCH   7   8
HETATM    8  N   UNL     1       6.768  26.890  53.915  1.00  0.00    -0.065 N 
HETATM    9  H   UNL     1       6.342  26.774  52.988  1.00  0.00     0.280 HD
HETATM   10  C   UNL     1       7.762  28.010  53.815  1.00  0.00     0.270 C 
BRANCH   8  11
HETATM   11  C   UNL     1       7.471  25.629  54.317  1.00  0.00     0.205 C 
HETATM   12  C   UNL     1       6.985  24.315  53.600  1.00  0.00     0.008 C 
HETATM   13  C   UNL     1       5.630  24.293  52.886  1.00  0.00     0.020 C 
HETATM   14  C   UNL     1       8.070  23.692  52.717  1.00  0.00     0.020 C 
HETATM   15  C   UNL     1       6.854  23.653  54.995  1.00  0.00     0.137 C 
HETATM   16  C   UNL     1       7.002  25.025  55.675  1.00  0.00     0.049 C 
HETATM   17  O   UNL     1       7.915  22.808  55.476  1.00  0.00    -0.385 OA
HETATM   18  C   UNL     1       8.103  24.762  56.712  1.00  0.00     0.035 C 
HETATM   19  C   UNL     1       8.234  23.244  56.800  1.00  0.00     0.168 C 
ENDBRANCH   8  11
ENDBRANCH   7   8
ENDBRANCH   1   7
BRANCH   2  20
HETATM   20  C   UNL     1       6.047  29.759  56.727  1.00  0.00    -0.002 A 
HETATM   21  C   UNL     1       6.226  30.992  57.368  1.00  0.00     0.053 A 
HETATM   22  C   UNL     1       7.144  31.109  58.412  1.00  0.00     0.103 A 
HETATM   23  C   UNL     1       7.899  30.006  58.815  1.00  0.00     0.102 A 
HETATM   24  O   UNL     1       7.253  32.348  58.994  1.00  0.00    -0.346 OA
HETATM   25  O   UNL     1       8.833  30.059  59.815  1.00  0.00    -0.346 OA
HETATM   26  C   UNL     1       7.705  28.771  58.203  1.00  0.00     0.040 A 
HETATM   27  C   UNL     1       9.153  31.407  60.180  1.00  0.00     0.202 C 
HETATM   28  C   UNL     1       7.896  32.258  60.273  1.00  0.00     0.202 C 
HETATM   29  C   UNL     1       6.780  28.645  57.163  1.00  0.00     0.017 A 
ENDBRANCH   2  20
TORSDOF 4
ENDMDL
MODEL 10
REMARK VINA RESULT:      -8.3      3.011      9.145
REMARK  4 active torsions:
REMARK  status: ('A' for Active; 'I' for Inactive)
REMARK    1  A    between atoms: C_9  and  N_10 
REMARK    2  A    between atoms: N_10  and  C_12 
REMARK    3  A    between atoms: C_12  and  C_13 
REMARK    4  A    between atoms: C_14  and  C_15 
ROOT
HETATM    1  C   UNL     1       6.437  27.347  53.250  1.00  0.00     0.016 A 
HETATM    2  C   UNL     1       6.364  25.973  52.833  1.00  0.00     0.096 A 
HETATM    3  N   UNL     1       5.835  25.869  51.610  1.00  0.00    -0.174 NA
HETATM    4  N   UNL     1       5.489  27.111  51.272  1.00  0.00    -0.288 N 
HETATM    5  H   UNL     1       5.031  27.255  50.375  1.00  0.00     0.188 HD
HETATM    6  C   UNL     1       5.829  28.038  52.217  1.00  0.00     0.120 A 
ENDROOT
BRANCH   1   7
HETATM    7  C   UNL     1       7.034  27.819  54.529  1.00  0.00     0.277 C 
BRANCH   7   8
HETATM    8  N   UNL     1       6.232  28.674  55.490  1.00  0.00    -0.065 N 
HETATM    9  H   UNL     1       5.643  29.270  54.897  1.00  0.00     0.280 HD
HETATM   10  C   UNL     1       5.317  27.870  56.366  1.00  0.00     0.270 C 
BRANCH   8  11
HETATM   11  C   UNL     1       7.124  29.524  56.344  1.00  0.00     0.205 C 
HETATM   12  C   UNL     1       8.327  28.778  57.032  1.00  0.00     0.008 C 
HETATM   13  C   UNL     1       8.310  27.250  57.149  1.00  0.00     0.020 C 
HETATM   14  C   UNL     1       9.688  29.264  56.524  1.00  0.00     0.020 C 
HETATM   15  C   UNL     1       7.896  29.413  58.378  1.00  0.00     0.137 C 
HETATM   16  C   UNL     1       6.558  29.849  57.759  1.00  0.00     0.049 C 
HETATM   17  O   UNL     1       8.569  30.596  58.846  1.00  0.00    -0.385 OA
HETATM   18  C   UNL     1       6.491  31.337  58.132  1.00  0.00     0.035 C 
HETATM   19  C   UNL     1       7.559  31.542  59.203  1.00  0.00     0.168 C 
ENDBRANCH   8  11
ENDBRANCH   7   8
ENDBRANCH   1   7
BRANCH   2  20
HETATM   20  C   UNL     1       6.799  24.780  53.556  1.00  0.00    -0.002 A 
HETATM   21  C   UNL     1       7.258  23.652  52.862  1.00  0.00     0.053 A 
HETATM   22  C   UNL     1       7.664  22.517  53.564  1.00  0.00     0.103 A 
HETATM   23  C   UNL     1       7.602  22.490  54.958  1.00  0.00     0.102 A 
HETATM   24  O   UNL     1       8.108  21.459  52.810  1.00  0.00    -0.346 OA
HETATM   25  O   UNL     1       7.961  21.401  55.706  1.00  0.00    -0.346 OA
HETATM   26  C   UNL     1       7.176  23.617  55.656  1.00  0.00     0.040 A 
HETATM   27  C   UNL     1       8.112  20.224  54.902  1.00  0.00     0.202 C 
HETATM   28  C   UNL     1       8.858  20.537  53.614  1.00  0.00     0.202 C 
HETATM   29  C   UNL     1       6.777  24.760  54.959  1.00  0.00     0.017 A 
ENDBRANCH   2  20
TORSDOF 4
ENDMDL
