MODEL 1
REMARK VINA RESULT:      -9.3      0.000      0.000
REMARK  6 active torsions:
REMARK  status: ('A' for Active; 'I' for Inactive)
REMARK    1  A    between atoms: C_2  and  O_3 
REMARK    2  A    between atoms: O_3  and  C_4 
REMARK    3  A    between atoms: C_7  and  C_8 
REMARK    4  A    between atoms: C_8  and  N_9 
REMARK       I    between atoms: N_9  and  C_10 
REMARK    5  A    between atoms: C_10  and  C_11 
REMARK    6  A    between atoms: C_15  and  C_16 
ROOT
HETATM    1  N   UNL     1       8.844  30.148  58.081  1.00  0.00    -0.347 N 
HETATM    2  C   UNL     1       9.289  31.215  58.831  1.00  0.00     0.272 C 
HETATM    3  O   UNL     1      10.061  32.070  58.404  1.00  0.00    -0.266 OA
HETATM    4  H   UNL     1       8.277  29.470  58.580  1.00  0.00     0.163 HD
ENDROOT
BRANCH   2   5
HETATM    5  C   UNL     1       8.790  31.224  60.212  1.00  0.00     0.146 A 
HETATM    6  N   UNL     1       9.093  30.263  61.106  1.00  0.00    -0.169 NA
HETATM    7  N   UNL     1       8.496  30.678  62.238  1.00  0.00    -0.277 N 
HETATM    8  H   UNL     1       8.615  30.111  63.069  1.00  0.00     0.189 HD
HETATM    9  C   UNL     1       7.802  31.858  62.127  1.00  0.00     0.063 A 
HETATM   10  C   UNL     1       7.981  32.225  60.806  1.00  0.00     0.071 A 
BRANCH   9  11
HETATM   11  C   UNL     1       7.091  32.519  63.227  1.00  0.00    -0.008 A 
HETATM   12  C   UNL     1       7.815  33.161  64.247  1.00  0.00     0.014 A 
HETATM   13  C   UNL     1       7.162  33.793  65.309  1.00  0.00     0.001 A 
HETATM   14  C   UNL     1       5.773  33.794  65.372  1.00  0.00     0.000 A 
HETATM   15  C   UNL     1       5.038  33.165  64.371  1.00  0.00     0.001 A 
HETATM   16  C   UNL     1       5.691  32.534  63.305  1.00  0.00     0.014 A 
ENDBRANCH   9  11
ENDBRANCH   2   5
BRANCH   1  17
HETATM   17  C   UNL     1       9.454  29.810  56.814  1.00  0.00     0.114 C 
HETATM   18  C   UNL     1      10.945  29.508  56.997  1.00  0.00     0.037 C 
BRANCH  17  19
HETATM   19  C   UNL     1       8.720  28.673  56.131  1.00  0.00    -0.036 A 
HETATM   20  C   UNL     1       8.350  27.544  56.879  1.00  0.00     0.012 A 
HETATM   21  C   UNL     1       7.607  26.515  56.299  1.00  0.00     0.037 A 
HETATM   22  C   UNL     1       7.212  26.596  54.966  1.00  0.00     0.068 A 
HETATM   23  C   UNL     1       7.621  27.681  54.193  1.00  0.00     0.037 A 
HETATM   24  C   UNL     1       8.371  28.714  54.773  1.00  0.00     0.012 A 
BRANCH  22  25
HETATM   25  O   UNL     1       6.447  25.553  54.520  1.00  0.00    -0.352 OA
BRANCH  25  26
HETATM   26  C   UNL     1       7.055  24.264  54.599  1.00  0.00     0.171 C 
HETATM   27  C   UNL     1       7.787  24.013  53.292  1.00  0.00     0.034 C 
ENDBRANCH  25  26
ENDBRANCH  22  25
ENDBRANCH  17  19
ENDBRANCH   1  17
TORSDOF 6
ENDMDL
MODEL 2
REMARK VINA RESULT:      -9.2      2.624      9.863
REMARK  6 active torsions:
REMARK  status: ('A' for Active; 'I' for Inactive)
REMARK    1  A    between atoms: C_2  and  O_3 
REMARK    2  A    between atoms: O_3  and  C_4 
REMARK    3  A    between atoms: C_7  and  C_8 
REMARK    4  A    between atoms: C_8  and  N_9 
REMARK       I    between atoms: N_9  and  C_10 
REMARK    5  A    between atoms: C_10  and  C_11 
REMARK    6  A    between atoms: C_15  and  C_16 
ROOT
HETATM    1  N   UNL     1       7.739  28.861  58.079  1.00  0.00    -0.347 N 
HETATM    2  C   UNL     1       8.061  28.207  56.910  1.00  0.00     0.272 C 
HETATM    3  O   UNL     1       8.306  28.785  55.854  1.00  0.00    -0.266 OA
HETATM    4  H   UNL     1       7.477  28.262  58.856  1.00  0.00     0.163 HD
ENDROOT
BRANCH   2   5
HETATM    5  C   UNL     1       8.048  26.743  57.021  1.00  0.00     0.146 A 
HETATM    6  N   UNL     1       7.931  26.100  58.198  1.00  0.00    -0.169 NA
HETATM    7  N   UNL     1       7.902  24.799  57.852  1.00  0.00    -0.277 N 
HETATM    8  H   UNL     1       7.787  24.117  58.592  1.00  0.00     0.189 HD
HETATM    9  C   UNL     1       8.009  24.558  56.504  1.00  0.00     0.063 A 
HETATM   10  C   UNL     1       8.111  25.819  55.947  1.00  0.00     0.071 A 
BRANCH   9  11
HETATM   11  C   UNL     1       7.979  23.227  55.888  1.00  0.00    -0.008 A 
HETATM   12  C   UNL     1       7.780  23.097  54.503  1.00  0.00     0.014 A 
HETATM   13  C   UNL     1       7.742  21.841  53.891  1.00  0.00     0.001 A 
HETATM   14  C   UNL     1       7.902  20.690  54.655  1.00  0.00     0.000 A 
HETATM   15  C   UNL     1       8.103  20.796  56.028  1.00  0.00     0.001 A 
HETATM   16  C   UNL     1       8.143  22.055  56.640  1.00  0.00     0.014 A 
ENDBRANCH   9  11
ENDBRANCH   2   5
BRANCH   1  17
HETATM   17  C   UNL     1       7.412  30.269  58.090  1.00  0.00     0.114 C 
HETATM   18  C   UNL     1       5.943  30.485  57.713  1.00  0.00     0.037 C 
BRANCH  17  19
HETATM   19  C   UNL     1       7.761  30.909  59.420  1.00  0.00    -0.036 A 
HETATM   20  C   UNL     1       6.970  31.961  59.907  1.00  0.00     0.012 A 
HETATM   21  C   UNL     1       7.218  32.519  61.162  1.00  0.00     0.037 A 
HETATM   22  C   UNL     1       8.252  32.033  61.958  1.00  0.00     0.068 A 
HETATM   23  C   UNL     1       9.085  31.029  61.465  1.00  0.00     0.037 A 
HETATM   24  C   UNL     1       8.840  30.471  60.203  1.00  0.00     0.012 A 
BRANCH  22  25
HETATM   25  O   UNL     1       8.370  32.624  63.187  1.00  0.00    -0.352 OA
BRANCH  25  26
HETATM   26  C   UNL     1       7.165  32.711  63.947  1.00  0.00     0.171 C 
HETATM   27  C   UNL     1       7.340  33.818  64.973  1.00  0.00     0.034 C 
ENDBRANCH  25  26
ENDBRANCH  22  25
ENDBRANCH  17  19
ENDBRANCH   1  17
TORSDOF 6
ENDMDL
MODEL 3
REMARK VINA RESULT:      -8.9      3.420     10.212
REMARK  6 active torsions:
REMARK  status: ('A' for Active; 'I' for Inactive)
REMARK    1  A    between atoms: C_2  and  O_3 
REMARK    2  A    between atoms: O_3  and  C_4 
REMARK    3  A    between atoms: C_7  and  C_8 
REMARK    4  A    between atoms: C_8  and  N_9 
REMARK       I    between atoms: N_9  and  C_10 
REMARK    5  A    between atoms: C_10  and  C_11 
REMARK    6  A    between atoms: C_15  and  C_16 
ROOT
HETATM    1  N   UNL     1       6.661  27.802  55.100  1.00  0.00    -0.347 N 
HETATM    2  C   UNL     1       6.695  27.549  53.745  1.00  0.00     0.272 C 
HETATM    3  O   UNL     1       6.453  28.397  52.890  1.00  0.00    -0.266 OA
HETATM    4  H   UNL     1       6.799  26.994  55.699  1.00  0.00     0.163 HD
ENDROOT
BRANCH   2   5
HETATM    5  C   UNL     1       7.009  26.156  53.406  1.00  0.00     0.146 A 
HETATM    6  N   UNL     1       7.209  25.738  52.141  1.00  0.00    -0.169 NA
HETATM    7  N   UNL     1       7.524  24.437  52.280  1.00  0.00    -0.277 N 
HETATM    8  H   UNL     1       7.747  23.913  51.441  1.00  0.00     0.189 HD
HETATM    9  C   UNL     1       7.527  23.977  53.574  1.00  0.00     0.063 A 
HETATM   10  C   UNL     1       7.187  25.089  54.322  1.00  0.00     0.071 A 
BRANCH   9  11
HETATM   11  C   UNL     1       7.861  22.605  53.974  1.00  0.00    -0.008 A 
HETATM   12  C   UNL     1       7.866  22.251  55.334  1.00  0.00     0.014 A 
HETATM   13  C   UNL     1       8.186  20.953  55.742  1.00  0.00     0.001 A 
HETATM   14  C   UNL     1       8.506  19.984  54.797  1.00  0.00     0.000 A 
HETATM   15  C   UNL     1       8.504  20.314  53.445  1.00  0.00     0.001 A 
HETATM   16  C   UNL     1       8.182  21.614  53.036  1.00  0.00     0.014 A 
ENDBRANCH   9  11
ENDBRANCH   2   5
BRANCH   1  17
HETATM   17  C   UNL     1       6.086  29.020  55.625  1.00  0.00     0.114 C 
HETATM   18  C   UNL     1       4.664  28.768  56.137  1.00  0.00     0.037 C 
BRANCH  17  19
HETATM   19  C   UNL     1       6.974  29.640  56.687  1.00  0.00    -0.036 A 
HETATM   20  C   UNL     1       8.338  29.312  56.720  1.00  0.00     0.012 A 
HETATM   21  C   UNL     1       9.197  29.924  57.635  1.00  0.00     0.037 A 
HETATM   22  C   UNL     1       8.714  30.878  58.527  1.00  0.00     0.068 A 
HETATM   23  C   UNL     1       7.351  31.171  58.547  1.00  0.00     0.037 A 
HETATM   24  C   UNL     1       6.486  30.555  57.632  1.00  0.00     0.012 A 
BRANCH  22  25
HETATM   25  O   UNL     1       9.655  31.444  59.343  1.00  0.00    -0.352 OA
BRANCH  25  26
HETATM   26  C   UNL     1       9.150  32.307  60.362  1.00  0.00     0.171 C 
HETATM   27  C   UNL     1       9.461  31.672  61.706  1.00  0.00     0.034 C 
ENDBRANCH  25  26
ENDBRANCH  22  25
ENDBRANCH  17  19
ENDBRANCH   1  17
TORSDOF 6
ENDMDL
MODEL 4
REMARK VINA RESULT:      -8.9      2.627     10.029
REMARK  6 active torsions:
REMARK  status: ('A' for Active; 'I' for Inactive)
REMARK    1  A    between atoms: C_2  and  O_3 
REMARK    2  A    between atoms: O_3  and  C_4 
REMARK    3  A    between atoms: C_7  and  C_8 
REMARK    4  A    between atoms: C_8  and  N_9 
REMARK       I    between atoms: N_9  and  C_10 
REMARK    5  A    between atoms: C_10  and  C_11 
REMARK    6  A    between atoms: C_15  and  C_16 
ROOT
HETATM    1  N   UNL     1       7.220  28.611  57.140  1.00  0.00    -0.347 N 
HETATM    2  C   UNL     1       7.399  27.983  55.927  1.00  0.00     0.272 C 
HETATM    3  O   UNL     1       7.444  28.579  54.854  1.00  0.00    -0.266 OA
HETATM    4  H   UNL     1       7.117  27.995  57.940  1.00  0.00     0.163 HD
ENDROOT
BRANCH   2   5
HETATM    5  C   UNL     1       7.493  26.520  56.020  1.00  0.00     0.146 A 
HETATM    6  N   UNL     1       7.360  25.852  57.182  1.00  0.00    -0.169 NA
HETATM    7  N   UNL     1       7.451  24.559  56.819  1.00  0.00    -0.277 N 
HETATM    8  H   UNL     1       7.349  23.857  57.543  1.00  0.00     0.189 HD
HETATM    9  C   UNL     1       7.651  24.347  55.477  1.00  0.00     0.063 A 
HETATM   10  C   UNL     1       7.686  25.621  54.941  1.00  0.00     0.071 A 
BRANCH   9  11
HETATM   11  C   UNL     1       7.758  23.028  54.844  1.00  0.00    -0.008 A 
HETATM   12  C   UNL     1       7.730  21.865  55.633  1.00  0.00     0.014 A 
HETATM   13  C   UNL     1       7.835  20.596  55.055  1.00  0.00     0.001 A 
HETATM   14  C   UNL     1       7.970  20.467  53.677  1.00  0.00     0.000 A 
HETATM   15  C   UNL     1       7.997  21.606  52.878  1.00  0.00     0.001 A 
HETATM   16  C   UNL     1       7.890  22.877  53.456  1.00  0.00     0.014 A 
ENDBRANCH   9  11
ENDBRANCH   2   5
BRANCH   1  17
HETATM   17  C   UNL     1       6.814  29.997  57.219  1.00  0.00     0.114 C 
HETATM   18  C   UNL     1       5.313  30.135  56.942  1.00  0.00     0.037 C 
BRANCH  17  19
HETATM   19  C   UNL     1       7.209  30.616  58.545  1.00  0.00    -0.036 A 
HETATM   20  C   UNL     1       8.291  30.080  59.260  1.00  0.00     0.012 A 
HETATM   21  C   UNL     1       8.729  30.674  60.445  1.00  0.00     0.037 A 
HETATM   22  C   UNL     1       8.101  31.817  60.934  1.00  0.00     0.068 A 
HETATM   23  C   UNL     1       6.987  32.328  60.269  1.00  0.00     0.037 A 
HETATM   24  C   UNL     1       6.544  31.730  59.081  1.00  0.00     0.012 A 
BRANCH  22  25
HETATM   25  O   UNL     1       8.646  32.339  62.076  1.00  0.00    -0.352 OA
BRANCH  25  26
HETATM   26  C   UNL     1       8.000  31.967  63.294  1.00  0.00     0.171 C 
HETATM   27  C   UNL     1       7.694  33.239  64.066  1.00  0.00     0.034 C 
ENDBRANCH  25  26
ENDBRANCH  22  25
ENDBRANCH  17  19
ENDBRANCH   1  17
TORSDOF 6
ENDMDL
MODEL 5
REMARK VINA RESULT:      -8.8      8.666     11.304
REMARK  6 active torsions:
REMARK  status: ('A' for Active; 'I' for Inactive)
REMARK    1  A    between atoms: C_2  and  O_3 
REMARK    2  A    between atoms: O_3  and  C_4 
REMARK    3  A    between atoms: C_7  and  C_8 
REMARK    4  A    between atoms: C_8  and  N_9 
REMARK       I    between atoms: N_9  and  C_10 
REMARK    5  A    between atoms: C_10  and  C_11 
REMARK    6  A    between atoms: C_15  and  C_16 
ROOT
HETATM    1  N   UNL     1       5.229  27.009  51.382  1.00  0.00    -0.347 N 
HETATM    2  C   UNL     1       4.875  26.847  52.704  1.00  0.00     0.272 C 
HETATM    3  O   UNL     1       3.968  27.473  53.245  1.00  0.00    -0.266 OA
HETATM    4  H   UNL     1       6.050  26.492  51.083  1.00  0.00     0.163 HD
ENDROOT
BRANCH   2   5
HETATM    5  C   UNL     1       5.709  25.882  53.431  1.00  0.00     0.146 A 
HETATM    6  N   UNL     1       6.195  26.118  54.665  1.00  0.00    -0.169 NA
HETATM    7  N   UNL     1       6.839  24.979  54.980  1.00  0.00    -0.277 N 
HETATM    8  H   UNL     1       7.268  24.917  55.895  1.00  0.00     0.189 HD
HETATM    9  C   UNL     1       6.811  24.011  54.006  1.00  0.00     0.063 A 
HETATM   10  C   UNL     1       6.079  24.588  52.984  1.00  0.00     0.071 A 
BRANCH   9  11
HETATM   11  C   UNL     1       7.421  22.682  54.128  1.00  0.00    -0.008 A 
HETATM   12  C   UNL     1       7.829  21.987  52.978  1.00  0.00     0.014 A 
HETATM   13  C   UNL     1       8.408  20.717  53.067  1.00  0.00     0.001 A 
HETATM   14  C   UNL     1       8.589  20.120  54.309  1.00  0.00     0.000 A 
HETATM   15  C   UNL     1       8.195  20.793  55.461  1.00  0.00     0.001 A 
HETATM   16  C   UNL     1       7.616  22.066  55.373  1.00  0.00     0.014 A 
ENDBRANCH   9  11
ENDBRANCH   2   5
BRANCH   1  17
HETATM   17  C   UNL     1       4.727  28.115  50.597  1.00  0.00     0.114 C 
HETATM   18  C   UNL     1       5.886  28.923  50.003  1.00  0.00     0.037 C 
BRANCH  17  19
HETATM   19  C   UNL     1       3.755  27.643  49.533  1.00  0.00    -0.036 A 
HETATM   20  C   UNL     1       2.559  28.350  49.333  1.00  0.00     0.012 A 
HETATM   21  C   UNL     1       1.679  27.988  48.311  1.00  0.00     0.037 A 
HETATM   22  C   UNL     1       1.979  26.922  47.467  1.00  0.00     0.068 A 
HETATM   23  C   UNL     1       3.133  26.172  47.690  1.00  0.00     0.037 A 
HETATM   24  C   UNL     1       4.016  26.531  48.718  1.00  0.00     0.012 A 
BRANCH  22  25
HETATM   25  O   UNL     1       1.067  26.690  46.473  1.00  0.00    -0.352 OA
BRANCH  25  26
HETATM   26  C   UNL     1       0.087  27.711  46.285  1.00  0.00     0.171 C 
HETATM   27  C   UNL     1      -0.585  27.471  44.944  1.00  0.00     0.034 C 
ENDBRANCH  25  26
ENDBRANCH  22  25
ENDBRANCH  17  19
ENDBRANCH   1  17
TORSDOF 6
ENDMDL
MODEL 6
REMARK VINA RESULT:      -8.6      2.204      9.740
REMARK  6 active torsions:
REMARK  status: ('A' for Active; 'I' for Inactive)
REMARK    1  A    between atoms: C_2  and  O_3 
REMARK    2  A    between atoms: O_3  and  C_4 
REMARK    3  A    between atoms: C_7  and  C_8 
REMARK    4  A    between atoms: C_8  and  N_9 
REMARK       I    between atoms: N_9  and  C_10 
REMARK    5  A    between atoms: C_10  and  C_11 
REMARK    6  A    between atoms: C_15  and  C_16 
ROOT
HETATM    1  N   UNL     1       7.117  29.889  58.290  1.00  0.00    -0.347 N 
HETATM    2  C   UNL     1       8.239  29.275  57.778  1.00  0.00     0.272 C 
HETATM    3  O   UNL     1       9.320  29.842  57.640  1.00  0.00    -0.266 OA
HETATM    4  H   UNL     1       6.268  29.333  58.273  1.00  0.00     0.163 HD
ENDROOT
BRANCH   2   5
HETATM    5  C   UNL     1       8.023  27.881  57.369  1.00  0.00     0.146 A 
HETATM    6  N   UNL     1       7.660  26.913  58.233  1.00  0.00    -0.169 NA
HETATM    7  N   UNL     1       7.513  25.826  57.452  1.00  0.00    -0.277 N 
HETATM    8  H   UNL     1       7.209  24.966  57.894  1.00  0.00     0.189 HD
HETATM    9  C   UNL     1       7.776  26.031  56.120  1.00  0.00     0.063 A 
HETATM   10  C   UNL     1       8.116  27.370  56.050  1.00  0.00     0.071 A 
BRANCH   9  11
HETATM   11  C   UNL     1       7.662  25.006  55.077  1.00  0.00    -0.008 A 
HETATM   12  C   UNL     1       7.648  23.645  55.427  1.00  0.00     0.014 A 
HETATM   13  C   UNL     1       7.545  22.648  54.452  1.00  0.00     0.001 A 
HETATM   14  C   UNL     1       7.455  22.994  53.109  1.00  0.00     0.000 A 
HETATM   15  C   UNL     1       7.465  24.336  52.741  1.00  0.00     0.001 A 
HETATM   16  C   UNL     1       7.566  25.336  53.718  1.00  0.00     0.014 A 
ENDBRANCH   9  11
ENDBRANCH   2   5
BRANCH   1  17
HETATM   17  C   UNL     1       7.055  31.323  58.466  1.00  0.00     0.114 C 
HETATM   18  C   UNL     1       5.814  31.898  57.774  1.00  0.00     0.037 C 
BRANCH  17  19
HETATM   19  C   UNL     1       7.122  31.706  59.931  1.00  0.00    -0.036 A 
HETATM   20  C   UNL     1       8.277  31.405  60.669  1.00  0.00     0.012 A 
HETATM   21  C   UNL     1       8.401  31.812  61.999  1.00  0.00     0.037 A 
HETATM   22  C   UNL     1       7.380  32.533  62.613  1.00  0.00     0.068 A 
HETATM   23  C   UNL     1       6.202  32.789  61.913  1.00  0.00     0.037 A 
HETATM   24  C   UNL     1       6.074  32.377  60.580  1.00  0.00     0.012 A 
BRANCH  22  25
HETATM   25  O   UNL     1       7.633  32.920  63.901  1.00  0.00    -0.352 OA
BRANCH  25  26
HETATM   26  C   UNL     1       6.514  33.440  64.620  1.00  0.00     0.171 C 
HETATM   27  C   UNL     1       7.000  33.865  65.995  1.00  0.00     0.034 C 
ENDBRANCH  25  26
ENDBRANCH  22  25
ENDBRANCH  17  19
ENDBRANCH   1  17
TORSDOF 6
ENDMDL
MODEL 7
REMARK VINA RESULT:      -8.5      2.618      4.611
REMARK  6 active torsions:
REMARK  status: ('A' for Active; 'I' for Inactive)
REMARK    1  A    between atoms: C_2  and  O_3 
REMARK    2  A    between atoms: O_3  and  C_4 
REMARK    3  A    between atoms: C_7  and  C_8 
REMARK    4  A    between atoms: C_8  and  N_9 
REMARK       I    between atoms: N_9  and  C_10 
REMARK    5  A    between atoms: C_10  and  C_11 
REMARK    6  A    between atoms: C_15  and  C_16 
ROOT
HETATM    1  N   UNL     1       7.480  27.022  55.390  1.00  0.00    -0.347 N 
HETATM    2  C   UNL     1       6.912  28.214  55.785  1.00  0.00     0.272 C 
HETATM    3  O   UNL     1       5.897  28.684  55.276  1.00  0.00    -0.266 OA
HETATM    4  H   UNL     1       8.363  26.791  55.835  1.00  0.00     0.163 HD
ENDROOT
BRANCH   2   5
HETATM    5  C   UNL     1       7.652  28.905  56.849  1.00  0.00     0.146 A 
HETATM    6  N   UNL     1       8.987  29.078  56.817  1.00  0.00    -0.169 NA
HETATM    7  N   UNL     1       9.243  29.795  57.927  1.00  0.00    -0.277 N 
HETATM    8  H   UNL     1      10.203  30.073  58.099  1.00  0.00     0.189 HD
HETATM    9  C   UNL     1       8.142  30.088  58.694  1.00  0.00     0.063 A 
HETATM   10  C   UNL     1       7.093  29.508  58.004  1.00  0.00     0.071 A 
BRANCH   9  11
HETATM   11  C   UNL     1       8.169  30.875  59.932  1.00  0.00    -0.008 A 
HETATM   12  C   UNL     1       7.275  31.945  60.105  1.00  0.00     0.014 A 
HETATM   13  C   UNL     1       7.283  32.713  61.273  1.00  0.00     0.001 A 
HETATM   14  C   UNL     1       8.187  32.424  62.290  1.00  0.00     0.000 A 
HETATM   15  C   UNL     1       9.079  31.367  62.140  1.00  0.00     0.001 A 
HETATM   16  C   UNL     1       9.069  30.596  60.970  1.00  0.00     0.014 A 
ENDBRANCH   9  11
ENDBRANCH   2   5
BRANCH   1  17
HETATM   17  C   UNL     1       7.070  26.358  54.173  1.00  0.00     0.114 C 
HETATM   18  C   UNL     1       7.747  26.998  52.956  1.00  0.00     0.037 C 
BRANCH  17  19
HETATM   19  C   UNL     1       7.319  24.864  54.245  1.00  0.00    -0.036 A 
HETATM   20  C   UNL     1       7.145  24.196  55.467  1.00  0.00     0.012 A 
HETATM   21  C   UNL     1       7.291  22.810  55.549  1.00  0.00     0.037 A 
HETATM   22  C   UNL     1       7.605  22.065  54.415  1.00  0.00     0.068 A 
HETATM   23  C   UNL     1       7.840  22.720  53.207  1.00  0.00     0.037 A 
HETATM   24  C   UNL     1       7.698  24.112  53.123  1.00  0.00     0.012 A 
BRANCH  22  25
HETATM   25  O   UNL     1       7.675  20.712  54.606  1.00  0.00    -0.352 OA
BRANCH  25  26
HETATM   26  C   UNL     1       8.992  20.166  54.680  1.00  0.00     0.171 C 
HETATM   27  C   UNL     1       9.454  20.256  56.124  1.00  0.00     0.034 C 
ENDBRANCH  25  26
ENDBRANCH  22  25
ENDBRANCH  17  19
ENDBRANCH   1  17
TORSDOF 6
ENDMDL
MODEL 8
REMARK VINA RESULT:      -8.2      6.638     10.750
REMARK  6 active torsions:
REMARK  status: ('A' for Active; 'I' for Inactive)
REMARK    1  A    between atoms: C_2  and  O_3 
REMARK    2  A    between atoms: O_3  and  C_4 
REMARK    3  A    between atoms: C_7  and  C_8 
REMARK    4  A    between atoms: C_8  and  N_9 
REMARK       I    between atoms: N_9  and  C_10 
REMARK    5  A    between atoms: C_10  and  C_11 
REMARK    6  A    between atoms: C_15  and  C_16 
ROOT
HETATM    1  N   UNL     1       5.896  26.932  54.336  1.00  0.00    -0.347 N 
HETATM    2  C   UNL     1       6.571  27.756  53.460  1.00  0.00     0.272 C 
HETATM    3  O   UNL     1       7.654  28.275  53.715  1.00  0.00    -0.266 OA
HETATM    4  H   UNL     1       4.973  26.638  54.035  1.00  0.00     0.163 HD
ENDROOT
BRANCH   2   5
HETATM    5  C   UNL     1       5.859  27.996  52.198  1.00  0.00     0.146 A 
HETATM    6  N   UNL     1       5.890  29.178  51.555  1.00  0.00    -0.169 NA
HETATM    7  N   UNL     1       5.174  28.954  50.438  1.00  0.00    -0.277 N 
HETATM    8  H   UNL     1       5.085  29.714  49.774  1.00  0.00     0.189 HD
HETATM    9  C   UNL     1       4.662  27.685  50.324  1.00  0.00     0.063 A 
HETATM   10  C   UNL     1       5.098  27.047  51.471  1.00  0.00     0.071 A 
BRANCH   9  11
HETATM   11  C   UNL     1       3.871  27.200  49.188  1.00  0.00    -0.008 A 
HETATM   12  C   UNL     1       3.965  25.856  48.788  1.00  0.00     0.014 A 
HETATM   13  C   UNL     1       3.226  25.370  47.705  1.00  0.00     0.001 A 
HETATM   14  C   UNL     1       2.379  26.220  47.002  1.00  0.00     0.000 A 
HETATM   15  C   UNL     1       2.269  27.554  47.384  1.00  0.00     0.001 A 
HETATM   16  C   UNL     1       3.008  28.040  48.470  1.00  0.00     0.014 A 
ENDBRANCH   9  11
ENDBRANCH   2   5
BRANCH   1  17
HETATM   17  C   UNL     1       6.290  26.822  55.723  1.00  0.00     0.114 C 
HETATM   18  C   UNL     1       5.098  27.100  56.645  1.00  0.00     0.037 C 
BRANCH  17  19
HETATM   19  C   UNL     1       6.935  25.481  56.011  1.00  0.00    -0.036 A 
HETATM   20  C   UNL     1       6.610  24.374  55.212  1.00  0.00     0.012 A 
HETATM   21  C   UNL     1       7.243  23.145  55.402  1.00  0.00     0.037 A 
HETATM   22  C   UNL     1       8.218  22.999  56.386  1.00  0.00     0.068 A 
HETATM   23  C   UNL     1       8.510  24.071  57.228  1.00  0.00     0.037 A 
HETATM   24  C   UNL     1       7.872  25.305  57.041  1.00  0.00     0.012 A 
BRANCH  22  25
HETATM   25  O   UNL     1       8.804  21.764  56.448  1.00  0.00    -0.352 OA
BRANCH  25  26
HETATM   26  C   UNL     1       7.980  20.669  56.047  1.00  0.00     0.171 C 
HETATM   27  C   UNL     1       8.667  19.969  54.887  1.00  0.00     0.034 C 
ENDBRANCH  25  26
ENDBRANCH  22  25
ENDBRANCH  17  19
ENDBRANCH   1  17
TORSDOF 6
ENDMDL
MODEL 9
REMARK VINA RESULT:      -8.2      2.313      9.625
REMARK  6 active torsions:
REMARK  status: ('A' for Active; 'I' for Inactive)
REMARK    1  A    between atoms: C_2  and  O_3 
REMARK    2  A    between atoms: O_3  and  C_4 
REMARK    3  A    between atoms: C_7  and  C_8 
REMARK    4  A    between atoms: C_8  and  N_9 
REMARK       I    between atoms: N_9  and  C_10 
REMARK    5  A    between atoms: C_10  and  C_11 
REMARK    6  A    between atoms: C_15  and  C_16 
ROOT
HETATM    1  N   UNL     1       7.860  30.511  60.253  1.00  0.00    -0.347 N 
HETATM    2  C   UNL     1       8.504  30.040  59.130  1.00  0.00     0.272 C 
HETATM    3  O   UNL     1       9.687  30.259  58.884  1.00  0.00    -0.266 OA
HETATM    4  H   UNL     1       6.862  30.330  60.293  1.00  0.00     0.163 HD
ENDROOT
BRANCH   2   5
HETATM    5  C   UNL     1       7.637  29.280  58.220  1.00  0.00     0.146 A 
HETATM    6  N   UNL     1       6.418  29.710  57.841  1.00  0.00    -0.169 NA
HETATM    7  N   UNL     1       6.000  28.766  56.977  1.00  0.00    -0.277 N 
HETATM    8  H   UNL     1       5.099  28.898  56.534  1.00  0.00     0.189 HD
HETATM    9  C   UNL     1       6.881  27.730  56.781  1.00  0.00     0.063 A 
HETATM   10  C   UNL     1       7.955  28.049  57.591  1.00  0.00     0.071 A 
BRANCH   9  11
HETATM   11  C   UNL     1       6.656  26.601  55.871  1.00  0.00    -0.008 A 
HETATM   12  C   UNL     1       7.404  25.421  56.017  1.00  0.00     0.014 A 
HETATM   13  C   UNL     1       7.214  24.333  55.160  1.00  0.00     0.001 A 
HETATM   14  C   UNL     1       6.270  24.406  54.141  1.00  0.00     0.000 A 
HETATM   15  C   UNL     1       5.516  25.564  53.982  1.00  0.00     0.001 A 
HETATM   16  C   UNL     1       5.706  26.654  54.841  1.00  0.00     0.014 A 
ENDBRANCH   9  11
ENDBRANCH   2   5
BRANCH   1  17
HETATM   17  C   UNL     1       8.461  31.515  61.102  1.00  0.00     0.114 C 
HETATM   18  C   UNL     1       9.044  32.655  60.259  1.00  0.00     0.037 C 
BRANCH  17  19
HETATM   19  C   UNL     1       7.483  32.018  62.145  1.00  0.00    -0.036 A 
HETATM   20  C   UNL     1       6.106  31.851  61.935  1.00  0.00     0.012 A 
HETATM   21  C   UNL     1       5.183  32.233  62.910  1.00  0.00     0.037 A 
HETATM   22  C   UNL     1       5.616  32.781  64.115  1.00  0.00     0.068 A 
HETATM   23  C   UNL     1       6.977  33.010  64.315  1.00  0.00     0.037 A 
HETATM   24  C   UNL     1       7.904  32.630  63.335  1.00  0.00     0.012 A 
BRANCH  22  25
HETATM   25  O   UNL     1       4.626  33.073  65.013  1.00  0.00    -0.352 OA
BRANCH  25  26
HETATM   26  C   UNL     1       4.261  34.450  65.103  1.00  0.00     0.171 C 
HETATM   27  C   UNL     1       4.197  34.819  66.575  1.00  0.00     0.034 C 
ENDBRANCH  25  26
ENDBRANCH  22  25
ENDBRANCH  17  19
ENDBRANCH   1  17
TORSDOF 6
ENDMDL
MODEL 10
REMARK VINA RESULT:      -8.0      8.674     12.680
REMARK  6 active torsions:
REMARK  status: ('A' for Active; 'I' for Inactive)
REMARK    1  A    between atoms: C_2  and  O_3 
REMARK    2  A    between atoms: O_3  and  C_4 
REMARK    3  A    between atoms: C_7  and  C_8 
REMARK    4  A    between atoms: C_8  and  N_9 
REMARK       I    between atoms: N_9  and  C_10 
REMARK    5  A    between atoms: C_10  and  C_11 
REMARK    6  A    between atoms: C_15  and  C_16 
ROOT
HETATM    1  N   UNL     1       4.588  26.744  51.300  1.00  0.00    -0.347 N 
HETATM    2  C   UNL     1       4.801  27.459  50.141  1.00  0.00     0.272 C 
HETATM    3  O   UNL     1       5.754  28.216  49.976  1.00  0.00    -0.266 OA
HETATM    4  H   UNL     1       3.718  26.222  51.338  1.00  0.00     0.163 HD
ENDROOT
BRANCH   2   5
HETATM    5  C   UNL     1       3.758  27.272  49.124  1.00  0.00     0.146 A 
HETATM    6  N   UNL     1       3.472  26.072  48.583  1.00  0.00    -0.169 NA
HETATM    7  N   UNL     1       2.438  26.330  47.760  1.00  0.00    -0.277 N 
HETATM    8  H   UNL     1       2.030  25.551  47.257  1.00  0.00     0.189 HD
HETATM    9  C   UNL     1       2.042  27.644  47.725  1.00  0.00     0.063 A 
HETATM   10  C   UNL     1       2.899  28.274  48.608  1.00  0.00     0.071 A 
BRANCH   9  11
HETATM   11  C   UNL     1       0.926  28.161  46.923  1.00  0.00    -0.008 A 
HETATM   12  C   UNL     1       0.246  27.311  46.035  1.00  0.00     0.014 A 
HETATM   13  C   UNL     1      -0.816  27.780  45.256  1.00  0.00     0.001 A 
HETATM   14  C   UNL     1      -1.217  29.108  45.352  1.00  0.00     0.000 A 
HETATM   15  C   UNL     1      -0.558  29.965  46.227  1.00  0.00     0.001 A 
HETATM   16  C   UNL     1       0.505  29.496  47.009  1.00  0.00     0.014 A 
ENDBRANCH   9  11
ENDBRANCH   2   5
BRANCH   1  17
HETATM   17  C   UNL     1       5.333  27.025  52.507  1.00  0.00     0.114 C 
HETATM   18  C   UNL     1       4.426  27.667  53.562  1.00  0.00     0.037 C 
BRANCH  17  19
HETATM   19  C   UNL     1       6.029  25.784  53.030  1.00  0.00    -0.036 A 
HETATM   20  C   UNL     1       6.962  25.124  52.217  1.00  0.00     0.012 A 
HETATM   21  C   UNL     1       7.677  24.024  52.697  1.00  0.00     0.037 A 
HETATM   22  C   UNL     1       7.480  23.570  53.999  1.00  0.00     0.068 A 
HETATM   23  C   UNL     1       6.514  24.178  54.800  1.00  0.00     0.037 A 
HETATM   24  C   UNL     1       5.793  25.278  54.318  1.00  0.00     0.012 A 
BRANCH  22  25
HETATM   25  O   UNL     1       8.270  22.518  54.375  1.00  0.00    -0.352 OA
BRANCH  25  26
HETATM   26  C   UNL     1       8.872  21.786  53.307  1.00  0.00     0.171 C 
HETATM   27  C   UNL     1       8.126  20.470  53.166  1.00  0.00     0.034 C 
ENDBRANCH  25  26
ENDBRANCH  22  25
ENDBRANCH  17  19
ENDBRANCH   1  17
TORSDOF 6
ENDMDL
