MODEL 1
REMARK VINA RESULT:      -9.0      0.000      0.000
REMARK  2 active torsions:
REMARK  status: ('A' for Active; 'I' for Inactive)
REMARK       I    between atoms: C_2  and  N_3 
REMARK    1  A    between atoms: N_3  and  C_4 
REMARK    2  A    between atoms: C_13  and  N_14 
REMARK       I    between atoms: N_14  and  C_15 
ROOT
HETATM    1  C   UNL     1       7.547  27.509  57.161  1.00  0.00     0.035 A 
HETATM    2  C   UNL     1       7.733  26.197  57.593  1.00  0.00     0.038 A 
HETATM    3  C   UNL     1       7.795  25.185  56.641  1.00  0.00    -0.041 A 
HETATM    4  C   UNL     1       7.658  25.429  55.257  1.00  0.00    -0.016 A 
HETATM    5  C   UNL     1       7.753  24.155  54.540  1.00  0.00     0.008 A 
HETATM    6  C   UNL     1       8.031  23.147  55.502  1.00  0.00    -0.041 A 
HETATM    7  C   UNL     1       8.238  21.823  55.155  1.00  0.00     0.008 A 
HETATM    8  C   UNL     1       8.150  21.487  53.810  1.00  0.00     0.003 A 
HETATM    9  C   UNL     1       7.840  22.462  52.843  1.00  0.00     0.030 A 
HETATM   10  C   UNL     1       7.632  23.807  53.188  1.00  0.00     0.046 A 
HETATM   11  C   UNL     1       8.045  23.720  56.903  1.00  0.00     0.079 A 
HETATM   12  C   UNL     1       7.520  26.739  54.827  1.00  0.00     0.015 A 
HETATM   13  C   UNL     1       7.457  27.769  55.780  1.00  0.00     0.030 A 
ENDROOT
BRANCH   1  14
HETATM   14  N   UNL     1       7.454  28.617  58.029  1.00  0.00    -0.328 N 
HETATM   15  C   UNL     1       8.424  29.571  58.283  1.00  0.00     0.218 C 
HETATM   16  C   UNL     1       7.977  30.598  59.293  1.00  0.00     0.117 C 
HETATM   17  O   UNL     1       9.553  29.620  57.804  1.00  0.00    -0.274 OA
HETATM   18  H   UNL     1       6.584  28.706  58.538  1.00  0.00     0.169 HD
ENDBRANCH   1  14
BRANCH  10  19
HETATM   19  N   UNL     1       7.206  24.771  52.258  1.00  0.00    -0.327 N 
HETATM   20  C   UNL     1       6.005  25.354  51.992  1.00  0.00     0.218 C 
HETATM   21  C   UNL     1       4.728  24.821  52.572  1.00  0.00     0.117 C 
HETATM   22  O   UNL     1       5.982  26.313  51.214  1.00  0.00    -0.274 OA
HETATM   23  H   UNL     1       7.937  25.185  51.695  1.00  0.00     0.169 HD
ENDBRANCH  10  19
TORSDOF 2
ENDMDL
MODEL 2
REMARK VINA RESULT:      -8.8      2.619      5.654
REMARK  2 active torsions:
REMARK  status: ('A' for Active; 'I' for Inactive)
REMARK       I    between atoms: C_2  and  N_3 
REMARK    1  A    between atoms: N_3  and  C_4 
REMARK    2  A    between atoms: C_13  and  N_14 
REMARK       I    between atoms: N_14  and  C_15 
ROOT
HETATM    1  C   UNL     1       6.605  25.735  52.225  1.00  0.00     0.035 A 
HETATM    2  C   UNL     1       7.133  24.488  51.898  1.00  0.00     0.038 A 
HETATM    3  C   UNL     1       7.473  23.616  52.928  1.00  0.00    -0.041 A 
HETATM    4  C   UNL     1       7.322  23.950  54.291  1.00  0.00    -0.016 A 
HETATM    5  C   UNL     1       7.786  22.826  55.108  1.00  0.00     0.008 A 
HETATM    6  C   UNL     1       8.143  21.777  54.220  1.00  0.00    -0.041 A 
HETATM    7  C   UNL     1       8.575  20.539  54.666  1.00  0.00     0.008 A 
HETATM    8  C   UNL     1       8.670  20.343  56.037  1.00  0.00     0.003 A 
HETATM    9  C   UNL     1       8.356  21.381  56.935  1.00  0.00     0.030 A 
HETATM   10  C   UNL     1       7.914  22.637  56.490  1.00  0.00     0.046 A 
HETATM   11  C   UNL     1       8.003  22.211  52.777  1.00  0.00     0.079 A 
HETATM   12  C   UNL     1       6.752  25.171  54.614  1.00  0.00     0.015 A 
HETATM   13  C   UNL     1       6.405  26.059  53.581  1.00  0.00     0.030 A 
ENDROOT
BRANCH   1  14
HETATM   14  N   UNL     1       6.237  26.707  51.273  1.00  0.00    -0.328 N 
HETATM   15  C   UNL     1       5.214  26.630  50.344  1.00  0.00     0.218 C 
HETATM   16  C   UNL     1       5.132  27.857  49.469  1.00  0.00     0.117 C 
HETATM   17  O   UNL     1       4.445  25.691  50.171  1.00  0.00    -0.274 OA
HETATM   18  H   UNL     1       6.803  27.546  51.259  1.00  0.00     0.169 HD
ENDBRANCH   1  14
BRANCH  10  19
HETATM   19  N   UNL     1       7.709  23.721  57.362  1.00  0.00    -0.327 N 
HETATM   20  C   UNL     1       8.413  24.853  57.635  1.00  0.00     0.218 C 
HETATM   21  C   UNL     1       9.823  25.036  57.154  1.00  0.00     0.117 C 
HETATM   22  O   UNL     1       7.879  25.717  58.337  1.00  0.00    -0.274 OA
HETATM   23  H   UNL     1       6.828  23.719  57.858  1.00  0.00     0.169 HD
ENDBRANCH  10  19
TORSDOF 2
ENDMDL
MODEL 3
REMARK VINA RESULT:      -8.3      3.229      5.578
REMARK  2 active torsions:
REMARK  status: ('A' for Active; 'I' for Inactive)
REMARK       I    between atoms: C_2  and  N_3 
REMARK    1  A    between atoms: N_3  and  C_4 
REMARK    2  A    between atoms: C_13  and  N_14 
REMARK       I    between atoms: N_14  and  C_15 
ROOT
HETATM    1  C   UNL     1       5.055  26.509  51.992  1.00  0.00     0.035 A 
HETATM    2  C   UNL     1       5.162  26.964  53.305  1.00  0.00     0.038 A 
HETATM    3  C   UNL     1       6.033  26.308  54.168  1.00  0.00    -0.041 A 
HETATM    4  C   UNL     1       6.799  25.190  53.776  1.00  0.00    -0.016 A 
HETATM    5  C   UNL     1       7.591  24.732  54.920  1.00  0.00     0.008 A 
HETATM    6  C   UNL     1       7.354  25.639  55.988  1.00  0.00    -0.041 A 
HETATM    7  C   UNL     1       7.993  25.531  57.211  1.00  0.00     0.008 A 
HETATM    8  C   UNL     1       8.883  24.479  57.385  1.00  0.00     0.003 A 
HETATM    9  C   UNL     1       9.105  23.547  56.354  1.00  0.00     0.030 A 
HETATM   10  C   UNL     1       8.464  23.653  55.109  1.00  0.00     0.046 A 
HETATM   11  C   UNL     1       6.328  26.682  55.601  1.00  0.00     0.079 A 
HETATM   12  C   UNL     1       6.727  24.768  52.457  1.00  0.00     0.015 A 
HETATM   13  C   UNL     1       5.850  25.424  51.576  1.00  0.00     0.030 A 
ENDROOT
BRANCH   1  14
HETATM   14  N   UNL     1       4.198  27.081  51.029  1.00  0.00    -0.328 N 
HETATM   15  C   UNL     1       4.534  27.977  50.029  1.00  0.00     0.218 C 
HETATM   16  C   UNL     1       3.345  28.393  49.200  1.00  0.00     0.117 C 
HETATM   17  O   UNL     1       5.645  28.447  49.804  1.00  0.00    -0.274 OA
HETATM   18  H   UNL     1       3.222  26.819  51.097  1.00  0.00     0.169 HD
ENDBRANCH   1  14
BRANCH  10  19
HETATM   19  N   UNL     1       8.580  22.670  54.110  1.00  0.00    -0.327 N 
HETATM   20  C   UNL     1       8.204  21.365  54.028  1.00  0.00     0.218 C 
HETATM   21  C   UNL     1       7.750  20.600  55.237  1.00  0.00     0.117 C 
HETATM   22  O   UNL     1       8.290  20.802  52.933  1.00  0.00    -0.274 OA
HETATM   23  H   UNL     1       8.964  22.988  53.231  1.00  0.00     0.169 HD
ENDBRANCH  10  19
TORSDOF 2
ENDMDL
MODEL 4
REMARK VINA RESULT:      -8.3      2.257      5.816
REMARK  2 active torsions:
REMARK  status: ('A' for Active; 'I' for Inactive)
REMARK       I    between atoms: C_2  and  N_3 
REMARK    1  A    between atoms: N_3  and  C_4 
REMARK    2  A    between atoms: C_13  and  N_14 
REMARK       I    between atoms: N_14  and  C_15 
ROOT
HETATM    1  C   UNL     1       4.971  26.531  51.642  1.00  0.00     0.035 A 
HETATM    2  C   UNL     1       5.915  25.511  51.546  1.00  0.00     0.038 A 
HETATM    3  C   UNL     1       6.548  25.077  52.706  1.00  0.00    -0.041 A 
HETATM    4  C   UNL     1       6.288  25.641  53.974  1.00  0.00    -0.016 A 
HETATM    5  C   UNL     1       7.129  24.973  54.971  1.00  0.00     0.008 A 
HETATM    6  C   UNL     1       7.841  23.942  54.301  1.00  0.00    -0.041 A 
HETATM    7  C   UNL     1       8.693  23.075  54.964  1.00  0.00     0.008 A 
HETATM    8  C   UNL     1       8.853  23.246  56.332  1.00  0.00     0.003 A 
HETATM    9  C   UNL     1       8.186  24.283  57.011  1.00  0.00     0.030 A 
HETATM   10  C   UNL     1       7.318  25.164  56.346  1.00  0.00     0.046 A 
HETATM   11  C   UNL     1       7.551  23.955  52.816  1.00  0.00     0.079 A 
HETATM   12  C   UNL     1       5.315  26.622  54.075  1.00  0.00     0.015 A 
HETATM   13  C   UNL     1       4.669  27.068  52.909  1.00  0.00     0.030 A 
ENDROOT
BRANCH   1  14
HETATM   14  N   UNL     1       4.274  27.064  50.538  1.00  0.00    -0.328 N 
HETATM   15  C   UNL     1       4.687  28.078  49.692  1.00  0.00     0.218 C 
HETATM   16  C   UNL     1       3.664  28.402  48.632  1.00  0.00     0.117 C 
HETATM   17  O   UNL     1       5.738  28.709  49.756  1.00  0.00    -0.274 OA
HETATM   18  H   UNL     1       3.358  26.670  50.364  1.00  0.00     0.169 HD
ENDBRANCH   1  14
BRANCH  10  19
HETATM   19  N   UNL     1       6.735  26.276  56.979  1.00  0.00    -0.327 N 
HETATM   20  C   UNL     1       7.158  27.547  57.224  1.00  0.00     0.218 C 
HETATM   21  C   UNL     1       8.593  27.947  57.037  1.00  0.00     0.117 C 
HETATM   22  O   UNL     1       6.337  28.361  57.656  1.00  0.00    -0.274 OA
HETATM   23  H   UNL     1       5.774  26.158  57.268  1.00  0.00     0.169 HD
ENDBRANCH  10  19
TORSDOF 2
ENDMDL
MODEL 5
REMARK VINA RESULT:      -8.3      2.333      3.470
REMARK  2 active torsions:
REMARK  status: ('A' for Active; 'I' for Inactive)
REMARK       I    between atoms: C_2  and  N_3 
REMARK    1  A    between atoms: N_3  and  C_4 
REMARK    2  A    between atoms: C_13  and  N_14 
REMARK       I    between atoms: N_14  and  C_15 
ROOT
HETATM    1  C   UNL     1       7.393  28.422  57.317  1.00  0.00     0.035 A 
HETATM    2  C   UNL     1       7.463  28.526  55.929  1.00  0.00     0.038 A 
HETATM    3  C   UNL     1       7.532  27.358  55.176  1.00  0.00    -0.041 A 
HETATM    4  C   UNL     1       7.553  26.073  55.760  1.00  0.00    -0.016 A 
HETATM    5  C   UNL     1       7.647  25.071  54.696  1.00  0.00     0.008 A 
HETATM    6  C   UNL     1       7.601  25.763  53.457  1.00  0.00    -0.041 A 
HETATM    7  C   UNL     1       7.613  25.108  52.238  1.00  0.00     0.008 A 
HETATM    8  C   UNL     1       7.689  23.722  52.250  1.00  0.00     0.003 A 
HETATM    9  C   UNL     1       7.772  23.016  53.465  1.00  0.00     0.030 A 
HETATM   10  C   UNL     1       7.756  23.674  54.705  1.00  0.00     0.046 A 
HETATM   11  C   UNL     1       7.558  27.260  53.670  1.00  0.00     0.079 A 
HETATM   12  C   UNL     1       7.434  25.970  57.137  1.00  0.00     0.015 A 
HETATM   13  C   UNL     1       7.364  27.144  57.908  1.00  0.00     0.030 A 
ENDROOT
BRANCH   1  14
HETATM   14  N   UNL     1       7.333  29.531  58.186  1.00  0.00    -0.328 N 
HETATM   15  C   UNL     1       8.392  30.277  58.672  1.00  0.00     0.218 C 
HETATM   16  C   UNL     1       7.947  31.378  59.603  1.00  0.00     0.117 C 
HETATM   17  O   UNL     1       9.585  30.101  58.443  1.00  0.00    -0.274 OA
HETATM   18  H   UNL     1       6.408  29.792  58.503  1.00  0.00     0.169 HD
ENDBRANCH   1  14
BRANCH  10  19
HETATM   19  N   UNL     1       7.957  23.000  55.923  1.00  0.00    -0.327 N 
HETATM   20  C   UNL     1       8.121  21.691  56.258  1.00  0.00     0.218 C 
HETATM   21  C   UNL     1       7.847  20.589  55.275  1.00  0.00     0.117 C 
HETATM   22  O   UNL     1       8.458  21.423  57.415  1.00  0.00    -0.274 OA
HETATM   23  H   UNL     1       8.072  23.593  56.734  1.00  0.00     0.169 HD
ENDBRANCH  10  19
TORSDOF 2
ENDMDL
MODEL 6
REMARK VINA RESULT:      -8.0      2.520      6.855
REMARK  2 active torsions:
REMARK  status: ('A' for Active; 'I' for Inactive)
REMARK       I    between atoms: C_2  and  N_3 
REMARK    1  A    between atoms: N_3  and  C_4 
REMARK    2  A    between atoms: C_13  and  N_14 
REMARK       I    between atoms: N_14  and  C_15 
ROOT
HETATM    1  C   UNL     1       7.331  23.745  53.496  1.00  0.00     0.035 A 
HETATM    2  C   UNL     1       6.263  24.348  52.835  1.00  0.00     0.038 A 
HETATM    3  C   UNL     1       5.774  25.556  53.322  1.00  0.00    -0.041 A 
HETATM    4  C   UNL     1       6.302  26.186  54.470  1.00  0.00    -0.016 A 
HETATM    5  C   UNL     1       5.554  27.421  54.718  1.00  0.00     0.008 A 
HETATM    6  C   UNL     1       4.620  27.570  53.658  1.00  0.00    -0.041 A 
HETATM    7  C   UNL     1       3.783  28.668  53.553  1.00  0.00     0.008 A 
HETATM    8  C   UNL     1       3.866  29.641  54.540  1.00  0.00     0.003 A 
HETATM    9  C   UNL     1       4.758  29.497  55.620  1.00  0.00     0.030 A 
HETATM   10  C   UNL     1       5.612  28.388  55.730  1.00  0.00     0.046 A 
HETATM   11  C   UNL     1       4.669  26.387  52.717  1.00  0.00     0.079 A 
HETATM   12  C   UNL     1       7.394  25.610  55.098  1.00  0.00     0.015 A 
HETATM   13  C   UNL     1       7.897  24.390  54.614  1.00  0.00     0.030 A 
ENDROOT
BRANCH   1  14
HETATM   14  N   UNL     1       7.904  22.517  53.108  1.00  0.00    -0.328 N 
HETATM   15  C   UNL     1       7.957  21.344  53.840  1.00  0.00     0.218 C 
HETATM   16  C   UNL     1       8.674  20.236  53.108  1.00  0.00     0.117 C 
HETATM   17  O   UNL     1       7.522  21.161  54.972  1.00  0.00    -0.274 OA
HETATM   18  H   UNL     1       8.345  22.505  52.196  1.00  0.00     0.169 HD
ENDBRANCH   1  14
BRANCH  10  19
HETATM   19  N   UNL     1       6.423  28.166  56.857  1.00  0.00    -0.327 N 
HETATM   20  C   UNL     1       7.682  28.555  57.202  1.00  0.00     0.218 C 
HETATM   21  C   UNL     1       8.613  29.175  56.201  1.00  0.00     0.117 C 
HETATM   22  O   UNL     1       8.062  28.342  58.356  1.00  0.00    -0.274 OA
HETATM   23  H   UNL     1       5.983  27.666  57.618  1.00  0.00     0.169 HD
ENDBRANCH  10  19
TORSDOF 2
ENDMDL
MODEL 7
REMARK VINA RESULT:      -7.7      3.117      6.233
REMARK  2 active torsions:
REMARK  status: ('A' for Active; 'I' for Inactive)
REMARK       I    between atoms: C_2  and  N_3 
REMARK    1  A    between atoms: N_3  and  C_4 
REMARK    2  A    between atoms: C_13  and  N_14 
REMARK       I    between atoms: N_14  and  C_15 
ROOT
HETATM    1  C   UNL     1       7.281  23.516  55.055  1.00  0.00     0.035 A 
HETATM    2  C   UNL     1       7.247  23.631  53.667  1.00  0.00     0.038 A 
HETATM    3  C   UNL     1       6.562  24.702  53.104  1.00  0.00    -0.041 A 
HETATM    4  C   UNL     1       5.885  25.668  53.879  1.00  0.00    -0.016 A 
HETATM    5  C   UNL     1       5.258  26.642  52.981  1.00  0.00     0.008 A 
HETATM    6  C   UNL     1       5.634  26.298  51.655  1.00  0.00    -0.041 A 
HETATM    7  C   UNL     1       5.256  27.050  50.556  1.00  0.00     0.008 A 
HETATM    8  C   UNL     1       4.467  28.170  50.779  1.00  0.00     0.003 A 
HETATM    9  C   UNL     1       4.052  28.509  52.081  1.00  0.00     0.030 A 
HETATM   10  C   UNL     1       4.434  27.754  53.201  1.00  0.00     0.046 A 
HETATM   11  C   UNL     1       6.458  25.029  51.634  1.00  0.00     0.079 A 
HETATM   12  C   UNL     1       5.960  25.580  55.260  1.00  0.00     0.015 A 
HETATM   13  C   UNL     1       6.649  24.501  55.840  1.00  0.00     0.030 A 
ENDROOT
BRANCH   1  14
HETATM   14  N   UNL     1       7.929  22.469  55.742  1.00  0.00    -0.328 N 
HETATM   15  C   UNL     1       8.070  21.155  55.333  1.00  0.00     0.218 C 
HETATM   16  C   UNL     1       8.805  20.309  56.344  1.00  0.00     0.117 C 
HETATM   17  O   UNL     1       7.643  20.656  54.297  1.00  0.00    -0.274 OA
HETATM   18  H   UNL     1       8.315  22.709  56.647  1.00  0.00     0.169 HD
ENDBRANCH   1  14
BRANCH  10  19
HETATM   19  N   UNL     1       3.936  28.005  54.491  1.00  0.00    -0.327 N 
HETATM   20  C   UNL     1       4.345  28.798  55.519  1.00  0.00     0.218 C 
HETATM   21  C   UNL     1       5.702  29.441  55.523  1.00  0.00     0.117 C 
HETATM   22  O   UNL     1       3.587  28.941  56.482  1.00  0.00    -0.274 OA
HETATM   23  H   UNL     1       3.051  27.567  54.708  1.00  0.00     0.169 HD
ENDBRANCH  10  19
TORSDOF 2
ENDMDL
MODEL 8
REMARK VINA RESULT:      -7.6      2.164      5.848
REMARK  2 active torsions:
REMARK  status: ('A' for Active; 'I' for Inactive)
REMARK       I    between atoms: C_2  and  N_3 
REMARK    1  A    between atoms: N_3  and  C_4 
REMARK    2  A    between atoms: C_13  and  N_14 
REMARK       I    between atoms: N_14  and  C_15 
ROOT
HETATM    1  C   UNL     1       5.910  26.926  51.315  1.00  0.00     0.035 A 
HETATM    2  C   UNL     1       6.205  25.587  51.564  1.00  0.00     0.038 A 
HETATM    3  C   UNL     1       6.668  25.231  52.826  1.00  0.00    -0.041 A 
HETATM    4  C   UNL     1       6.869  26.172  53.860  1.00  0.00    -0.016 A 
HETATM    5  C   UNL     1       7.375  25.473  55.044  1.00  0.00     0.008 A 
HETATM    6  C   UNL     1       7.401  24.086  54.739  1.00  0.00    -0.041 A 
HETATM    7  C   UNL     1       7.779  23.128  55.663  1.00  0.00     0.008 A 
HETATM    8  C   UNL     1       8.159  23.563  56.926  1.00  0.00     0.003 A 
HETATM    9  C   UNL     1       8.177  24.935  57.239  1.00  0.00     0.030 A 
HETATM   10  C   UNL     1       7.791  25.912  56.308  1.00  0.00     0.046 A 
HETATM   11  C   UNL     1       6.987  23.835  53.305  1.00  0.00     0.079 A 
HETATM   12  C   UNL     1       6.530  27.495  53.625  1.00  0.00     0.015 A 
HETATM   13  C   UNL     1       6.061  27.866  52.353  1.00  0.00     0.030 A 
ENDROOT
BRANCH   1  14
HETATM   14  N   UNL     1       5.448  27.412  50.074  1.00  0.00    -0.328 N 
HETATM   15  C   UNL     1       4.255  28.065  49.817  1.00  0.00     0.218 C 
HETATM   16  C   UNL     1       4.089  28.416  48.359  1.00  0.00     0.117 C 
HETATM   17  O   UNL     1       3.372  28.332  50.625  1.00  0.00    -0.274 OA
HETATM   18  H   UNL     1       6.054  27.240  49.281  1.00  0.00     0.169 HD
ENDBRANCH   1  14
BRANCH  10  19
HETATM   19  N   UNL     1       7.914  27.290  56.560  1.00  0.00    -0.327 N 
HETATM   20  C   UNL     1       7.067  28.235  57.052  1.00  0.00     0.218 C 
HETATM   21  C   UNL     1       5.598  27.968  57.209  1.00  0.00     0.117 C 
HETATM   22  O   UNL     1       7.529  29.347  57.324  1.00  0.00    -0.274 OA
HETATM   23  H   UNL     1       8.836  27.678  56.413  1.00  0.00     0.169 HD
ENDBRANCH  10  19
TORSDOF 2
ENDMDL
MODEL 9
REMARK VINA RESULT:      -7.5      2.481      7.140
REMARK  2 active torsions:
REMARK  status: ('A' for Active; 'I' for Inactive)
REMARK       I    between atoms: C_2  and  N_3 
REMARK    1  A    between atoms: N_3  and  C_4 
REMARK    2  A    between atoms: C_13  and  N_14 
REMARK       I    between atoms: N_14  and  C_15 
ROOT
HETATM    1  C   UNL     1       6.914  24.797  56.167  1.00  0.00     0.035 A 
HETATM    2  C   UNL     1       5.979  25.470  55.383  1.00  0.00     0.038 A 
HETATM    3  C   UNL     1       5.773  26.827  55.609  1.00  0.00    -0.041 A 
HETATM    4  C   UNL     1       6.457  27.546  56.613  1.00  0.00    -0.016 A 
HETATM    5  C   UNL     1       5.997  28.937  56.596  1.00  0.00     0.008 A 
HETATM    6  C   UNL     1       5.085  29.068  55.515  1.00  0.00    -0.041 A 
HETATM    7  C   UNL     1       4.498  30.276  55.178  1.00  0.00     0.008 A 
HETATM    8  C   UNL     1       4.815  31.385  55.950  1.00  0.00     0.003 A 
HETATM    9  C   UNL     1       5.688  31.272  57.049  1.00  0.00     0.030 A 
HETATM   10  C   UNL     1       6.290  30.051  57.393  1.00  0.00     0.046 A 
HETATM   11  C   UNL     1       4.852  27.737  54.833  1.00  0.00     0.079 A 
HETATM   12  C   UNL     1       7.420  26.886  57.360  1.00  0.00     0.015 A 
HETATM   13  C   UNL     1       7.636  25.515  57.140  1.00  0.00     0.030 A 
ENDROOT
BRANCH   1  14
HETATM   14  N   UNL     1       7.200  23.422  56.043  1.00  0.00    -0.328 N 
HETATM   15  C   UNL     1       7.831  22.786  54.988  1.00  0.00     0.218 C 
HETATM   16  C   UNL     1       7.942  21.295  55.193  1.00  0.00     0.117 C 
HETATM   17  O   UNL     1       8.248  23.305  53.958  1.00  0.00    -0.274 OA
HETATM   18  H   UNL     1       6.886  22.836  56.806  1.00  0.00     0.169 HD
ENDBRANCH   1  14
BRANCH  10  19
HETATM   19  N   UNL     1       7.068  29.890  58.553  1.00  0.00    -0.327 N 
HETATM   20  C   UNL     1       8.399  30.007  58.816  1.00  0.00     0.218 C 
HETATM   21  C   UNL     1       9.411  30.114  57.712  1.00  0.00     0.117 C 
HETATM   22  O   UNL     1       8.765  29.973  59.994  1.00  0.00    -0.274 OA
HETATM   23  H   UNL     1       6.550  29.712  59.403  1.00  0.00     0.169 HD
ENDBRANCH  10  19
TORSDOF 2
ENDMDL
MODEL 10
REMARK VINA RESULT:      -7.2      2.682      8.231
REMARK  2 active torsions:
REMARK  status: ('A' for Active; 'I' for Inactive)
REMARK       I    between atoms: C_2  and  N_3 
REMARK    1  A    between atoms: N_3  and  C_4 
REMARK    2  A    between atoms: C_13  and  N_14 
REMARK       I    between atoms: N_14  and  C_15 
ROOT
HETATM    1  C   UNL     1       7.307  27.224  55.820  1.00  0.00     0.035 A 
HETATM    2  C   UNL     1       6.319  28.135  55.453  1.00  0.00     0.038 A 
HETATM    3  C   UNL     1       6.115  29.255  56.254  1.00  0.00    -0.041 A 
HETATM    4  C   UNL     1       6.855  29.496  57.432  1.00  0.00    -0.016 A 
HETATM    5  C   UNL     1       6.382  30.741  58.041  1.00  0.00     0.008 A 
HETATM    6  C   UNL     1       5.402  31.292  57.173  1.00  0.00    -0.041 A 
HETATM    7  C   UNL     1       4.784  32.505  57.423  1.00  0.00     0.008 A 
HETATM    8  C   UNL     1       5.139  33.185  58.580  1.00  0.00     0.003 A 
HETATM    9  C   UNL     1       6.081  32.642  59.473  1.00  0.00     0.030 A 
HETATM   10  C   UNL     1       6.715  31.414  59.225  1.00  0.00     0.046 A 
HETATM   11  C   UNL     1       5.139  30.377  55.997  1.00  0.00     0.079 A 
HETATM   12  C   UNL     1       7.869  28.613  57.768  1.00  0.00     0.015 A 
HETATM   13  C   UNL     1       8.084  27.479  56.967  1.00  0.00     0.030 A 
ENDROOT
BRANCH   1  14
HETATM   14  N   UNL     1       7.598  26.047  55.099  1.00  0.00    -0.328 N 
HETATM   15  C   UNL     1       7.099  24.777  55.325  1.00  0.00     0.218 C 
HETATM   16  C   UNL     1       7.656  23.755  54.364  1.00  0.00     0.117 C 
HETATM   17  O   UNL     1       6.316  24.439  56.207  1.00  0.00    -0.274 OA
HETATM   18  H   UNL     1       8.266  26.147  54.344  1.00  0.00     0.169 HD
ENDBRANCH   1  14
BRANCH  10  19
HETATM   19  N   UNL     1       7.567  30.797  60.158  1.00  0.00    -0.327 N 
HETATM   20  C   UNL     1       8.895  30.909  60.436  1.00  0.00     0.218 C 
HETATM   21  C   UNL     1       9.831  31.635  59.514  1.00  0.00     0.117 C 
HETATM   22  O   UNL     1       9.327  30.352  61.449  1.00  0.00    -0.274 OA
HETATM   23  H   UNL     1       7.114  30.182  60.820  1.00  0.00     0.169 HD
ENDBRANCH  10  19
TORSDOF 2
ENDMDL
