MODEL 1
REMARK VINA RESULT:      -9.0      0.000      0.000
REMARK  9 active torsions:
REMARK  status: ('A' for Active; 'I' for Inactive)
REMARK    1  A    between atoms: C_6  and  C_7 
REMARK    2  A    between atoms: C_7  and  C_8 
REMARK       I    between atoms: C_8  and  N_9 
REMARK    3  A    between atoms: N_9  and  C_10 
REMARK    4  A    between atoms: C_10  and  C_11 
REMARK    5  A    between atoms: C_11  and  N_12 
REMARK    6  A    between atoms: C_20  and  C_21 
REMARK    7  A    between atoms: C_24  and  C_25 
REMARK    8  A    between atoms: C_32  and  C_33 
REMARK    9  A    between atoms: C_33  and  O_34 
ROOT
HETATM    1  C   UNL     1       6.806  24.083  56.162  1.00  0.00     0.071 C 
HETATM    2  C   UNL     1       6.092  25.167  55.394  1.00  0.00     0.048 C 
HETATM    3  N   UNL     1       5.336  26.040  56.194  1.00  0.00    -0.229 NA
HETATM    4  C   UNL     1       5.207  27.262  55.775  1.00  0.00     0.170 C 
HETATM    5  N   UNL     1       5.740  27.723  54.344  1.00  0.00    -0.319 N 
HETATM    6  C   UNL     1       6.611  28.627  54.696  1.00  0.00     0.011 C 
HETATM    7  C   UNL     1       5.538  26.541  53.483  1.00  0.00     0.166 C 
HETATM    8  S   UNL     1       4.911  28.649  56.775  1.00  0.00    -0.086 SA
HETATM    9  C   UNL     1       5.954  29.659  55.616  1.00  0.00     0.135 C 
HETATM   10  C   UNL     1       6.282  25.402  54.075  1.00  0.00     0.069 C 
ENDROOT
BRANCH   6  11
HETATM   11  C   UNL     1       8.057  28.240  54.878  1.00  0.00     0.156 C 
BRANCH  11  12
HETATM   12  C   UNL     1       8.950  28.990  55.827  1.00  0.00     0.223 C 
HETATM   13  N   UNL     1       8.598  28.839  57.142  1.00  0.00    -0.359 N 
HETATM   14  H   UNL     1       7.931  28.094  57.374  1.00  0.00     0.162 HD
HETATM   15  O   UNL     1       9.819  29.764  55.432  1.00  0.00    -0.273 OA
BRANCH  13  16
HETATM   16  C   UNL     1       8.844  29.753  58.260  1.00  0.00     0.150 C 
BRANCH  16  17
HETATM   17  C   UNL     1       7.716  30.657  58.788  1.00  0.00     0.254 C 
BRANCH  17  18
HETATM   18  N   UNL     1       7.659  30.784  60.301  1.00  0.00    -0.070 N 
HETATM   19  H   UNL     1       7.057  29.994  60.611  1.00  0.00     0.279 HD
HETATM   20  C   UNL     1       8.990  30.668  61.003  1.00  0.00     0.235 C 
HETATM   21  C   UNL     1       8.789  30.717  62.512  1.00  0.00     0.028 C 
HETATM   22  C   UNL     1       8.042  31.971  62.945  1.00  0.00     0.003 C 
HETATM   23  C   UNL     1       6.726  32.104  62.191  1.00  0.00     0.028 C 
HETATM   24  C   UNL     1       6.935  32.059  60.687  1.00  0.00     0.235 C 
ENDBRANCH  17  18
ENDBRANCH  16  17
ENDBRANCH  13  16
ENDBRANCH  11  12
ENDBRANCH   6  11
BRANCH   7  25
HETATM   25  C   UNL     1       5.361  26.720  51.986  1.00  0.00    -0.030 A 
HETATM   26  C   UNL     1       5.313  27.965  51.343  1.00  0.00     0.010 A 
HETATM   27  C   UNL     1       4.784  28.077  50.046  1.00  0.00     0.008 A 
HETATM   28  C   UNL     1       4.293  26.959  49.354  1.00  0.00    -0.055 A 
HETATM   29  C   UNL     1       4.432  25.706  49.951  1.00  0.00     0.008 A 
HETATM   30  C   UNL     1       4.938  25.593  51.246  1.00  0.00     0.010 A 
BRANCH  28  31
HETATM   31  C   UNL     1       3.588  27.125  48.015  1.00  0.00     0.010 C 
HETATM   32  C   UNL     1       3.062  25.787  47.497  1.00  0.00     0.015 C 
HETATM   33  C   UNL     1       2.454  28.160  48.064  1.00  0.00     0.015 C 
ENDBRANCH  28  31
ENDBRANCH   7  25
BRANCH  10  34
HETATM   34  C   UNL     1       7.419  24.874  53.310  1.00  0.00     0.293 C 
HETATM   35  O   UNL     1       8.329  25.618  52.966  1.00  0.00    -0.259 OA
BRANCH  34  36
HETATM   36  O   UNL     1       7.223  23.592  52.962  1.00  0.00    -0.323 OA
HETATM   37  C   UNL     1       8.343  22.736  53.220  1.00  0.00     0.213 C 
ENDBRANCH  34  36
ENDBRANCH  10  34
TORSDOF 9
ENDMDL
MODEL 2
REMARK VINA RESULT:      -8.4      3.624      8.690
REMARK  9 active torsions:
REMARK  status: ('A' for Active; 'I' for Inactive)
REMARK    1  A    between atoms: C_6  and  C_7 
REMARK    2  A    between atoms: C_7  and  C_8 
REMARK       I    between atoms: C_8  and  N_9 
REMARK    3  A    between atoms: N_9  and  C_10 
REMARK    4  A    between atoms: C_10  and  C_11 
REMARK    5  A    between atoms: C_11  and  N_12 
REMARK    6  A    between atoms: C_20  and  C_21 
REMARK    7  A    between atoms: C_24  and  C_25 
REMARK    8  A    between atoms: C_32  and  C_33 
REMARK    9  A    between atoms: C_33  and  O_34 
ROOT
HETATM    1  C   UNL     1      10.168  29.153  56.420  1.00  0.00     0.071 C 
HETATM    2  C   UNL     1       8.741  29.377  55.987  1.00  0.00     0.048 C 
HETATM    3  N   UNL     1       8.398  28.748  54.779  1.00  0.00    -0.229 NA
HETATM    4  C   UNL     1       7.163  28.374  54.639  1.00  0.00     0.170 C 
HETATM    5  N   UNL     1       6.042  28.745  55.711  1.00  0.00    -0.319 N 
HETATM    6  C   UNL     1       5.677  27.553  56.094  1.00  0.00     0.011 C 
HETATM    7  C   UNL     1       6.437  30.080  56.201  1.00  0.00     0.166 C 
HETATM    8  S   UNL     1       6.607  27.084  53.618  1.00  0.00    -0.086 SA
HETATM    9  C   UNL     1       5.295  26.705  54.878  1.00  0.00     0.135 C 
HETATM   10  C   UNL     1       7.809  29.984  56.759  1.00  0.00     0.069 C 
ENDROOT
BRANCH   6  11
HETATM   11  C   UNL     1       6.328  26.924  57.300  1.00  0.00     0.156 C 
BRANCH  11  12
HETATM   12  C   UNL     1       6.745  25.480  57.296  1.00  0.00     0.223 C 
HETATM   13  N   UNL     1       8.078  25.297  57.555  1.00  0.00    -0.359 N 
HETATM   14  H   UNL     1       8.604  26.095  57.929  1.00  0.00     0.162 HD
HETATM   15  O   UNL     1       5.981  24.580  56.955  1.00  0.00    -0.273 OA
BRANCH  13  16
HETATM   16  C   UNL     1       8.941  24.186  57.144  1.00  0.00     0.150 C 
BRANCH  16  17
HETATM   17  C   UNL     1       8.371  22.762  57.024  1.00  0.00     0.254 C 
BRANCH  17  18
HETATM   18  N   UNL     1       8.577  22.106  55.670  1.00  0.00    -0.070 N 
HETATM   19  H   UNL     1       9.579  22.273  55.444  1.00  0.00     0.279 HD
HETATM   20  C   UNL     1       8.325  20.618  55.635  1.00  0.00     0.235 C 
HETATM   21  C   UNL     1       8.656  20.066  54.255  1.00  0.00     0.028 C 
HETATM   22  C   UNL     1       7.882  20.783  53.157  1.00  0.00     0.003 C 
HETATM   23  C   UNL     1       8.102  22.288  53.235  1.00  0.00     0.028 C 
HETATM   24  C   UNL     1       7.767  22.832  54.614  1.00  0.00     0.235 C 
ENDBRANCH  17  18
ENDBRANCH  16  17
ENDBRANCH  13  16
ENDBRANCH  11  12
ENDBRANCH   6  11
BRANCH   7  25
HETATM   25  C   UNL     1       5.384  31.018  56.763  1.00  0.00    -0.030 A 
HETATM   26  C   UNL     1       5.356  32.400  56.527  1.00  0.00     0.010 A 
HETATM   27  C   UNL     1       4.602  33.249  57.357  1.00  0.00     0.008 A 
HETATM   28  C   UNL     1       3.857  32.748  58.436  1.00  0.00    -0.055 A 
HETATM   29  C   UNL     1       3.803  31.366  58.610  1.00  0.00     0.008 A 
HETATM   30  C   UNL     1       4.565  30.522  57.802  1.00  0.00     0.010 A 
BRANCH  28  31
HETATM   31  C   UNL     1       3.171  33.698  59.409  1.00  0.00     0.010 C 
HETATM   32  C   UNL     1       4.076  34.018  60.598  1.00  0.00     0.015 C 
HETATM   33  C   UNL     1       2.693  34.994  58.738  1.00  0.00     0.015 C 
ENDBRANCH  28  31
ENDBRANCH   7  25
BRANCH  10  34
HETATM   34  C   UNL     1       7.963  30.196  58.204  1.00  0.00     0.293 C 
HETATM   35  O   UNL     1       7.895  29.248  58.976  1.00  0.00    -0.259 OA
BRANCH  34  36
HETATM   36  O   UNL     1       8.029  31.504  58.503  1.00  0.00    -0.323 OA
HETATM   37  C   UNL     1       7.468  31.841  59.779  1.00  0.00     0.213 C 
ENDBRANCH  34  36
ENDBRANCH  10  34
TORSDOF 9
ENDMDL
MODEL 3
REMARK VINA RESULT:      -8.3      3.610      6.405
REMARK  9 active torsions:
REMARK  status: ('A' for Active; 'I' for Inactive)
REMARK    1  A    between atoms: C_6  and  C_7 
REMARK    2  A    between atoms: C_7  and  C_8 
REMARK       I    between atoms: C_8  and  N_9 
REMARK    3  A    between atoms: N_9  and  C_10 
REMARK    4  A    between atoms: C_10  and  C_11 
REMARK    5  A    between atoms: C_11  and  N_12 
REMARK    6  A    between atoms: C_20  and  C_21 
REMARK    7  A    between atoms: C_24  and  C_25 
REMARK    8  A    between atoms: C_32  and  C_33 
REMARK    9  A    between atoms: C_33  and  O_34 
ROOT
HETATM    1  C   UNL     1       5.394  30.165  55.553  1.00  0.00     0.071 C 
HETATM    2  C   UNL     1       4.974  28.948  54.768  1.00  0.00     0.048 C 
HETATM    3  N   UNL     1       3.715  29.061  54.155  1.00  0.00    -0.229 NA
HETATM    4  C   UNL     1       3.537  28.408  53.048  1.00  0.00     0.170 C 
HETATM    5  N   UNL     1       4.631  27.395  52.479  1.00  0.00    -0.319 N 
HETATM    6  C   UNL     1       4.910  27.963  51.339  1.00  0.00     0.011 C 
HETATM    7  C   UNL     1       5.236  26.800  53.688  1.00  0.00     0.166 C 
HETATM    8  S   UNL     1       2.407  28.825  51.797  1.00  0.00    -0.086 SA
HETATM    9  C   UNL     1       3.623  28.196  50.542  1.00  0.00     0.135 C 
HETATM   10  C   UNL     1       5.790  27.896  54.519  1.00  0.00     0.069 C 
ENDROOT
BRANCH   6  11
HETATM   11  C   UNL     1       6.061  28.932  51.248  1.00  0.00     0.156 C 
BRANCH  11  12
HETATM   12  C   UNL     1       5.896  30.279  50.601  1.00  0.00     0.223 C 
HETATM   13  N   UNL     1       5.276  31.198  51.406  1.00  0.00    -0.359 N 
HETATM   14  H   UNL     1       5.181  30.971  52.402  1.00  0.00     0.162 HD
HETATM   15  O   UNL     1       6.173  30.475  49.420  1.00  0.00    -0.273 OA
BRANCH  13  16
HETATM   16  C   UNL     1       4.493  32.372  51.010  1.00  0.00     0.150 C 
BRANCH  16  17
HETATM   17  C   UNL     1       3.308  32.842  51.871  1.00  0.00     0.254 C 
BRANCH  17  18
HETATM   18  N   UNL     1       3.556  32.807  53.369  1.00  0.00    -0.070 N 
HETATM   19  H   UNL     1       4.128  31.951  53.524  1.00  0.00     0.279 HD
HETATM   20  C   UNL     1       4.316  33.990  53.920  1.00  0.00     0.235 C 
HETATM   21  C   UNL     1       4.582  33.791  55.406  1.00  0.00     0.028 C 
HETATM   22  C   UNL     1       3.297  33.549  56.185  1.00  0.00     0.003 C 
HETATM   23  C   UNL     1       2.513  32.387  55.588  1.00  0.00     0.028 C 
HETATM   24  C   UNL     1       2.249  32.594  54.106  1.00  0.00     0.235 C 
ENDBRANCH  17  18
ENDBRANCH  16  17
ENDBRANCH  13  16
ENDBRANCH  11  12
ENDBRANCH   6  11
BRANCH   7  25
HETATM   25  C   UNL     1       5.870  25.422  53.612  1.00  0.00    -0.030 A 
HETATM   26  C   UNL     1       6.016  24.563  54.710  1.00  0.00     0.010 A 
HETATM   27  C   UNL     1       6.925  23.491  54.659  1.00  0.00     0.008 A 
HETATM   28  C   UNL     1       7.706  23.245  53.520  1.00  0.00    -0.055 A 
HETATM   29  C   UNL     1       7.490  24.036  52.393  1.00  0.00     0.008 A 
HETATM   30  C   UNL     1       6.604  25.113  52.445  1.00  0.00     0.010 A 
BRANCH  28  31
HETATM   31  C   UNL     1       8.789  22.174  53.541  1.00  0.00     0.010 C 
HETATM   32  C   UNL     1       9.333  21.967  54.954  1.00  0.00     0.015 C 
HETATM   33  C   UNL     1       8.315  20.837  52.950  1.00  0.00     0.015 C 
ENDBRANCH  28  31
ENDBRANCH   7  25
BRANCH  10  34
HETATM   34  C   UNL     1       7.249  27.942  54.684  1.00  0.00     0.293 C 
HETATM   35  O   UNL     1       7.963  28.290  53.752  1.00  0.00    -0.259 OA
BRANCH  34  36
HETATM   36  O   UNL     1       7.624  27.438  55.871  1.00  0.00    -0.323 OA
HETATM   37  C   UNL     1       8.453  28.316  56.644  1.00  0.00     0.213 C 
ENDBRANCH  34  36
ENDBRANCH  10  34
TORSDOF 9
ENDMDL
MODEL 4
REMARK VINA RESULT:      -8.3      4.186      8.147
REMARK  9 active torsions:
REMARK  status: ('A' for Active; 'I' for Inactive)
REMARK    1  A    between atoms: C_6  and  C_7 
REMARK    2  A    between atoms: C_7  and  C_8 
REMARK       I    between atoms: C_8  and  N_9 
REMARK    3  A    between atoms: N_9  and  C_10 
REMARK    4  A    between atoms: C_10  and  C_11 
REMARK    5  A    between atoms: C_11  and  N_12 
REMARK    6  A    between atoms: C_20  and  C_21 
REMARK    7  A    between atoms: C_24  and  C_25 
REMARK    8  A    between atoms: C_32  and  C_33 
REMARK    9  A    between atoms: C_33  and  O_34 
ROOT
HETATM    1  C   UNL     1       4.597  30.418  54.946  1.00  0.00     0.071 C 
HETATM    2  C   UNL     1       4.348  29.200  54.091  1.00  0.00     0.048 C 
HETATM    3  N   UNL     1       3.182  29.271  53.311  1.00  0.00    -0.229 NA
HETATM    4  C   UNL     1       3.191  28.635  52.179  1.00  0.00     0.170 C 
HETATM    5  N   UNL     1       4.400  27.685  51.753  1.00  0.00    -0.319 N 
HETATM    6  C   UNL     1       4.807  28.290  50.672  1.00  0.00     0.011 C 
HETATM    7  C   UNL     1       4.858  27.091  53.025  1.00  0.00     0.166 C 
HETATM    8  S   UNL     1       2.227  29.029  50.790  1.00  0.00    -0.086 SA
HETATM    9  C   UNL     1       3.634  28.483  49.706  1.00  0.00     0.135 C 
HETATM   10  C   UNL     1       5.239  28.192  53.943  1.00  0.00     0.069 C 
ENDROOT
BRANCH   6  11
HETATM   11  C   UNL     1       5.913  29.311  50.758  1.00  0.00     0.156 C 
BRANCH  11  12
HETATM   12  C   UNL     1       5.791  30.649  50.084  1.00  0.00     0.223 C 
HETATM   13  N   UNL     1       5.520  31.674  50.952  1.00  0.00    -0.359 N 
HETATM   14  H   UNL     1       5.636  31.491  51.955  1.00  0.00     0.162 HD
HETATM   15  O   UNL     1       5.800  30.768  48.861  1.00  0.00    -0.273 OA
BRANCH  13  16
HETATM   16  C   UNL     1       4.841  32.943  50.678  1.00  0.00     0.150 C 
BRANCH  16  17
HETATM   17  C   UNL     1       5.651  34.186  50.271  1.00  0.00     0.254 C 
BRANCH  17  18
HETATM   18  N   UNL     1       6.496  34.014  49.021  1.00  0.00    -0.070 N 
HETATM   19  H   UNL     1       7.020  33.128  49.174  1.00  0.00     0.279 HD
HETATM   20  C   UNL     1       5.716  33.887  47.734  1.00  0.00     0.235 C 
HETATM   21  C   UNL     1       6.666  33.626  46.573  1.00  0.00     0.028 C 
HETATM   22  C   UNL     1       7.739  34.701  46.465  1.00  0.00     0.003 C 
HETATM   23  C   UNL     1       8.484  34.856  47.784  1.00  0.00     0.028 C 
HETATM   24  C   UNL     1       7.530  35.120  48.938  1.00  0.00     0.235 C 
ENDBRANCH  17  18
ENDBRANCH  16  17
ENDBRANCH  13  16
ENDBRANCH  11  12
ENDBRANCH   6  11
BRANCH   7  25
HETATM   25  C   UNL     1       5.561  25.745  53.017  1.00  0.00    -0.030 A 
HETATM   26  C   UNL     1       5.522  24.832  54.080  1.00  0.00     0.010 A 
HETATM   27  C   UNL     1       6.473  23.800  54.167  1.00  0.00     0.008 A 
HETATM   28  C   UNL     1       7.482  23.647  53.203  1.00  0.00    -0.055 A 
HETATM   29  C   UNL     1       7.462  24.492  52.094  1.00  0.00     0.008 A 
HETATM   30  C   UNL     1       6.532  25.529  52.014  1.00  0.00     0.010 A 
BRANCH  28  31
HETATM   31  C   UNL     1       8.588  22.620  53.397  1.00  0.00     0.010 C 
HETATM   32  C   UNL     1       9.073  22.596  54.846  1.00  0.00     0.015 C 
HETATM   33  C   UNL     1       8.175  21.209  52.950  1.00  0.00     0.015 C 
ENDBRANCH  28  31
ENDBRANCH   7  25
BRANCH  10  34
HETATM   34  C   UNL     1       6.657  28.300  54.310  1.00  0.00     0.293 C 
HETATM   35  O   UNL     1       7.493  28.591  53.463  1.00  0.00    -0.259 OA
BRANCH  34  36
HETATM   36  O   UNL     1       6.866  27.909  55.578  1.00  0.00    -0.323 OA
HETATM   37  C   UNL     1       7.875  28.663  56.264  1.00  0.00     0.213 C 
ENDBRANCH  34  36
ENDBRANCH  10  34
TORSDOF 9
ENDMDL
MODEL 5
REMARK VINA RESULT:      -8.1      5.492      9.127
REMARK  9 active torsions:
REMARK  status: ('A' for Active; 'I' for Inactive)
REMARK    1  A    between atoms: C_6  and  C_7 
REMARK    2  A    between atoms: C_7  and  C_8 
REMARK       I    between atoms: C_8  and  N_9 
REMARK    3  A    between atoms: N_9  and  C_10 
REMARK    4  A    between atoms: C_10  and  C_11 
REMARK    5  A    between atoms: C_11  and  N_12 
REMARK    6  A    between atoms: C_20  and  C_21 
REMARK    7  A    between atoms: C_24  and  C_25 
REMARK    8  A    between atoms: C_32  and  C_33 
REMARK    9  A    between atoms: C_33  and  O_34 
ROOT
HETATM    1  C   UNL     1       4.982  29.303  47.203  1.00  0.00     0.071 C 
HETATM    2  C   UNL     1       5.183  29.081  48.682  1.00  0.00     0.048 C 
HETATM    3  N   UNL     1       5.397  30.257  49.419  1.00  0.00    -0.229 NA
HETATM    4  C   UNL     1       4.990  30.262  50.652  1.00  0.00     0.170 C 
HETATM    5  N   UNL     1       4.416  28.952  51.357  1.00  0.00    -0.319 N 
HETATM    6  C   UNL     1       3.206  29.346  51.640  1.00  0.00     0.011 C 
HETATM    7  C   UNL     1       5.197  27.849  50.762  1.00  0.00     0.166 C 
HETATM    8  S   UNL     1       4.548  31.671  51.565  1.00  0.00    -0.086 SA
HETATM    9  C   UNL     1       3.252  30.658  52.428  1.00  0.00     0.135 C 
HETATM   10  C   UNL     1       5.007  27.885  49.291  1.00  0.00     0.069 C 
ENDROOT
BRANCH   6  11
HETATM   11  C   UNL     1       2.084  29.065  50.673  1.00  0.00     0.156 C 
BRANCH  11  12
HETATM   12  C   UNL     1       1.457  30.167  49.866  1.00  0.00     0.223 C 
HETATM   13  N   UNL     1       2.079  30.386  48.666  1.00  0.00    -0.359 N 
HETATM   14  H   UNL     1       2.743  29.676  48.338  1.00  0.00     0.162 HD
HETATM   15  O   UNL     1       0.562  30.879  50.317  1.00  0.00    -0.273 OA
BRANCH  13  16
HETATM   16  C   UNL     1       2.128  31.621  47.879  1.00  0.00     0.150 C 
BRANCH  16  17
HETATM   17  C   UNL     1       3.045  32.780  48.306  1.00  0.00     0.254 C 
BRANCH  17  18
HETATM   18  N   UNL     1       4.437  32.746  47.697  1.00  0.00    -0.070 N 
HETATM   19  H   UNL     1       4.776  31.777  47.862  1.00  0.00     0.279 HD
HETATM   20  C   UNL     1       4.493  33.021  46.214  1.00  0.00     0.235 C 
HETATM   21  C   UNL     1       5.922  32.867  45.709  1.00  0.00     0.028 C 
HETATM   22  C   UNL     1       6.893  33.756  46.474  1.00  0.00     0.003 C 
HETATM   23  C   UNL     1       6.789  33.507  47.972  1.00  0.00     0.028 C 
HETATM   24  C   UNL     1       5.362  33.666  48.469  1.00  0.00     0.235 C 
ENDBRANCH  17  18
ENDBRANCH  16  17
ENDBRANCH  13  16
ENDBRANCH  11  12
ENDBRANCH   6  11
BRANCH   7  25
HETATM   25  C   UNL     1       5.387  26.557  51.537  1.00  0.00    -0.030 A 
HETATM   26  C   UNL     1       4.648  26.207  52.676  1.00  0.00     0.010 A 
HETATM   27  C   UNL     1       5.112  25.205  53.546  1.00  0.00     0.008 A 
HETATM   28  C   UNL     1       6.316  24.525  53.306  1.00  0.00    -0.055 A 
HETATM   29  C   UNL     1       7.000  24.801  52.124  1.00  0.00     0.008 A 
HETATM   30  C   UNL     1       6.554  25.808  51.267  1.00  0.00     0.010 A 
BRANCH  28  31
HETATM   31  C   UNL     1       6.874  23.553  54.337  1.00  0.00     0.010 C 
HETATM   32  C   UNL     1       7.852  22.570  53.696  1.00  0.00     0.015 C 
HETATM   33  C   UNL     1       7.535  24.264  55.528  1.00  0.00     0.015 C 
ENDBRANCH  28  31
ENDBRANCH   7  25
BRANCH  10  34
HETATM   34  C   UNL     1       4.295  26.756  48.679  1.00  0.00     0.293 C 
HETATM   35  O   UNL     1       4.899  25.954  47.977  1.00  0.00    -0.259 OA
BRANCH  34  36
HETATM   36  O   UNL     1       2.970  26.844  48.881  1.00  0.00    -0.323 OA
HETATM   37  C   UNL     1       2.185  26.681  47.693  1.00  0.00     0.213 C 
ENDBRANCH  34  36
ENDBRANCH  10  34
TORSDOF 9
ENDMDL
MODEL 6
REMARK VINA RESULT:      -8.1      4.655      8.824
REMARK  9 active torsions:
REMARK  status: ('A' for Active; 'I' for Inactive)
REMARK    1  A    between atoms: C_6  and  C_7 
REMARK    2  A    between atoms: C_7  and  C_8 
REMARK       I    between atoms: C_8  and  N_9 
REMARK    3  A    between atoms: N_9  and  C_10 
REMARK    4  A    between atoms: C_10  and  C_11 
REMARK    5  A    between atoms: C_11  and  N_12 
REMARK    6  A    between atoms: C_20  and  C_21 
REMARK    7  A    between atoms: C_24  and  C_25 
REMARK    8  A    between atoms: C_32  and  C_33 
REMARK    9  A    between atoms: C_33  and  O_34 
ROOT
HETATM    1  C   UNL     1       3.615  30.448  53.525  1.00  0.00     0.071 C 
HETATM    2  C   UNL     1       3.684  29.165  52.735  1.00  0.00     0.048 C 
HETATM    3  N   UNL     1       2.750  29.080  51.690  1.00  0.00    -0.229 NA
HETATM    4  C   UNL     1       3.092  28.383  50.649  1.00  0.00     0.170 C 
HETATM    5  N   UNL     1       4.439  27.529  50.610  1.00  0.00    -0.319 N 
HETATM    6  C   UNL     1       5.057  28.106  49.617  1.00  0.00     0.011 C 
HETATM    7  C   UNL     1       4.607  27.055  51.998  1.00  0.00     0.166 C 
HETATM    8  S   UNL     1       2.481  28.604  49.039  1.00  0.00    -0.086 SA
HETATM    9  C   UNL     1       4.153  28.132  48.381  1.00  0.00     0.135 C 
HETATM   10  C   UNL     1       4.659  28.239  52.891  1.00  0.00     0.069 C 
ENDROOT
BRANCH   6  11
HETATM   11  C   UNL     1       6.023  29.231  49.890  1.00  0.00     0.156 C 
BRANCH  11  12
HETATM   12  C   UNL     1       5.565  30.662  49.915  1.00  0.00     0.223 C 
HETATM   13  N   UNL     1       5.044  31.089  48.722  1.00  0.00    -0.359 N 
HETATM   14  H   UNL     1       4.818  30.376  48.019  1.00  0.00     0.162 HD
HETATM   15  O   UNL     1       5.773  31.398  50.877  1.00  0.00    -0.273 OA
BRANCH  13  16
HETATM   16  C   UNL     1       4.987  32.453  48.191  1.00  0.00     0.150 C 
BRANCH  16  17
HETATM   17  C   UNL     1       5.429  32.744  46.746  1.00  0.00     0.254 C 
BRANCH  17  18
HETATM   18  N   UNL     1       6.729  33.520  46.623  1.00  0.00    -0.070 N 
HETATM   19  H   UNL     1       7.458  32.795  46.469  1.00  0.00     0.279 HD
HETATM   20  C   UNL     1       6.784  34.498  45.474  1.00  0.00     0.235 C 
HETATM   21  C   UNL     1       8.163  35.141  45.402  1.00  0.00     0.028 C 
HETATM   22  C   UNL     1       8.546  35.809  46.716  1.00  0.00     0.003 C 
HETATM   23  C   UNL     1       8.437  34.827  47.874  1.00  0.00     0.028 C 
HETATM   24  C   UNL     1       7.057  34.193  47.941  1.00  0.00     0.235 C 
ENDBRANCH  17  18
ENDBRANCH  16  17
ENDBRANCH  13  16
ENDBRANCH  11  12
ENDBRANCH   6  11
BRANCH   7  25
HETATM   25  C   UNL     1       5.391  25.784  52.270  1.00  0.00    -0.030 A 
HETATM   26  C   UNL     1       5.182  24.953  53.380  1.00  0.00     0.010 A 
HETATM   27  C   UNL     1       6.163  24.024  53.768  1.00  0.00     0.008 A 
HETATM   28  C   UNL     1       7.370  23.893  53.065  1.00  0.00    -0.055 A 
HETATM   29  C   UNL     1       7.537  24.646  51.904  1.00  0.00     0.008 A 
HETATM   30  C   UNL     1       6.575  25.584  51.526  1.00  0.00     0.010 A 
BRANCH  28  31
HETATM   31  C   UNL     1       8.478  22.990  53.590  1.00  0.00     0.010 C 
HETATM   32  C   UNL     1       8.672  23.172  55.095  1.00  0.00     0.015 C 
HETATM   33  C   UNL     1       8.245  21.508  53.258  1.00  0.00     0.015 C 
ENDBRANCH  28  31
ENDBRANCH   7  25
BRANCH  10  34
HETATM   34  C   UNL     1       5.926  28.501  53.585  1.00  0.00     0.293 C 
HETATM   35  O   UNL     1       6.937  28.761  52.945  1.00  0.00    -0.259 OA
BRANCH  34  36
HETATM   36  O   UNL     1       5.818  28.273  54.904  1.00  0.00    -0.323 OA
HETATM   37  C   UNL     1       6.772  28.989  55.701  1.00  0.00     0.213 C 
ENDBRANCH  34  36
ENDBRANCH  10  34
TORSDOF 9
ENDMDL
MODEL 7
REMARK VINA RESULT:      -8.0      9.011     12.200
REMARK  9 active torsions:
REMARK  status: ('A' for Active; 'I' for Inactive)
REMARK    1  A    between atoms: C_6  and  C_7 
REMARK    2  A    between atoms: C_7  and  C_8 
REMARK       I    between atoms: C_8  and  N_9 
REMARK    3  A    between atoms: N_9  and  C_10 
REMARK    4  A    between atoms: C_10  and  C_11 
REMARK    5  A    between atoms: C_11  and  N_12 
REMARK    6  A    between atoms: C_20  and  C_21 
REMARK    7  A    between atoms: C_24  and  C_25 
REMARK    8  A    between atoms: C_32  and  C_33 
REMARK    9  A    between atoms: C_33  and  O_34 
ROOT
HETATM    1  C   UNL     1       1.629  36.296  60.351  1.00  0.00     0.071 C 
HETATM    2  C   UNL     1       3.103  36.190  60.654  1.00  0.00     0.048 C 
HETATM    3  N   UNL     1       3.784  37.418  60.650  1.00  0.00    -0.229 NA
HETATM    4  C   UNL     1       4.810  37.526  61.438  1.00  0.00     0.170 C 
HETATM    5  N   UNL     1       5.379  36.281  62.258  1.00  0.00    -0.319 N 
HETATM    6  C   UNL     1       5.219  36.708  63.479  1.00  0.00     0.011 C 
HETATM    7  C   UNL     1       5.156  35.127  61.365  1.00  0.00     0.166 C 
HETATM    8  S   UNL     1       5.423  39.007  62.105  1.00  0.00    -0.086 SA
HETATM    9  C   UNL     1       5.882  38.079  63.647  1.00  0.00     0.135 C 
HETATM   10  C   UNL     1       3.705  35.048  61.061  1.00  0.00     0.069 C 
ENDROOT
BRANCH   6  11
HETATM   11  C   UNL     1       3.959  36.363  64.232  1.00  0.00     0.156 C 
BRANCH  11  12
HETATM   12  C   UNL     1       4.011  35.599  65.526  1.00  0.00     0.223 C 
HETATM   13  N   UNL     1       5.283  35.286  65.925  1.00  0.00    -0.359 N 
HETATM   14  H   UNL     1       6.060  35.761  65.452  1.00  0.00     0.162 HD
HETATM   15  O   UNL     1       2.995  35.189  66.083  1.00  0.00    -0.273 OA
BRANCH  13  16
HETATM   16  C   UNL     1       5.724  34.174  66.770  1.00  0.00     0.150 C 
BRANCH  16  17
HETATM   17  C   UNL     1       5.420  34.176  68.279  1.00  0.00     0.254 C 
BRANCH  17  18
HETATM   18  N   UNL     1       6.615  33.886  69.169  1.00  0.00    -0.070 N 
HETATM   19  H   UNL     1       7.159  33.161  68.657  1.00  0.00     0.279 HD
HETATM   20  C   UNL     1       7.523  35.065  69.424  1.00  0.00     0.235 C 
HETATM   21  C   UNL     1       8.728  34.626  70.247  1.00  0.00     0.028 C 
HETATM   22  C   UNL     1       8.312  33.956  71.549  1.00  0.00     0.003 C 
HETATM   23  C   UNL     1       7.356  32.801  71.282  1.00  0.00     0.028 C 
HETATM   24  C   UNL     1       6.155  33.248  70.464  1.00  0.00     0.235 C 
ENDBRANCH  17  18
ENDBRANCH  16  17
ENDBRANCH  13  16
ENDBRANCH  11  12
ENDBRANCH   6  11
BRANCH   7  25
HETATM   25  C   UNL     1       6.040  33.899  61.485  1.00  0.00    -0.030 A 
HETATM   26  C   UNL     1       6.834  33.608  62.604  1.00  0.00     0.010 A 
HETATM   27  C   UNL     1       7.889  32.684  62.507  1.00  0.00     0.008 A 
HETATM   28  C   UNL     1       8.180  32.025  61.303  1.00  0.00    -0.055 A 
HETATM   29  C   UNL     1       7.330  32.237  60.218  1.00  0.00     0.008 A 
HETATM   30  C   UNL     1       6.294  33.168  60.303  1.00  0.00     0.010 A 
BRANCH  28  31
HETATM   31  C   UNL     1       9.416  31.145  61.181  1.00  0.00     0.010 C 
HETATM   32  C   UNL     1       9.434  30.065  62.262  1.00  0.00     0.015 C 
HETATM   33  C   UNL     1       9.559  30.510  59.790  1.00  0.00     0.015 C 
ENDBRANCH  28  31
ENDBRANCH   7  25
BRANCH  10  34
HETATM   34  C   UNL     1       2.975  33.881  61.573  1.00  0.00     0.293 C 
HETATM   35  O   UNL     1       3.000  33.615  62.769  1.00  0.00    -0.259 OA
BRANCH  34  36
HETATM   36  O   UNL     1       2.458  33.149  60.573  1.00  0.00    -0.323 OA
HETATM   37  C   UNL     1       3.185  31.946  60.292  1.00  0.00     0.213 C 
ENDBRANCH  34  36
ENDBRANCH  10  34
TORSDOF 9
ENDMDL
MODEL 8
REMARK VINA RESULT:      -7.8      6.564     13.685
REMARK  9 active torsions:
REMARK  status: ('A' for Active; 'I' for Inactive)
REMARK    1  A    between atoms: C_6  and  C_7 
REMARK    2  A    between atoms: C_7  and  C_8 
REMARK       I    between atoms: C_8  and  N_9 
REMARK    3  A    between atoms: N_9  and  C_10 
REMARK    4  A    between atoms: C_10  and  C_11 
REMARK    5  A    between atoms: C_11  and  N_12 
REMARK    6  A    between atoms: C_20  and  C_21 
REMARK    7  A    between atoms: C_24  and  C_25 
REMARK    8  A    between atoms: C_32  and  C_33 
REMARK    9  A    between atoms: C_33  and  O_34 
ROOT
HETATM    1  C   UNL     1       3.850  38.122  61.217  1.00  0.00     0.071 C 
HETATM    2  C   UNL     1       3.492  36.919  62.053  1.00  0.00     0.048 C 
HETATM    3  N   UNL     1       2.547  36.065  61.462  1.00  0.00    -0.229 NA
HETATM    4  C   UNL     1       2.623  34.804  61.761  1.00  0.00     0.170 C 
HETATM    5  N   UNL     1       3.635  34.259  62.867  1.00  0.00    -0.319 N 
HETATM    6  C   UNL     1       4.371  33.463  62.143  1.00  0.00     0.011 C 
HETATM    7  C   UNL     1       3.689  35.338  63.873  1.00  0.00     0.166 C 
HETATM    8  S   UNL     1       2.063  33.494  60.769  1.00  0.00    -0.086 SA
HETATM    9  C   UNL     1       3.484  32.469  61.388  1.00  0.00     0.135 C 
HETATM   10  C   UNL     1       4.134  36.582  63.196  1.00  0.00     0.069 C 
ENDROOT
BRANCH   6  11
HETATM   11  C   UNL     1       5.648  33.979  61.528  1.00  0.00     0.156 C 
BRANCH  11  12
HETATM   12  C   UNL     1       6.979  33.371  61.872  1.00  0.00     0.223 C 
HETATM   13  N   UNL     1       7.603  32.783  60.803  1.00  0.00    -0.359 N 
HETATM   14  H   UNL     1       7.236  32.988  59.867  1.00  0.00     0.162 HD
HETATM   15  O   UNL     1       7.384  33.298  63.030  1.00  0.00    -0.273 OA
BRANCH  13  16
HETATM   16  C   UNL     1       8.580  31.692  60.808  1.00  0.00     0.150 C 
BRANCH  16  17
HETATM   17  C   UNL     1       9.714  31.659  59.768  1.00  0.00     0.254 C 
BRANCH  17  18
HETATM   18  N   UNL     1       9.668  30.478  58.814  1.00  0.00    -0.070 N 
HETATM   19  H   UNL     1      10.171  29.715  59.310  1.00  0.00     0.279 HD
HETATM   20  C   UNL     1       8.281  29.986  58.472  1.00  0.00     0.235 C 
HETATM   21  C   UNL     1       8.371  28.749  57.589  1.00  0.00     0.028 C 
HETATM   22  C   UNL     1       9.192  29.007  56.332  1.00  0.00     0.003 C 
HETATM   23  C   UNL     1      10.568  29.552  56.688  1.00  0.00     0.028 C 
HETATM   24  C   UNL     1      10.471  30.789  57.566  1.00  0.00     0.235 C 
ENDBRANCH  17  18
ENDBRANCH  16  17
ENDBRANCH  13  16
ENDBRANCH  11  12
ENDBRANCH   6  11
BRANCH   7  25
HETATM   25  C   UNL     1       4.046  35.011  65.312  1.00  0.00    -0.030 A 
HETATM   26  C   UNL     1       3.607  35.751  66.418  1.00  0.00     0.010 A 
HETATM   27  C   UNL     1       4.258  35.631  67.658  1.00  0.00     0.008 A 
HETATM   28  C   UNL     1       5.356  34.773  67.832  1.00  0.00    -0.055 A 
HETATM   29  C   UNL     1       5.729  33.963  66.761  1.00  0.00     0.008 A 
HETATM   30  C   UNL     1       5.099  34.093  65.523  1.00  0.00     0.010 A 
BRANCH  28  31
HETATM   31  C   UNL     1       6.138  34.771  69.138  1.00  0.00     0.010 C 
HETATM   32  C   UNL     1       5.900  33.482  69.923  1.00  0.00     0.015 C 
HETATM   33  C   UNL     1       7.643  34.999  68.930  1.00  0.00     0.015 C 
ENDBRANCH  28  31
ENDBRANCH   7  25
BRANCH  10  34
HETATM   34  C   UNL     1       5.440  37.128  63.587  1.00  0.00     0.293 C 
HETATM   35  O   UNL     1       6.472  36.570  63.232  1.00  0.00    -0.259 OA
BRANCH  34  36
HETATM   36  O   UNL     1       5.307  38.153  64.444  1.00  0.00    -0.323 OA
HETATM   37  C   UNL     1       6.210  39.240  64.201  1.00  0.00     0.213 C 
ENDBRANCH  34  36
ENDBRANCH  10  34
TORSDOF 9
ENDMDL
MODEL 9
REMARK VINA RESULT:      -7.8      4.817      7.625
REMARK  9 active torsions:
REMARK  status: ('A' for Active; 'I' for Inactive)
REMARK    1  A    between atoms: C_6  and  C_7 
REMARK    2  A    between atoms: C_7  and  C_8 
REMARK       I    between atoms: C_8  and  N_9 
REMARK    3  A    between atoms: N_9  and  C_10 
REMARK    4  A    between atoms: C_10  and  C_11 
REMARK    5  A    between atoms: C_11  and  N_12 
REMARK    6  A    between atoms: C_20  and  C_21 
REMARK    7  A    between atoms: C_24  and  C_25 
REMARK    8  A    between atoms: C_32  and  C_33 
REMARK    9  A    between atoms: C_33  and  O_34 
ROOT
HETATM    1  C   UNL     1       3.039  30.560  52.330  1.00  0.00     0.071 C 
HETATM    2  C   UNL     1       3.279  29.215  51.689  1.00  0.00     0.048 C 
HETATM    3  N   UNL     1       2.515  28.981  50.535  1.00  0.00    -0.229 NA
HETATM    4  C   UNL     1       3.037  28.212  49.628  1.00  0.00     0.170 C 
HETATM    5  N   UNL     1       4.409  27.436  49.868  1.00  0.00    -0.319 N 
HETATM    6  C   UNL     1       5.143  27.953  48.921  1.00  0.00     0.011 C 
HETATM    7  C   UNL     1       4.390  27.102  51.306  1.00  0.00     0.166 C 
HETATM    8  S   UNL     1       2.662  28.249  47.933  1.00  0.00    -0.086 SA
HETATM    9  C   UNL     1       4.432  27.813  47.572  1.00  0.00     0.135 C 
HETATM   10  C   UNL     1       4.259  28.364  52.075  1.00  0.00     0.069 C 
ENDROOT
BRANCH   6  11
HETATM   11  C   UNL     1       6.009  29.150  49.217  1.00  0.00     0.156 C 
BRANCH  11  12
HETATM   12  C   UNL     1       5.474  30.549  49.088  1.00  0.00     0.223 C 
HETATM   13  N   UNL     1       5.988  31.417  50.015  1.00  0.00    -0.359 N 
HETATM   14  H   UNL     1       6.811  31.113  50.547  1.00  0.00     0.162 HD
HETATM   15  O   UNL     1       4.566  30.832  48.310  1.00  0.00    -0.273 OA
BRANCH  13  16
HETATM   16  C   UNL     1       5.384  32.640  50.548  1.00  0.00     0.150 C 
BRANCH  16  17
HETATM   17  C   UNL     1       5.637  33.995  49.864  1.00  0.00     0.254 C 
BRANCH  17  18
HETATM   18  N   UNL     1       6.368  35.014  50.721  1.00  0.00    -0.070 N 
HETATM   19  H   UNL     1       7.366  34.928  50.442  1.00  0.00     0.279 HD
HETATM   20  C   UNL     1       5.940  36.447  50.515  1.00  0.00     0.235 C 
HETATM   21  C   UNL     1       6.807  37.375  51.356  1.00  0.00     0.028 C 
HETATM   22  C   UNL     1       6.779  36.996  52.831  1.00  0.00     0.003 C 
HETATM   23  C   UNL     1       7.160  35.534  53.021  1.00  0.00     0.028 C 
HETATM   24  C   UNL     1       6.289  34.615  52.181  1.00  0.00     0.235 C 
ENDBRANCH  17  18
ENDBRANCH  16  17
ENDBRANCH  13  16
ENDBRANCH  11  12
ENDBRANCH   6  11
BRANCH   7  25
HETATM   25  C   UNL     1       5.178  25.908  51.813  1.00  0.00    -0.030 A 
HETATM   26  C   UNL     1       4.814  25.142  52.930  1.00  0.00     0.010 A 
HETATM   27  C   UNL     1       5.756  24.309  53.559  1.00  0.00     0.008 A 
HETATM   28  C   UNL     1       7.077  24.213  53.096  1.00  0.00    -0.055 A 
HETATM   29  C   UNL     1       7.413  24.895  51.927  1.00  0.00     0.008 A 
HETATM   30  C   UNL     1       6.488  25.738  51.311  1.00  0.00     0.010 A 
BRANCH  28  31
HETATM   31  C   UNL     1       8.117  23.424  53.880  1.00  0.00     0.010 C 
HETATM   32  C   UNL     1       7.749  23.345  55.361  1.00  0.00     0.015 C 
HETATM   33  C   UNL     1       8.347  22.015  53.312  1.00  0.00     0.015 C 
ENDBRANCH  28  31
ENDBRANCH   7  25
BRANCH  10  34
HETATM   34  C   UNL     1       5.397  28.761  52.914  1.00  0.00     0.293 C 
HETATM   35  O   UNL     1       6.436  29.153  52.398  1.00  0.00    -0.259 OA
BRANCH  34  36
HETATM   36  O   UNL     1       5.166  28.494  54.210  1.00  0.00    -0.323 OA
HETATM   37  C   UNL     1       6.301  27.967  54.910  1.00  0.00     0.213 C 
ENDBRANCH  34  36
ENDBRANCH  10  34
TORSDOF 9
ENDMDL
MODEL 10
REMARK VINA RESULT:      -7.7      5.581      9.498
REMARK  9 active torsions:
REMARK  status: ('A' for Active; 'I' for Inactive)
REMARK    1  A    between atoms: C_6  and  C_7 
REMARK    2  A    between atoms: C_7  and  C_8 
REMARK       I    between atoms: C_8  and  N_9 
REMARK    3  A    between atoms: N_9  and  C_10 
REMARK    4  A    between atoms: C_10  and  C_11 
REMARK    5  A    between atoms: C_11  and  N_12 
REMARK    6  A    between atoms: C_20  and  C_21 
REMARK    7  A    between atoms: C_24  and  C_25 
REMARK    8  A    between atoms: C_32  and  C_33 
REMARK    9  A    between atoms: C_33  and  O_34 
ROOT
HETATM    1  C   UNL     1       4.837  29.523  47.245  1.00  0.00     0.071 C 
HETATM    2  C   UNL     1       5.080  29.217  48.702  1.00  0.00     0.048 C 
HETATM    3  N   UNL     1       5.291  30.352  49.503  1.00  0.00    -0.229 NA
HETATM    4  C   UNL     1       4.916  30.275  50.744  1.00  0.00     0.170 C 
HETATM    5  N   UNL     1       4.386  28.914  51.383  1.00  0.00    -0.319 N 
HETATM    6  C   UNL     1       3.175  29.265  51.719  1.00  0.00     0.011 C 
HETATM    7  C   UNL     1       5.172  27.865  50.705  1.00  0.00     0.166 C 
HETATM    8  S   UNL     1       4.470  31.618  51.750  1.00  0.00    -0.086 SA
HETATM    9  C   UNL     1       3.217  30.529  52.582  1.00  0.00     0.135 C 
HETATM   10  C   UNL     1       4.943  27.984  49.243  1.00  0.00     0.069 C 
ENDROOT
BRANCH   6  11
HETATM   11  C   UNL     1       2.034  29.019  50.765  1.00  0.00     0.156 C 
BRANCH  11  12
HETATM   12  C   UNL     1       1.505  30.115  49.884  1.00  0.00     0.223 C 
HETATM   13  N   UNL     1       0.599  30.930  50.511  1.00  0.00    -0.359 N 
HETATM   14  H   UNL     1       0.527  30.863  51.533  1.00  0.00     0.162 HD
HETATM   15  O   UNL     1       1.768  30.175  48.685  1.00  0.00    -0.273 OA
BRANCH  13  16
HETATM   16  C   UNL     1      -0.479  31.721  49.913  1.00  0.00     0.150 C 
BRANCH  16  17
HETATM   17  C   UNL     1      -1.370  32.614  50.795  1.00  0.00     0.254 C 
BRANCH  17  18
HETATM   18  N   UNL     1      -2.838  32.226  50.814  1.00  0.00    -0.070 N 
HETATM   19  H   UNL     1      -3.339  33.095  51.088  1.00  0.00     0.279 HD
HETATM   20  C   UNL     1      -3.393  31.757  49.490  1.00  0.00     0.235 C 
HETATM   21  C   UNL     1      -4.887  31.489  49.618  1.00  0.00     0.028 C 
HETATM   22  C   UNL     1      -5.193  30.494  50.729  1.00  0.00     0.003 C 
HETATM   23  C   UNL     1      -4.583  30.952  52.047  1.00  0.00     0.028 C 
HETATM   24  C   UNL     1      -3.092  31.214  51.913  1.00  0.00     0.235 C 
ENDBRANCH  17  18
ENDBRANCH  16  17
ENDBRANCH  13  16
ENDBRANCH  11  12
ENDBRANCH   6  11
BRANCH   7  25
HETATM   25  C   UNL     1       5.406  26.533  51.395  1.00  0.00    -0.030 A 
HETATM   26  C   UNL     1       4.641  26.060  52.471  1.00  0.00     0.010 A 
HETATM   27  C   UNL     1       5.127  25.026  53.290  1.00  0.00     0.008 A 
HETATM   28  C   UNL     1       6.380  24.436  53.061  1.00  0.00    -0.055 A 
HETATM   29  C   UNL     1       7.097  24.835  51.934  1.00  0.00     0.008 A 
HETATM   30  C   UNL     1       6.627  25.874  51.130  1.00  0.00     0.010 A 
BRANCH  28  31
HETATM   31  C   UNL     1       6.951  23.425  54.048  1.00  0.00     0.010 C 
HETATM   32  C   UNL     1       7.984  22.522  53.376  1.00  0.00     0.015 C 
HETATM   33  C   UNL     1       7.553  24.088  55.296  1.00  0.00     0.015 C 
ENDBRANCH  28  31
ENDBRANCH   7  25
BRANCH  10  34
HETATM   34  C   UNL     1       4.237  26.879  48.582  1.00  0.00     0.293 C 
HETATM   35  O   UNL     1       4.836  26.140  47.810  1.00  0.00    -0.259 OA
BRANCH  34  36
HETATM   36  O   UNL     1       2.919  26.919  48.834  1.00  0.00    -0.323 OA
HETATM   37  C   UNL     1       2.096  26.739  47.674  1.00  0.00     0.213 C 
ENDBRANCH  34  36
ENDBRANCH  10  34
TORSDOF 9
ENDMDL
