MODEL 1
REMARK VINA RESULT:      -8.7      0.000      0.000
REMARK  14 active torsions:
REMARK  status: ('A' for Active; 'I' for Inactive)
REMARK    1  A    between atoms: C_2  and  O_3 
REMARK    2  A    between atoms: O_3  and  C_4 
REMARK    3  A    between atoms: C_5  and  O_6 
REMARK    4  A    between atoms: C_9  and  C_10 
REMARK    5  A    between atoms: N_11  and  C_12 
REMARK    6  A    between atoms: C_12  and  C_13 
REMARK    7  A    between atoms: C_13  and  C_14 
REMARK    8  A    between atoms: C_14  and  N_15 
REMARK    9  A    between atoms: C_21  and  O_22 
REMARK   10  A    between atoms: C_23  and  C_24 
REMARK   11  A    between atoms: C_24  and  C_25 
REMARK   12  A    between atoms: C_29  and  O_30 
REMARK   13  A    between atoms: O_30  and  C_31 
REMARK   14  A    between atoms: C_31  and  C_32 
ROOT
HETATM    1  C   UNL     1       7.053  26.561  54.170  1.00  0.00     0.161 A 
HETATM    2  N   UNL     1       6.737  25.205  54.618  1.00  0.00    -0.333 N 
HETATM    3  C   UNL     1       6.981  25.062  55.972  1.00  0.00     0.278 A 
HETATM    4  O   UNL     1       6.833  24.071  56.664  1.00  0.00    -0.265 OA
HETATM    5  C   UNL     1       7.505  26.349  56.475  1.00  0.00     0.146 A 
HETATM    6  C   UNL     1       7.600  27.166  55.422  1.00  0.00     0.059 A 
ENDROOT
BRANCH   6   7
HETATM    7  C   UNL     1       8.207  28.510  55.386  1.00  0.00     0.193 C 
HETATM    8  O   UNL     1       8.879  28.839  54.413  1.00  0.00    -0.287 OA
BRANCH   7   9
HETATM    9  C   UNL     1       8.092  29.423  56.559  1.00  0.00     0.015 A 
HETATM   10  C   UNL     1       6.834  29.965  56.852  1.00  0.00     0.025 A 
HETATM   11  C   UNL     1       6.668  30.876  57.910  1.00  0.00    -0.028 A 
HETATM   12  C   UNL     1       5.308  31.453  58.192  1.00  0.00     0.051 C 
HETATM   13  C   UNL     1       7.779  31.247  58.688  1.00  0.00     0.074 A 
HETATM   14  C   UNL     1       9.036  30.720  58.383  1.00  0.00     0.038 A 
HETATM   15  C   UNL     1       9.194  29.825  57.320  1.00  0.00     0.018 A 
BRANCH  13  16
HETATM   16  O   UNL     1       7.529  32.137  59.699  1.00  0.00    -0.350 OA
BRANCH  16  17
HETATM   17  C   UNL     1       8.553  32.338  60.675  1.00  0.00     0.179 C 
BRANCH  17  18
HETATM   18  C   UNL     1       8.228  31.503  61.921  1.00  0.00     0.002 C 
HETATM   19  C   UNL     1       9.251  30.383  62.127  1.00  0.00     0.011 C 
HETATM   20  C   UNL     1       8.165  32.397  63.158  1.00  0.00     0.011 C 
ENDBRANCH  17  18
ENDBRANCH  16  17
ENDBRANCH  13  16
ENDBRANCH   7   9
ENDBRANCH   6   7
BRANCH   1  21
HETATM   21  C   UNL     1       5.806  27.218  53.607  1.00  0.00    -0.028 A 
HETATM   22  C   UNL     1       4.857  27.849  54.430  1.00  0.00     0.012 A 
HETATM   23  C   UNL     1       3.704  28.421  53.885  1.00  0.00     0.040 A 
HETATM   24  C   UNL     1       3.495  28.387  52.506  1.00  0.00     0.099 A 
HETATM   25  C   UNL     1       4.446  27.806  51.664  1.00  0.00     0.102 A 
HETATM   26  C   UNL     1       5.581  27.205  52.221  1.00  0.00     0.049 A 
BRANCH  24  27
HETATM   27  O   UNL     1       2.338  28.907  51.997  1.00  0.00    -0.358 OA
HETATM   28  H   UNL     1       1.874  28.226  51.486  1.00  0.00     0.218 HD
ENDBRANCH  24  27
BRANCH  25  29
HETATM   29  O   UNL     1       4.375  27.726  50.298  1.00  0.00    -0.349 OA
BRANCH  29  30
HETATM   30  C   UNL     1       4.727  26.452  49.748  1.00  0.00     0.171 C 
HETATM   31  C   UNL     1       3.748  26.134  48.632  1.00  0.00     0.034 C 
ENDBRANCH  29  30
ENDBRANCH  25  29
ENDBRANCH   1  21
BRANCH   5  32
HETATM   32  O   UNL     1       7.895  26.559  57.761  1.00  0.00    -0.355 OA
HETATM   33  H   UNL     1       7.278  27.216  58.140  1.00  0.00     0.218 HD
ENDBRANCH   5  32
BRANCH   2  34
HETATM   34  C   UNL     1       6.718  24.100  53.672  1.00  0.00     0.129 C 
BRANCH  34  35
HETATM   35  C   UNL     1       8.086  23.696  53.121  1.00  0.00     0.048 C 
BRANCH  35  36
HETATM   36  C   UNL     1       8.736  22.606  53.965  1.00  0.00     0.235 C 
BRANCH  36  37
HETATM   37  N   UNL     1       7.873  21.357  53.969  1.00  0.00    -0.079 N 
HETATM   38  H   UNL     1       6.903  21.641  53.774  1.00  0.00     0.278 HD
HETATM   39  C   UNL     1       8.270  20.374  52.896  1.00  0.00     0.269 C 
HETATM   40  C   UNL     1       7.857  20.701  55.324  1.00  0.00     0.269 C 
ENDBRANCH  36  37
ENDBRANCH  35  36
ENDBRANCH  34  35
ENDBRANCH   2  34
TORSDOF 14
ENDMDL
MODEL 2
REMARK VINA RESULT:      -8.4      4.820      8.921
REMARK  14 active torsions:
REMARK  status: ('A' for Active; 'I' for Inactive)
REMARK    1  A    between atoms: C_2  and  O_3 
REMARK    2  A    between atoms: O_3  and  C_4 
REMARK    3  A    between atoms: C_5  and  O_6 
REMARK    4  A    between atoms: C_9  and  C_10 
REMARK    5  A    between atoms: N_11  and  C_12 
REMARK    6  A    between atoms: C_12  and  C_13 
REMARK    7  A    between atoms: C_13  and  C_14 
REMARK    8  A    between atoms: C_14  and  N_15 
REMARK    9  A    between atoms: C_21  and  O_22 
REMARK   10  A    between atoms: C_23  and  C_24 
REMARK   11  A    between atoms: C_24  and  C_25 
REMARK   12  A    between atoms: C_29  and  O_30 
REMARK   13  A    between atoms: O_30  and  C_31 
REMARK   14  A    between atoms: C_31  and  C_32 
ROOT
HETATM    1  C   UNL     1       3.602  29.075  50.100  1.00  0.00     0.161 A 
HETATM    2  N   UNL     1       4.448  30.104  49.497  1.00  0.00    -0.333 N 
HETATM    3  C   UNL     1       5.629  30.249  50.201  1.00  0.00     0.278 A 
HETATM    4  O   UNL     1       6.550  31.015  49.980  1.00  0.00    -0.265 OA
HETATM    5  C   UNL     1       5.593  29.310  51.341  1.00  0.00     0.146 A 
HETATM    6  C   UNL     1       4.405  28.700  51.303  1.00  0.00     0.059 A 
ENDROOT
BRANCH   6   7
HETATM    7  C   UNL     1       3.837  27.785  52.311  1.00  0.00     0.193 C 
HETATM    8  O   UNL     1       2.746  28.044  52.810  1.00  0.00    -0.287 OA
BRANCH   7   9
HETATM    9  C   UNL     1       4.621  26.612  52.794  1.00  0.00     0.015 A 
HETATM   10  C   UNL     1       4.978  26.568  54.147  1.00  0.00     0.025 A 
HETATM   11  C   UNL     1       5.764  25.518  54.654  1.00  0.00    -0.028 A 
HETATM   12  C   UNL     1       6.144  25.505  56.109  1.00  0.00     0.051 C 
HETATM   13  C   UNL     1       6.195  24.495  53.792  1.00  0.00     0.074 A 
HETATM   14  C   UNL     1       5.853  24.549  52.439  1.00  0.00     0.038 A 
HETATM   15  C   UNL     1       5.083  25.605  51.940  1.00  0.00     0.018 A 
BRANCH  13  16
HETATM   16  O   UNL     1       6.953  23.510  54.367  1.00  0.00    -0.350 OA
BRANCH  16  17
HETATM   17  C   UNL     1       7.863  22.797  53.528  1.00  0.00     0.179 C 
BRANCH  17  18
HETATM   18  C   UNL     1       7.677  21.290  53.753  1.00  0.00     0.002 C 
HETATM   19  C   UNL     1       8.636  20.472  52.885  1.00  0.00     0.011 C 
HETATM   20  C   UNL     1       7.869  20.944  55.228  1.00  0.00     0.011 C 
ENDBRANCH  17  18
ENDBRANCH  16  17
ENDBRANCH  13  16
ENDBRANCH   7   9
ENDBRANCH   6   7
BRANCH   1  21
HETATM   21  C   UNL     1       3.354  27.963  49.096  1.00  0.00    -0.028 A 
HETATM   22  C   UNL     1       4.356  27.044  48.736  1.00  0.00     0.012 A 
HETATM   23  C   UNL     1       4.106  26.048  47.788  1.00  0.00     0.040 A 
HETATM   24  C   UNL     1       2.845  25.945  47.202  1.00  0.00     0.099 A 
HETATM   25  C   UNL     1       1.821  26.819  47.577  1.00  0.00     0.102 A 
HETATM   26  C   UNL     1       2.089  27.834  48.502  1.00  0.00     0.049 A 
BRANCH  24  27
HETATM   27  O   UNL     1       2.635  24.998  46.240  1.00  0.00    -0.358 OA
HETATM   28  H   UNL     1       3.331  25.059  45.567  1.00  0.00     0.218 HD
ENDBRANCH  24  27
BRANCH  25  29
HETATM   29  O   UNL     1       0.538  26.812  47.098  1.00  0.00    -0.349 OA
BRANCH  29  30
HETATM   30  C   UNL     1       0.103  28.047  46.518  1.00  0.00     0.171 C 
HETATM   31  C   UNL     1      -0.600  27.732  45.210  1.00  0.00     0.034 C 
ENDBRANCH  29  30
ENDBRANCH  25  29
ENDBRANCH   1  21
BRANCH   5  32
HETATM   32  O   UNL     1       6.577  29.213  52.276  1.00  0.00    -0.355 OA
HETATM   33  H   UNL     1       6.667  30.096  52.685  1.00  0.00     0.218 HD
ENDBRANCH   5  32
BRANCH   2  34
HETATM   34  C   UNL     1       3.865  31.142  48.660  1.00  0.00     0.129 C 
BRANCH  34  35
HETATM   35  C   UNL     1       4.392  31.189  47.225  1.00  0.00     0.048 C 
BRANCH  35  36
HETATM   36  C   UNL     1       5.224  32.440  46.969  1.00  0.00     0.235 C 
BRANCH  36  37
HETATM   37  N   UNL     1       5.751  32.441  45.545  1.00  0.00    -0.079 N 
HETATM   38  H   UNL     1       6.127  31.504  45.346  1.00  0.00     0.278 HD
HETATM   39  C   UNL     1       4.672  32.710  44.528  1.00  0.00     0.269 C 
HETATM   40  C   UNL     1       6.900  33.400  45.382  1.00  0.00     0.269 C 
ENDBRANCH  36  37
ENDBRANCH  35  36
ENDBRANCH  34  35
ENDBRANCH   2  34
TORSDOF 14
ENDMDL
MODEL 3
REMARK VINA RESULT:      -8.3      1.995      5.013
REMARK  14 active torsions:
REMARK  status: ('A' for Active; 'I' for Inactive)
REMARK    1  A    between atoms: C_2  and  O_3 
REMARK    2  A    between atoms: O_3  and  C_4 
REMARK    3  A    between atoms: C_5  and  O_6 
REMARK    4  A    between atoms: C_9  and  C_10 
REMARK    5  A    between atoms: N_11  and  C_12 
REMARK    6  A    between atoms: C_12  and  C_13 
REMARK    7  A    between atoms: C_13  and  C_14 
REMARK    8  A    between atoms: C_14  and  N_15 
REMARK    9  A    between atoms: C_21  and  O_22 
REMARK   10  A    between atoms: C_23  and  C_24 
REMARK   11  A    between atoms: C_24  and  C_25 
REMARK   12  A    between atoms: C_29  and  O_30 
REMARK   13  A    between atoms: O_30  and  C_31 
REMARK   14  A    between atoms: C_31  and  C_32 
ROOT
HETATM    1  C   UNL     1       4.259  28.281  55.322  1.00  0.00     0.161 A 
HETATM    2  N   UNL     1       4.562  28.224  53.892  1.00  0.00    -0.333 N 
HETATM    3  C   UNL     1       4.781  29.490  53.381  1.00  0.00     0.278 A 
HETATM    4  O   UNL     1       5.050  29.805  52.236  1.00  0.00    -0.265 OA
HETATM    5  C   UNL     1       4.602  30.458  54.483  1.00  0.00     0.146 A 
HETATM    6  C   UNL     1       4.240  29.756  55.561  1.00  0.00     0.059 A 
ENDROOT
BRANCH   6   7
HETATM    7  C   UNL     1       3.805  30.285  56.867  1.00  0.00     0.193 C 
HETATM    8  O   UNL     1       2.608  30.320  57.131  1.00  0.00    -0.287 OA
BRANCH   7   9
HETATM    9  C   UNL     1       4.798  30.862  57.818  1.00  0.00     0.015 A 
HETATM   10  C   UNL     1       4.328  31.705  58.833  1.00  0.00     0.025 A 
HETATM   11  C   UNL     1       5.218  32.325  59.727  1.00  0.00    -0.028 A 
HETATM   12  C   UNL     1       4.685  33.238  60.798  1.00  0.00     0.051 C 
HETATM   13  C   UNL     1       6.599  32.095  59.605  1.00  0.00     0.074 A 
HETATM   14  C   UNL     1       7.068  31.268  58.581  1.00  0.00     0.038 A 
HETATM   15  C   UNL     1       6.177  30.666  57.687  1.00  0.00     0.018 A 
BRANCH  13  16
HETATM   16  O   UNL     1       7.394  32.735  60.518  1.00  0.00    -0.350 OA
BRANCH  16  17
HETATM   17  C   UNL     1       8.793  32.444  60.501  1.00  0.00     0.179 C 
BRANCH  17  18
HETATM   18  C   UNL     1       9.206  31.891  61.872  1.00  0.00     0.002 C 
HETATM   19  C   UNL     1       8.200  32.277  62.958  1.00  0.00     0.011 C 
HETATM   20  C   UNL     1       9.360  30.372  61.808  1.00  0.00     0.011 C 
ENDBRANCH  17  18
ENDBRANCH  16  17
ENDBRANCH  13  16
ENDBRANCH   7   9
ENDBRANCH   6   7
BRANCH   1  21
HETATM   21  C   UNL     1       5.302  27.497  56.098  1.00  0.00    -0.028 A 
HETATM   22  C   UNL     1       4.997  26.288  56.748  1.00  0.00     0.012 A 
HETATM   23  C   UNL     1       5.972  25.603  57.479  1.00  0.00     0.040 A 
HETATM   24  C   UNL     1       7.270  26.108  57.552  1.00  0.00     0.099 A 
HETATM   25  C   UNL     1       7.607  27.284  56.877  1.00  0.00     0.102 A 
HETATM   26  C   UNL     1       6.617  27.981  56.176  1.00  0.00     0.049 A 
BRANCH  24  27
HETATM   27  O   UNL     1       8.196  25.451  58.312  1.00  0.00    -0.358 OA
HETATM   28  H   UNL     1       8.903  26.065  58.566  1.00  0.00     0.218 HD
ENDBRANCH  24  27
BRANCH  25  29
HETATM   29  O   UNL     1       8.844  27.873  56.849  1.00  0.00    -0.349 OA
BRANCH  29  30
HETATM   30  C   UNL     1       8.934  29.050  56.039  1.00  0.00     0.171 C 
HETATM   31  C   UNL     1      10.238  29.753  56.374  1.00  0.00     0.034 C 
ENDBRANCH  29  30
ENDBRANCH  25  29
ENDBRANCH   1  21
BRANCH   5  32
HETATM   32  O   UNL     1       4.699  31.807  54.331  1.00  0.00    -0.355 OA
HETATM   33  H   UNL     1       3.840  32.116  53.982  1.00  0.00     0.218 HD
ENDBRANCH   5  32
BRANCH   2  34
HETATM   34  C   UNL     1       4.138  27.084  53.092  1.00  0.00     0.129 C 
BRANCH  34  35
HETATM   35  C   UNL     1       5.274  26.225  52.536  1.00  0.00     0.048 C 
BRANCH  35  36
HETATM   36  C   UNL     1       5.471  24.952  53.350  1.00  0.00     0.235 C 
BRANCH  36  37
HETATM   37  N   UNL     1       6.907  24.852  53.833  1.00  0.00    -0.079 N 
HETATM   38  H   UNL     1       7.080  25.636  54.476  1.00  0.00     0.278 HD
HETATM   39  C   UNL     1       7.171  23.583  54.604  1.00  0.00     0.269 C 
HETATM   40  C   UNL     1       7.884  25.009  52.699  1.00  0.00     0.269 C 
ENDBRANCH  36  37
ENDBRANCH  35  36
ENDBRANCH  34  35
ENDBRANCH   2  34
TORSDOF 14
ENDMDL
MODEL 4
REMARK VINA RESULT:      -8.3      2.621      8.868
REMARK  14 active torsions:
REMARK  status: ('A' for Active; 'I' for Inactive)
REMARK    1  A    between atoms: C_2  and  O_3 
REMARK    2  A    between atoms: O_3  and  C_4 
REMARK    3  A    between atoms: C_5  and  O_6 
REMARK    4  A    between atoms: C_9  and  C_10 
REMARK    5  A    between atoms: N_11  and  C_12 
REMARK    6  A    between atoms: C_12  and  C_13 
REMARK    7  A    between atoms: C_13  and  C_14 
REMARK    8  A    between atoms: C_14  and  N_15 
REMARK    9  A    between atoms: C_21  and  O_22 
REMARK   10  A    between atoms: C_23  and  C_24 
REMARK   11  A    between atoms: C_24  and  C_25 
REMARK   12  A    between atoms: C_29  and  O_30 
REMARK   13  A    between atoms: O_30  and  C_31 
REMARK   14  A    between atoms: C_31  and  C_32 
ROOT
HETATM    1  C   UNL     1       6.965  26.976  54.257  1.00  0.00     0.161 A 
HETATM    2  N   UNL     1       7.044  28.013  55.285  1.00  0.00    -0.333 N 
HETATM    3  C   UNL     1       5.812  28.611  55.482  1.00  0.00     0.278 A 
HETATM    4  O   UNL     1       5.524  29.509  56.253  1.00  0.00    -0.265 OA
HETATM    5  C   UNL     1       4.854  27.987  54.545  1.00  0.00     0.146 A 
HETATM    6  C   UNL     1       5.544  27.108  53.814  1.00  0.00     0.059 A 
ENDROOT
BRANCH   6   7
HETATM    7  C   UNL     1       5.063  26.343  52.648  1.00  0.00     0.193 C 
HETATM    8  O   UNL     1       4.793  25.154  52.780  1.00  0.00    -0.287 OA
BRANCH   7   9
HETATM    9  C   UNL     1       4.999  26.980  51.301  1.00  0.00     0.015 A 
HETATM   10  C   UNL     1       4.512  26.216  50.232  1.00  0.00     0.025 A 
HETATM   11  C   UNL     1       4.477  26.738  48.927  1.00  0.00    -0.028 A 
HETATM   12  C   UNL     1       3.962  25.889  47.797  1.00  0.00     0.051 C 
HETATM   13  C   UNL     1       4.934  28.046  48.690  1.00  0.00     0.074 A 
HETATM   14  C   UNL     1       5.437  28.800  49.753  1.00  0.00     0.038 A 
HETATM   15  C   UNL     1       5.480  28.268  51.046  1.00  0.00     0.018 A 
BRANCH  13  16
HETATM   16  O   UNL     1       4.863  28.477  47.392  1.00  0.00    -0.350 OA
BRANCH  16  17
HETATM   17  C   UNL     1       4.082  29.642  47.121  1.00  0.00     0.179 C 
BRANCH  17  18
HETATM   18  C   UNL     1       2.703  29.484  47.777  1.00  0.00     0.002 C 
HETATM   19  C   UNL     1       2.227  30.798  48.401  1.00  0.00     0.011 C 
HETATM   20  C   UNL     1       1.683  28.981  46.758  1.00  0.00     0.011 C 
ENDBRANCH  17  18
ENDBRANCH  16  17
ENDBRANCH  13  16
ENDBRANCH   7   9
ENDBRANCH   6   7
BRANCH   1  21
HETATM   21  C   UNL     1       7.352  25.634  54.853  1.00  0.00    -0.028 A 
HETATM   22  C   UNL     1       7.130  25.325  56.207  1.00  0.00     0.012 A 
HETATM   23  C   UNL     1       7.523  24.092  56.733  1.00  0.00     0.040 A 
HETATM   24  C   UNL     1       8.123  23.142  55.906  1.00  0.00     0.099 A 
HETATM   25  C   UNL     1       8.312  23.409  54.548  1.00  0.00     0.102 A 
HETATM   26  C   UNL     1       7.947  24.660  54.037  1.00  0.00     0.049 A 
BRANCH  24  27
HETATM   27  O   UNL     1       8.545  21.962  56.450  1.00  0.00    -0.358 OA
HETATM   28  H   UNL     1       8.256  21.224  55.890  1.00  0.00     0.218 HD
ENDBRANCH  24  27
BRANCH  25  29
HETATM   29  O   UNL     1       8.866  22.560  53.628  1.00  0.00    -0.349 OA
BRANCH  29  30
HETATM   30  C   UNL     1       7.931  21.737  52.923  1.00  0.00     0.171 C 
HETATM   31  C   UNL     1       8.418  20.301  52.995  1.00  0.00     0.034 C 
ENDBRANCH  29  30
ENDBRANCH  25  29
ENDBRANCH   1  21
BRANCH   5  32
HETATM   32  O   UNL     1       3.551  28.362  54.432  1.00  0.00    -0.355 OA
HETATM   33  H   UNL     1       3.072  27.605  54.040  1.00  0.00     0.218 HD
ENDBRANCH   5  32
BRANCH   2  34
HETATM   34  C   UNL     1       8.316  28.646  55.600  1.00  0.00     0.129 C 
BRANCH  34  35
HETATM   35  C   UNL     1       8.870  28.331  56.991  1.00  0.00     0.048 C 
BRANCH  35  36
HETATM   36  C   UNL     1       8.777  29.535  57.922  1.00  0.00     0.235 C 
BRANCH  36  37
HETATM   37  N   UNL     1       9.850  30.552  57.577  1.00  0.00    -0.079 N 
HETATM   38  H   UNL     1       9.578  31.014  56.698  1.00  0.00     0.278 HD
HETATM   39  C   UNL     1       9.981  31.632  58.621  1.00  0.00     0.269 C 
HETATM   40  C   UNL     1      11.176  29.890  57.314  1.00  0.00     0.269 C 
ENDBRANCH  36  37
ENDBRANCH  35  36
ENDBRANCH  34  35
ENDBRANCH   2  34
TORSDOF 14
ENDMDL
MODEL 5
REMARK VINA RESULT:      -8.2      3.130      8.659
REMARK  14 active torsions:
REMARK  status: ('A' for Active; 'I' for Inactive)
REMARK    1  A    between atoms: C_2  and  O_3 
REMARK    2  A    between atoms: O_3  and  C_4 
REMARK    3  A    between atoms: C_5  and  O_6 
REMARK    4  A    between atoms: C_9  and  C_10 
REMARK    5  A    between atoms: N_11  and  C_12 
REMARK    6  A    between atoms: C_12  and  C_13 
REMARK    7  A    between atoms: C_13  and  C_14 
REMARK    8  A    between atoms: C_14  and  N_15 
REMARK    9  A    between atoms: C_21  and  O_22 
REMARK   10  A    between atoms: C_23  and  C_24 
REMARK   11  A    between atoms: C_24  and  C_25 
REMARK   12  A    between atoms: C_29  and  O_30 
REMARK   13  A    between atoms: O_30  and  C_31 
REMARK   14  A    between atoms: C_31  and  C_32 
ROOT
HETATM    1  C   UNL     1       6.997  29.601  57.706  1.00  0.00     0.161 A 
HETATM    2  N   UNL     1       8.160  30.280  58.277  1.00  0.00    -0.333 N 
HETATM    3  C   UNL     1       9.212  30.299  57.381  1.00  0.00     0.278 A 
HETATM    4  O   UNL     1      10.323  30.775  57.533  1.00  0.00    -0.265 OA
HETATM    5  C   UNL     1       8.777  29.591  56.159  1.00  0.00     0.146 A 
HETATM    6  C   UNL     1       7.539  29.145  56.390  1.00  0.00     0.059 A 
ENDROOT
BRANCH   6   7
HETATM    7  C   UNL     1       6.735  28.256  55.531  1.00  0.00     0.193 C 
HETATM    8  O   UNL     1       5.627  28.626  55.155  1.00  0.00    -0.287 OA
BRANCH   7   9
HETATM    9  C   UNL     1       7.217  26.884  55.201  1.00  0.00     0.015 A 
HETATM   10  C   UNL     1       7.356  26.540  53.851  1.00  0.00     0.025 A 
HETATM   11  C   UNL     1       7.753  25.245  53.472  1.00  0.00    -0.028 A 
HETATM   12  C   UNL     1       7.879  24.899  52.014  1.00  0.00     0.051 C 
HETATM   13  C   UNL     1       8.017  24.282  54.462  1.00  0.00     0.074 A 
HETATM   14  C   UNL     1       7.860  24.622  55.807  1.00  0.00     0.038 A 
HETATM   15  C   UNL     1       7.452  25.908  56.175  1.00  0.00     0.018 A 
BRANCH  13  16
HETATM   16  O   UNL     1       8.400  23.048  54.007  1.00  0.00    -0.350 OA
BRANCH  16  17
HETATM   17  C   UNL     1       9.223  22.252  54.861  1.00  0.00     0.179 C 
BRANCH  17  18
HETATM   18  C   UNL     1       8.716  20.803  54.836  1.00  0.00     0.002 C 
HETATM   19  C   UNL     1       7.713  20.543  55.962  1.00  0.00     0.011 C 
HETATM   20  C   UNL     1       8.088  20.483  53.481  1.00  0.00     0.011 C 
ENDBRANCH  17  18
ENDBRANCH  16  17
ENDBRANCH  13  16
ENDBRANCH   7   9
ENDBRANCH   6   7
BRANCH   1  21
HETATM   21  C   UNL     1       5.823  30.561  57.642  1.00  0.00    -0.028 A 
HETATM   22  C   UNL     1       4.531  30.192  58.056  1.00  0.00     0.012 A 
HETATM   23  C   UNL     1       3.464  31.089  57.959  1.00  0.00     0.040 A 
HETATM   24  C   UNL     1       3.680  32.376  57.465  1.00  0.00     0.099 A 
HETATM   25  C   UNL     1       4.963  32.780  57.090  1.00  0.00     0.102 A 
HETATM   26  C   UNL     1       6.019  31.864  57.158  1.00  0.00     0.049 A 
BRANCH  24  27
HETATM   27  O   UNL     1       2.615  33.221  57.330  1.00  0.00    -0.358 OA
HETATM   28  H   UNL     1       2.300  33.204  56.413  1.00  0.00     0.218 HD
ENDBRANCH  24  27
BRANCH  25  29
HETATM   29  O   UNL     1       5.313  34.015  56.612  1.00  0.00    -0.349 OA
BRANCH  29  30
HETATM   30  C   UNL     1       5.056  34.219  55.218  1.00  0.00     0.171 C 
HETATM   31  C   UNL     1       5.726  35.516  54.800  1.00  0.00     0.034 C 
ENDBRANCH  29  30
ENDBRANCH  25  29
ENDBRANCH   1  21
BRANCH   5  32
HETATM   32  O   UNL     1       9.578  29.379  55.079  1.00  0.00    -0.355 OA
HETATM   33  H   UNL     1      10.390  28.947  55.409  1.00  0.00     0.218 HD
ENDBRANCH   5  32
BRANCH   2  34
HETATM   34  C   UNL     1       8.315  30.390  59.720  1.00  0.00     0.129 C 
BRANCH  34  35
HETATM   35  C   UNL     1       8.638  31.794  60.232  1.00  0.00     0.048 C 
BRANCH  35  36
HETATM   36  C   UNL     1       7.937  32.091  61.552  1.00  0.00     0.235 C 
BRANCH  36  37
HETATM   37  N   UNL     1       6.452  31.795  61.438  1.00  0.00    -0.079 N 
HETATM   38  H   UNL     1       6.342  30.928  60.895  1.00  0.00     0.278 HD
HETATM   39  C   UNL     1       5.804  31.562  62.779  1.00  0.00     0.269 C 
HETATM   40  C   UNL     1       5.732  32.869  60.669  1.00  0.00     0.269 C 
ENDBRANCH  36  37
ENDBRANCH  35  36
ENDBRANCH  34  35
ENDBRANCH   2  34
TORSDOF 14
ENDMDL
MODEL 6
REMARK VINA RESULT:      -8.1      1.952      7.993
REMARK  14 active torsions:
REMARK  status: ('A' for Active; 'I' for Inactive)
REMARK    1  A    between atoms: C_2  and  O_3 
REMARK    2  A    between atoms: O_3  and  C_4 
REMARK    3  A    between atoms: C_5  and  O_6 
REMARK    4  A    between atoms: C_9  and  C_10 
REMARK    5  A    between atoms: N_11  and  C_12 
REMARK    6  A    between atoms: C_12  and  C_13 
REMARK    7  A    between atoms: C_13  and  C_14 
REMARK    8  A    between atoms: C_14  and  N_15 
REMARK    9  A    between atoms: C_21  and  O_22 
REMARK   10  A    between atoms: C_23  and  C_24 
REMARK   11  A    between atoms: C_24  and  C_25 
REMARK   12  A    between atoms: C_29  and  O_30 
REMARK   13  A    between atoms: O_30  and  C_31 
REMARK   14  A    between atoms: C_31  and  C_32 
ROOT
HETATM    1  C   UNL     1       6.038  26.758  55.537  1.00  0.00     0.161 A 
HETATM    2  N   UNL     1       6.513  25.379  55.423  1.00  0.00    -0.333 N 
HETATM    3  C   UNL     1       6.123  24.818  54.221  1.00  0.00     0.278 A 
HETATM    4  O   UNL     1       6.342  23.693  53.808  1.00  0.00    -0.265 OA
HETATM    5  C   UNL     1       5.332  25.828  53.487  1.00  0.00     0.146 A 
HETATM    6  C   UNL     1       5.240  26.899  54.280  1.00  0.00     0.059 A 
ENDROOT
BRANCH   6   7
HETATM    7  C   UNL     1       4.429  28.110  54.056  1.00  0.00     0.193 C 
HETATM    8  O   UNL     1       3.809  28.600  54.995  1.00  0.00    -0.287 OA
BRANCH   7   9
HETATM    9  C   UNL     1       4.281  28.678  52.685  1.00  0.00     0.015 A 
HETATM   10  C   UNL     1       2.991  28.794  52.154  1.00  0.00     0.025 A 
HETATM   11  C   UNL     1       2.787  29.269  50.846  1.00  0.00    -0.028 A 
HETATM   12  C   UNL     1       1.390  29.369  50.297  1.00  0.00     0.051 C 
HETATM   13  C   UNL     1       3.894  29.637  50.061  1.00  0.00     0.074 A 
HETATM   14  C   UNL     1       5.181  29.503  50.585  1.00  0.00     0.038 A 
HETATM   15  C   UNL     1       5.375  29.016  51.882  1.00  0.00     0.018 A 
BRANCH  13  16
HETATM   16  O   UNL     1       3.606  30.092  48.801  1.00  0.00    -0.350 OA
BRANCH  16  17
HETATM   17  C   UNL     1       4.060  29.311  47.694  1.00  0.00     0.179 C 
BRANCH  17  18
HETATM   18  C   UNL     1       3.673  27.843  47.924  1.00  0.00     0.002 C 
HETATM   19  C   UNL     1       2.466  27.442  47.073  1.00  0.00     0.011 C 
HETATM   20  C   UNL     1       4.859  26.928  47.627  1.00  0.00     0.011 C 
ENDBRANCH  17  18
ENDBRANCH  16  17
ENDBRANCH  13  16
ENDBRANCH   7   9
ENDBRANCH   6   7
BRANCH   1  21
HETATM   21  C   UNL     1       7.221  27.698  55.679  1.00  0.00    -0.028 A 
HETATM   22  C   UNL     1       7.943  28.165  54.566  1.00  0.00     0.012 A 
HETATM   23  C   UNL     1       9.046  29.007  54.731  1.00  0.00     0.040 A 
HETATM   24  C   UNL     1       9.429  29.410  56.010  1.00  0.00     0.099 A 
HETATM   25  C   UNL     1       8.700  28.995  57.127  1.00  0.00     0.102 A 
HETATM   26  C   UNL     1       7.618  28.124  56.956  1.00  0.00     0.049 A 
BRANCH  24  27
HETATM   27  O   UNL     1      10.540  30.193  56.154  1.00  0.00    -0.358 OA
HETATM   28  H   UNL     1      10.332  31.104  55.892  1.00  0.00     0.218 HD
ENDBRANCH  24  27
BRANCH  25  29
HETATM   29  O   UNL     1       8.956  29.333  58.429  1.00  0.00    -0.349 OA
BRANCH  29  30
HETATM   30  C   UNL     1       8.117  30.364  58.962  1.00  0.00     0.171 C 
HETATM   31  C   UNL     1       8.613  30.700  60.357  1.00  0.00     0.034 C 
ENDBRANCH  29  30
ENDBRANCH  25  29
ENDBRANCH   1  21
BRANCH   5  32
HETATM   32  O   UNL     1       4.749  25.603  52.278  1.00  0.00    -0.355 OA
HETATM   33  H   UNL     1       4.369  26.455  51.985  1.00  0.00     0.218 HD
ENDBRANCH   5  32
BRANCH   2  34
HETATM   34  C   UNL     1       6.838  24.610  56.615  1.00  0.00     0.129 C 
BRANCH  34  35
HETATM   35  C   UNL     1       8.306  24.205  56.744  1.00  0.00     0.048 C 
BRANCH  35  36
HETATM   36  C   UNL     1       8.464  22.700  56.928  1.00  0.00     0.235 C 
BRANCH  36  37
HETATM   37  N   UNL     1       8.130  21.973  55.638  1.00  0.00    -0.079 N 
HETATM   38  H   UNL     1       7.334  22.455  55.200  1.00  0.00     0.278 HD
HETATM   39  C   UNL     1       9.265  22.002  54.646  1.00  0.00     0.269 C 
HETATM   40  C   UNL     1       7.676  20.562  55.901  1.00  0.00     0.269 C 
ENDBRANCH  36  37
ENDBRANCH  35  36
ENDBRANCH  34  35
ENDBRANCH   2  34
TORSDOF 14
ENDMDL
MODEL 7
REMARK VINA RESULT:      -8.1      4.866      8.689
REMARK  14 active torsions:
REMARK  status: ('A' for Active; 'I' for Inactive)
REMARK    1  A    between atoms: C_2  and  O_3 
REMARK    2  A    between atoms: O_3  and  C_4 
REMARK    3  A    between atoms: C_5  and  O_6 
REMARK    4  A    between atoms: C_9  and  C_10 
REMARK    5  A    between atoms: N_11  and  C_12 
REMARK    6  A    between atoms: C_12  and  C_13 
REMARK    7  A    between atoms: C_13  and  C_14 
REMARK    8  A    between atoms: C_14  and  N_15 
REMARK    9  A    between atoms: C_21  and  O_22 
REMARK   10  A    between atoms: C_23  and  C_24 
REMARK   11  A    between atoms: C_24  and  C_25 
REMARK   12  A    between atoms: C_29  and  O_30 
REMARK   13  A    between atoms: O_30  and  C_31 
REMARK   14  A    between atoms: C_31  and  C_32 
ROOT
HETATM    1  C   UNL     1       3.584  29.136  50.139  1.00  0.00     0.161 A 
HETATM    2  N   UNL     1       4.430  30.168  49.541  1.00  0.00    -0.333 N 
HETATM    3  C   UNL     1       5.613  30.308  50.243  1.00  0.00     0.278 A 
HETATM    4  O   UNL     1       6.534  31.075  50.023  1.00  0.00    -0.265 OA
HETATM    5  C   UNL     1       5.579  29.362  51.377  1.00  0.00     0.146 A 
HETATM    6  C   UNL     1       4.390  28.753  51.338  1.00  0.00     0.059 A 
ENDROOT
BRANCH   6   7
HETATM    7  C   UNL     1       3.825  27.832  52.342  1.00  0.00     0.193 C 
HETATM    8  O   UNL     1       2.752  28.106  52.871  1.00  0.00    -0.287 OA
BRANCH   7   9
HETATM    9  C   UNL     1       4.592  26.632  52.784  1.00  0.00     0.015 A 
HETATM   10  C   UNL     1       4.965  26.546  54.131  1.00  0.00     0.025 A 
HETATM   11  C   UNL     1       5.737  25.468  54.600  1.00  0.00    -0.028 A 
HETATM   12  C   UNL     1       6.135  25.411  56.049  1.00  0.00     0.051 C 
HETATM   13  C   UNL     1       6.137  24.460  53.706  1.00  0.00     0.074 A 
HETATM   14  C   UNL     1       5.779  24.556  52.360  1.00  0.00     0.038 A 
HETATM   15  C   UNL     1       5.023  25.639  51.899  1.00  0.00     0.018 A 
BRANCH  13  16
HETATM   16  O   UNL     1       6.883  23.446  54.246  1.00  0.00    -0.350 OA
BRANCH  16  17
HETATM   17  C   UNL     1       7.740  22.713  53.370  1.00  0.00     0.179 C 
BRANCH  17  18
HETATM   18  C   UNL     1       7.949  21.302  53.937  1.00  0.00     0.002 C 
HETATM   19  C   UNL     1       8.450  20.335  52.862  1.00  0.00     0.011 C 
HETATM   20  C   UNL     1       8.923  21.340  55.112  1.00  0.00     0.011 C 
ENDBRANCH  17  18
ENDBRANCH  16  17
ENDBRANCH  13  16
ENDBRANCH   7   9
ENDBRANCH   6   7
BRANCH   1  21
HETATM   21  C   UNL     1       3.333  28.030  49.129  1.00  0.00    -0.028 A 
HETATM   22  C   UNL     1       4.351  27.155  48.710  1.00  0.00     0.012 A 
HETATM   23  C   UNL     1       4.096  26.165  47.758  1.00  0.00     0.040 A 
HETATM   24  C   UNL     1       2.814  26.023  47.226  1.00  0.00     0.099 A 
HETATM   25  C   UNL     1       1.777  26.852  47.661  1.00  0.00     0.102 A 
HETATM   26  C   UNL     1       2.049  27.863  48.589  1.00  0.00     0.049 A 
BRANCH  24  27
HETATM   27  O   UNL     1       2.597  25.082  46.260  1.00  0.00    -0.358 OA
HETATM   28  H   UNL     1       3.296  24.411  46.298  1.00  0.00     0.218 HD
ENDBRANCH  24  27
BRANCH  25  29
HETATM   29  O   UNL     1       0.475  26.805  47.238  1.00  0.00    -0.349 OA
BRANCH  29  30
HETATM   30  C   UNL     1       0.207  27.516  46.025  1.00  0.00     0.171 C 
HETATM   31  C   UNL     1      -1.097  28.274  46.201  1.00  0.00     0.034 C 
ENDBRANCH  29  30
ENDBRANCH  25  29
ENDBRANCH   1  21
BRANCH   5  32
HETATM   32  O   UNL     1       6.566  29.258  52.308  1.00  0.00    -0.355 OA
HETATM   33  H   UNL     1       6.685  28.305  52.490  1.00  0.00     0.218 HD
ENDBRANCH   5  32
BRANCH   2  34
HETATM   34  C   UNL     1       3.845  31.212  48.711  1.00  0.00     0.129 C 
BRANCH  34  35
HETATM   35  C   UNL     1       3.550  32.526  49.436  1.00  0.00     0.048 C 
BRANCH  35  36
HETATM   36  C   UNL     1       2.295  32.427  50.295  1.00  0.00     0.235 C 
BRANCH  36  37
HETATM   37  N   UNL     1       2.571  32.949  51.694  1.00  0.00    -0.079 N 
HETATM   38  H   UNL     1       1.711  33.394  52.042  1.00  0.00     0.278 HD
HETATM   39  C   UNL     1       2.923  31.849  52.663  1.00  0.00     0.269 C 
HETATM   40  C   UNL     1       3.628  34.021  51.685  1.00  0.00     0.269 C 
ENDBRANCH  36  37
ENDBRANCH  35  36
ENDBRANCH  34  35
ENDBRANCH   2  34
TORSDOF 14
ENDMDL
MODEL 8
REMARK VINA RESULT:      -7.9      2.908      6.350
REMARK  14 active torsions:
REMARK  status: ('A' for Active; 'I' for Inactive)
REMARK    1  A    between atoms: C_2  and  O_3 
REMARK    2  A    between atoms: O_3  and  C_4 
REMARK    3  A    between atoms: C_5  and  O_6 
REMARK    4  A    between atoms: C_9  and  C_10 
REMARK    5  A    between atoms: N_11  and  C_12 
REMARK    6  A    between atoms: C_12  and  C_13 
REMARK    7  A    between atoms: C_13  and  C_14 
REMARK    8  A    between atoms: C_14  and  N_15 
REMARK    9  A    between atoms: C_21  and  O_22 
REMARK   10  A    between atoms: C_23  and  C_24 
REMARK   11  A    between atoms: C_24  and  C_25 
REMARK   12  A    between atoms: C_29  and  O_30 
REMARK   13  A    between atoms: O_30  and  C_31 
REMARK   14  A    between atoms: C_31  and  C_32 
ROOT
HETATM    1  C   UNL     1       5.821  29.686  57.092  1.00  0.00     0.161 A 
HETATM    2  N   UNL     1       5.290  28.556  56.332  1.00  0.00    -0.333 N 
HETATM    3  C   UNL     1       4.447  28.988  55.325  1.00  0.00     0.278 A 
HETATM    4  O   UNL     1       3.834  28.317  54.514  1.00  0.00    -0.265 OA
HETATM    5  C   UNL     1       4.371  30.462  55.402  1.00  0.00     0.146 A 
HETATM    6  C   UNL     1       5.107  30.833  56.453  1.00  0.00     0.059 A 
ENDROOT
BRANCH   6   7
HETATM    7  C   UNL     1       5.224  32.186  57.029  1.00  0.00     0.193 C 
HETATM    8  O   UNL     1       5.504  33.129  56.295  1.00  0.00    -0.287 OA
BRANCH   7   9
HETATM    9  C   UNL     1       5.101  32.395  58.500  1.00  0.00     0.015 A 
HETATM   10  C   UNL     1       3.886  32.879  59.000  1.00  0.00     0.025 A 
HETATM   11  C   UNL     1       3.724  33.150  60.370  1.00  0.00    -0.028 A 
HETATM   12  C   UNL     1       2.411  33.684  60.875  1.00  0.00     0.051 C 
HETATM   13  C   UNL     1       4.795  32.929  61.253  1.00  0.00     0.074 A 
HETATM   14  C   UNL     1       6.012  32.463  60.751  1.00  0.00     0.038 A 
HETATM   15  C   UNL     1       6.169  32.209  59.384  1.00  0.00     0.018 A 
BRANCH  13  16
HETATM   16  O   UNL     1       4.551  33.215  62.570  1.00  0.00    -0.350 OA
BRANCH  16  17
HETATM   17  C   UNL     1       5.345  32.549  63.553  1.00  0.00     0.179 C 
BRANCH  17  18
HETATM   18  C   UNL     1       6.316  33.558  64.182  1.00  0.00     0.002 C 
HETATM   19  C   UNL     1       5.937  33.870  65.631  1.00  0.00     0.011 C 
HETATM   20  C   UNL     1       7.749  33.034  64.109  1.00  0.00     0.011 C 
ENDBRANCH  17  18
ENDBRANCH  16  17
ENDBRANCH  13  16
ENDBRANCH   7   9
ENDBRANCH   6   7
BRANCH   1  21
HETATM   21  C   UNL     1       7.336  29.708  56.986  1.00  0.00    -0.028 A 
HETATM   22  C   UNL     1       8.009  29.335  55.809  1.00  0.00     0.012 A 
HETATM   23  C   UNL     1       9.404  29.338  55.751  1.00  0.00     0.040 A 
HETATM   24  C   UNL     1      10.147  29.735  56.863  1.00  0.00     0.099 A 
HETATM   25  C   UNL     1       9.499  30.153  58.028  1.00  0.00     0.102 A 
HETATM   26  C   UNL     1       8.102  30.114  58.090  1.00  0.00     0.049 A 
BRANCH  24  27
HETATM   27  O   UNL     1      11.511  29.683  56.803  1.00  0.00    -0.358 OA
HETATM   28  H   UNL     1      11.803  28.759  56.841  1.00  0.00     0.218 HD
ENDBRANCH  24  27
BRANCH  25  29
HETATM   29  O   UNL     1      10.106  30.586  59.178  1.00  0.00    -0.349 OA
BRANCH  29  30
HETATM   30  C   UNL     1       9.746  31.908  59.591  1.00  0.00     0.171 C 
HETATM   31  C   UNL     1       9.669  31.924  61.107  1.00  0.00     0.034 C 
ENDBRANCH  29  30
ENDBRANCH  25  29
ENDBRANCH   1  21
BRANCH   5  32
HETATM   32  O   UNL     1       3.594  31.226  54.586  1.00  0.00    -0.355 OA
HETATM   33  H   UNL     1       2.705  31.257  54.990  1.00  0.00     0.218 HD
ENDBRANCH   5  32
BRANCH   2  34
HETATM   34  C   UNL     1       5.238  27.227  56.924  1.00  0.00     0.129 C 
BRANCH  34  35
HETATM   35  C   UNL     1       6.245  26.226  56.357  1.00  0.00     0.048 C 
BRANCH  35  36
HETATM   36  C   UNL     1       5.594  25.269  55.365  1.00  0.00     0.235 C 
BRANCH  36  37
HETATM   37  N   UNL     1       5.548  25.894  53.982  1.00  0.00    -0.079 N 
HETATM   38  H   UNL     1       4.910  26.701  54.020  1.00  0.00     0.278 HD
HETATM   39  C   UNL     1       6.891  26.413  53.535  1.00  0.00     0.269 C 
HETATM   40  C   UNL     1       4.969  24.946  52.966  1.00  0.00     0.269 C 
ENDBRANCH  36  37
ENDBRANCH  35  36
ENDBRANCH  34  35
ENDBRANCH   2  34
TORSDOF 14
ENDMDL
MODEL 9
REMARK VINA RESULT:      -7.9      2.977      8.633
REMARK  14 active torsions:
REMARK  status: ('A' for Active; 'I' for Inactive)
REMARK    1  A    between atoms: C_2  and  O_3 
REMARK    2  A    between atoms: O_3  and  C_4 
REMARK    3  A    between atoms: C_5  and  O_6 
REMARK    4  A    between atoms: C_9  and  C_10 
REMARK    5  A    between atoms: N_11  and  C_12 
REMARK    6  A    between atoms: C_12  and  C_13 
REMARK    7  A    between atoms: C_13  and  C_14 
REMARK    8  A    between atoms: C_14  and  N_15 
REMARK    9  A    between atoms: C_21  and  O_22 
REMARK   10  A    between atoms: C_23  and  C_24 
REMARK   11  A    between atoms: C_24  and  C_25 
REMARK   12  A    between atoms: C_29  and  O_30 
REMARK   13  A    between atoms: O_30  and  C_31 
REMARK   14  A    between atoms: C_31  and  C_32 
ROOT
HETATM    1  C   UNL     1       7.388  29.633  58.224  1.00  0.00     0.161 A 
HETATM    2  N   UNL     1       8.155  30.837  58.543  1.00  0.00    -0.333 N 
HETATM    3  C   UNL     1       9.426  30.772  58.003  1.00  0.00     0.278 A 
HETATM    4  O   UNL     1      10.321  31.595  58.079  1.00  0.00    -0.265 OA
HETATM    5  C   UNL     1       9.555  29.474  57.308  1.00  0.00     0.146 A 
HETATM    6  C   UNL     1       8.410  28.815  57.502  1.00  0.00     0.059 A 
ENDROOT
BRANCH   6   7
HETATM    7  C   UNL     1       8.108  27.420  57.132  1.00  0.00     0.193 C 
HETATM    8  O   UNL     1       8.291  26.527  57.953  1.00  0.00    -0.287 OA
BRANCH   7   9
HETATM    9  C   UNL     1       7.678  27.082  55.744  1.00  0.00     0.015 A 
HETATM   10  C   UNL     1       7.538  25.730  55.406  1.00  0.00     0.025 A 
HETATM   11  C   UNL     1       7.191  25.343  54.100  1.00  0.00    -0.028 A 
HETATM   12  C   UNL     1       7.062  23.883  53.763  1.00  0.00     0.051 C 
HETATM   13  C   UNL     1       6.977  26.326  53.118  1.00  0.00     0.074 A 
HETATM   14  C   UNL     1       7.135  27.674  53.452  1.00  0.00     0.038 A 
HETATM   15  C   UNL     1       7.495  28.049  54.751  1.00  0.00     0.018 A 
BRANCH  13  16
HETATM   16  O   UNL     1       6.640  25.864  51.874  1.00  0.00    -0.350 OA
BRANCH  16  17
HETATM   17  C   UNL     1       5.266  25.936  51.489  1.00  0.00     0.179 C 
BRANCH  17  18
HETATM   18  C   UNL     1       5.113  26.982  50.375  1.00  0.00     0.002 C 
HETATM   19  C   UNL     1       4.355  26.414  49.174  1.00  0.00     0.011 C 
HETATM   20  C   UNL     1       4.405  28.226  50.909  1.00  0.00     0.011 C 
ENDBRANCH  17  18
ENDBRANCH  16  17
ENDBRANCH  13  16
ENDBRANCH   7   9
ENDBRANCH   6   7
BRANCH   1  21
HETATM   21  C   UNL     1       6.154  30.008  57.424  1.00  0.00    -0.028 A 
HETATM   22  C   UNL     1       5.028  29.170  57.349  1.00  0.00     0.012 A 
HETATM   23  C   UNL     1       3.917  29.530  56.581  1.00  0.00     0.040 A 
HETATM   24  C   UNL     1       3.911  30.744  55.893  1.00  0.00     0.099 A 
HETATM   25  C   UNL     1       5.000  31.613  55.990  1.00  0.00     0.102 A 
HETATM   26  C   UNL     1       6.121  31.230  56.733  1.00  0.00     0.049 A 
BRANCH  24  27
HETATM   27  O   UNL     1       2.837  31.055  55.108  1.00  0.00    -0.358 OA
HETATM   28  H   UNL     1       2.049  30.594  55.436  1.00  0.00     0.218 HD
ENDBRANCH  24  27
BRANCH  25  29
HETATM   29  O   UNL     1       5.111  32.838  55.386  1.00  0.00    -0.349 OA
BRANCH  29  30
HETATM   30  C   UNL     1       4.848  33.958  56.237  1.00  0.00     0.171 C 
HETATM   31  C   UNL     1       5.161  35.225  55.460  1.00  0.00     0.034 C 
ENDBRANCH  29  30
ENDBRANCH  25  29
ENDBRANCH   1  21
BRANCH   5  32
HETATM   32  O   UNL     1      10.695  29.051  56.695  1.00  0.00    -0.355 OA
HETATM   33  H   UNL     1      11.193  29.853  56.440  1.00  0.00     0.218 HD
ENDBRANCH   5  32
BRANCH   2  34
HETATM   34  C   UNL     1       7.798  31.658  59.690  1.00  0.00     0.129 C 
BRANCH  34  35
HETATM   35  C   UNL     1       8.078  31.023  61.053  1.00  0.00     0.048 C 
BRANCH  35  36
HETATM   36  C   UNL     1       8.534  32.057  62.075  1.00  0.00     0.235 C 
BRANCH  36  37
HETATM   37  N   UNL     1       7.335  32.676  62.771  1.00  0.00    -0.079 N 
HETATM   38  H   UNL     1       7.102  33.551  62.282  1.00  0.00     0.278 HD
HETATM   39  C   UNL     1       6.113  31.796  62.711  1.00  0.00     0.269 C 
HETATM   40  C   UNL     1       7.657  33.059  64.191  1.00  0.00     0.269 C 
ENDBRANCH  36  37
ENDBRANCH  35  36
ENDBRANCH  34  35
ENDBRANCH   2  34
TORSDOF 14
ENDMDL
MODEL 10
REMARK VINA RESULT:      -7.9      1.654      2.478
REMARK  14 active torsions:
REMARK  status: ('A' for Active; 'I' for Inactive)
REMARK    1  A    between atoms: C_2  and  O_3 
REMARK    2  A    between atoms: O_3  and  C_4 
REMARK    3  A    between atoms: C_5  and  O_6 
REMARK    4  A    between atoms: C_9  and  C_10 
REMARK    5  A    between atoms: N_11  and  C_12 
REMARK    6  A    between atoms: C_12  and  C_13 
REMARK    7  A    between atoms: C_13  and  C_14 
REMARK    8  A    between atoms: C_14  and  N_15 
REMARK    9  A    between atoms: C_21  and  O_22 
REMARK   10  A    between atoms: C_23  and  C_24 
REMARK   11  A    between atoms: C_24  and  C_25 
REMARK   12  A    between atoms: C_29  and  O_30 
REMARK   13  A    between atoms: O_30  and  C_31 
REMARK   14  A    between atoms: C_31  and  C_32 
ROOT
HETATM    1  C   UNL     1       6.451  26.765  54.605  1.00  0.00     0.161 A 
HETATM    2  N   UNL     1       6.902  25.406  54.901  1.00  0.00    -0.333 N 
HETATM    3  C   UNL     1       6.201  24.871  55.966  1.00  0.00     0.278 A 
HETATM    4  O   UNL     1       6.325  23.772  56.475  1.00  0.00    -0.265 OA
HETATM    5  C   UNL     1       5.249  25.898  56.440  1.00  0.00     0.146 A 
HETATM    6  C   UNL     1       5.454  26.989  55.696  1.00  0.00     0.059 A 
ENDROOT
BRANCH   6   7
HETATM    7  C   UNL     1       4.853  28.323  55.882  1.00  0.00     0.193 C 
HETATM    8  O   UNL     1       3.820  28.605  55.283  1.00  0.00    -0.287 OA
BRANCH   7   9
HETATM    9  C   UNL     1       5.543  29.354  56.710  1.00  0.00     0.015 A 
HETATM   10  C   UNL     1       6.915  29.202  56.945  1.00  0.00     0.025 A 
HETATM   11  C   UNL     1       7.613  30.108  57.763  1.00  0.00    -0.028 A 
HETATM   12  C   UNL     1       9.084  29.911  58.010  1.00  0.00     0.051 C 
HETATM   13  C   UNL     1       6.926  31.184  58.350  1.00  0.00     0.074 A 
HETATM   14  C   UNL     1       5.554  31.324  58.129  1.00  0.00     0.038 A 
HETATM   15  C   UNL     1       4.865  30.410  57.326  1.00  0.00     0.018 A 
BRANCH  13  16
HETATM   16  O   UNL     1       7.682  32.020  59.129  1.00  0.00    -0.350 OA
BRANCH  16  17
HETATM   17  C   UNL     1       7.215  32.299  60.450  1.00  0.00     0.179 C 
BRANCH  17  18
HETATM   18  C   UNL     1       8.218  31.734  61.466  1.00  0.00     0.002 C 
HETATM   19  C   UNL     1       9.662  31.985  61.025  1.00  0.00     0.011 C 
HETATM   20  C   UNL     1       7.972  32.337  62.847  1.00  0.00     0.011 C 
ENDBRANCH  17  18
ENDBRANCH  16  17
ENDBRANCH  13  16
ENDBRANCH   7   9
ENDBRANCH   6   7
BRANCH   1  21
HETATM   21  C   UNL     1       5.908  26.828  53.189  1.00  0.00    -0.028 A 
HETATM   22  C   UNL     1       5.380  25.697  52.540  1.00  0.00     0.012 A 
HETATM   23  C   UNL     1       4.914  25.780  51.225  1.00  0.00     0.040 A 
HETATM   24  C   UNL     1       4.950  26.999  50.549  1.00  0.00     0.099 A 
HETATM   25  C   UNL     1       5.428  28.145  51.189  1.00  0.00     0.102 A 
HETATM   26  C   UNL     1       5.924  28.047  52.493  1.00  0.00     0.049 A 
BRANCH  24  27
HETATM   27  O   UNL     1       4.536  27.048  49.248  1.00  0.00    -0.358 OA
HETATM   28  H   UNL     1       5.299  26.933  48.660  1.00  0.00     0.218 HD
ENDBRANCH  24  27
BRANCH  25  29
HETATM   29  O   UNL     1       5.497  29.402  50.649  1.00  0.00    -0.349 OA
BRANCH  29  30
HETATM   30  C   UNL     1       4.728  30.397  51.333  1.00  0.00     0.171 C 
HETATM   31  C   UNL     1       3.263  30.167  51.007  1.00  0.00     0.034 C 
ENDBRANCH  29  30
ENDBRANCH  25  29
ENDBRANCH   1  21
BRANCH   5  32
HETATM   32  O   UNL     1       4.422  25.731  57.507  1.00  0.00    -0.355 OA
HETATM   33  H   UNL     1       4.950  25.921  58.307  1.00  0.00     0.218 HD
ENDBRANCH   5  32
BRANCH   2  34
HETATM   34  C   UNL     1       8.228  24.963  54.494  1.00  0.00     0.129 C 
BRANCH  34  35
HETATM   35  C   UNL     1       8.260  23.647  53.715  1.00  0.00     0.048 C 
BRANCH  35  36
HETATM   36  C   UNL     1       8.805  22.503  54.562  1.00  0.00     0.235 C 
BRANCH  36  37
HETATM   37  N   UNL     1       7.794  21.372  54.634  1.00  0.00    -0.079 N 
HETATM   38  H   UNL     1       6.855  21.790  54.687  1.00  0.00     0.278 HD
HETATM   39  C   UNL     1       7.820  20.494  53.408  1.00  0.00     0.269 C 
HETATM   40  C   UNL     1       7.966  20.557  55.887  1.00  0.00     0.269 C 
ENDBRANCH  36  37
ENDBRANCH  35  36
ENDBRANCH  34  35
ENDBRANCH   2  34
TORSDOF 14
ENDMDL
