MODEL 1
REMARK VINA RESULT:      -8.5      0.000      0.000
REMARK  6 active torsions:
REMARK  status: ('A' for Active; 'I' for Inactive)
REMARK    1  A    between atoms: N_2  and  C_4 
REMARK    2  A    between atoms: N_2  and  C_16 
REMARK    3  A    between atoms: C_4  and  C_5 
REMARK       I    between atoms: C_5  and  N_6 
REMARK    4  A    between atoms: N_6  and  C_7 
REMARK    5  A    between atoms: C_16  and  C_17 
REMARK    6  A    between atoms: C_21  and  C_22 
ROOT
HETATM    1  C   UNL     1       5.367  29.205  51.678  1.00  0.00     0.270 C 
HETATM    2  N   UNL     1       5.106  28.073  52.622  1.00  0.00    -0.061 N 
HETATM    3  H   UNL     1       5.942  28.011  53.232  1.00  0.00     0.280 HD
ENDROOT
BRANCH   2   4
HETATM    4  C   UNL     1       3.881  28.281  53.504  1.00  0.00     0.337 C 
BRANCH   4   5
HETATM    5  C   UNL     1       4.062  29.327  54.605  1.00  0.00     0.248 C 
HETATM    6  N   UNL     1       4.900  29.146  55.661  1.00  0.00    -0.326 N 
HETATM    7  H   UNL     1       4.946  29.991  56.229  1.00  0.00     0.169 HD
HETATM    8  O   UNL     1       3.452  30.402  54.539  1.00  0.00    -0.271 OA
BRANCH   6   9
HETATM    9  C   UNL     1       5.686  28.072  56.122  1.00  0.00     0.040 A 
HETATM   10  C   UNL     1       5.247  26.764  56.316  1.00  0.00     0.072 A 
HETATM   11  C   UNL     1       6.135  25.790  56.785  1.00  0.00     0.121 A 
HETATM   12  F   UNL     1       5.685  24.541  56.958  1.00  0.00    -0.206 F 
HETATM   13  C   UNL     1       7.456  26.086  57.076  1.00  0.00     0.084 A 
HETATM   14  C   UNL     1       7.886  27.387  56.900  1.00  0.00     0.121 A 
HETATM   15  F   UNL     1       9.155  27.709  57.179  1.00  0.00    -0.206 F 
HETATM   16  C   UNL     1       7.020  28.375  56.434  1.00  0.00     0.072 A 
ENDBRANCH   6   9
ENDBRANCH   4   5
ENDBRANCH   2   4
BRANCH   2  17
HETATM   17  C   UNL     1       5.138  26.721  51.920  1.00  0.00     0.295 C 
BRANCH  17  18
HETATM   18  C   UNL     1       6.069  25.793  52.640  1.00  0.00     0.082 A 
HETATM   19  N   UNL     1       7.232  26.268  53.115  1.00  0.00    -0.177 NA
HETATM   20  N   UNL     1       7.815  25.178  53.666  1.00  0.00    -0.277 N 
HETATM   21  H   UNL     1       8.732  25.274  54.090  1.00  0.00     0.189 HD
HETATM   22  C   UNL     1       7.076  24.026  53.538  1.00  0.00     0.062 A 
HETATM   23  C   UNL     1       5.926  24.412  52.877  1.00  0.00     0.062 A 
BRANCH  22  24
HETATM   24  C   UNL     1       7.525  22.714  54.005  1.00  0.00    -0.008 A 
HETATM   25  C   UNL     1       7.572  22.398  55.370  1.00  0.00     0.014 A 
HETATM   26  C   UNL     1       8.015  21.142  55.797  1.00  0.00     0.001 A 
HETATM   27  C   UNL     1       8.412  20.186  54.865  1.00  0.00     0.000 A 
HETATM   28  C   UNL     1       8.365  20.482  53.506  1.00  0.00     0.001 A 
HETATM   29  C   UNL     1       7.923  21.737  53.079  1.00  0.00     0.014 A 
ENDBRANCH  22  24
ENDBRANCH  17  18
ENDBRANCH   2  17
TORSDOF 6
ENDMDL
MODEL 2
REMARK VINA RESULT:      -8.5      4.716      8.749
REMARK  6 active torsions:
REMARK  status: ('A' for Active; 'I' for Inactive)
REMARK    1  A    between atoms: N_2  and  C_4 
REMARK    2  A    between atoms: N_2  and  C_16 
REMARK    3  A    between atoms: C_4  and  C_5 
REMARK       I    between atoms: C_5  and  N_6 
REMARK    4  A    between atoms: N_6  and  C_7 
REMARK    5  A    between atoms: C_16  and  C_17 
REMARK    6  A    between atoms: C_21  and  C_22 
ROOT
HETATM    1  C   UNL     1       4.921  28.274  56.603  1.00  0.00     0.270 C 
HETATM    2  N   UNL     1       6.386  28.243  56.913  1.00  0.00    -0.061 N 
HETATM    3  H   UNL     1       6.459  28.061  57.930  1.00  0.00     0.280 HD
ENDROOT
BRANCH   2   4
HETATM    4  C   UNL     1       7.145  27.150  56.172  1.00  0.00     0.337 C 
BRANCH   4   5
HETATM    5  C   UNL     1       7.660  26.018  57.064  1.00  0.00     0.248 C 
HETATM    6  N   UNL     1       8.012  24.799  56.574  1.00  0.00    -0.326 N 
HETATM    7  H   UNL     1       8.414  24.221  57.311  1.00  0.00     0.169 HD
HETATM    8  O   UNL     1       7.798  26.206  58.279  1.00  0.00    -0.271 OA
BRANCH   6   9
HETATM    9  C   UNL     1       7.936  24.186  55.308  1.00  0.00     0.040 A 
HETATM   10  C   UNL     1       7.965  24.843  54.081  1.00  0.00     0.072 A 
HETATM   11  C   UNL     1       7.877  24.110  52.892  1.00  0.00     0.121 A 
HETATM   12  F   UNL     1       7.910  24.770  51.727  1.00  0.00    -0.206 F 
HETATM   13  C   UNL     1       7.751  22.731  52.892  1.00  0.00     0.084 A 
HETATM   14  C   UNL     1       7.706  22.082  54.111  1.00  0.00     0.121 A 
HETATM   15  F   UNL     1       7.577  20.750  54.147  1.00  0.00    -0.206 F 
HETATM   16  C   UNL     1       7.792  22.790  55.309  1.00  0.00     0.072 A 
ENDBRANCH   6   9
ENDBRANCH   4   5
ENDBRANCH   2   4
BRANCH   2  17
HETATM   17  C   UNL     1       7.026  29.622  56.801  1.00  0.00     0.295 C 
BRANCH  17  18
HETATM   18  C   UNL     1       7.411  30.117  58.162  1.00  0.00     0.082 A 
HETATM   19  N   UNL     1       8.377  29.480  58.845  1.00  0.00    -0.177 NA
HETATM   20  N   UNL     1       8.441  30.164  60.011  1.00  0.00    -0.277 N 
HETATM   21  H   UNL     1       9.102  29.862  60.720  1.00  0.00     0.189 HD
HETATM   22  C   UNL     1       7.538  31.196  60.102  1.00  0.00     0.062 A 
HETATM   23  C   UNL     1       6.862  31.186  58.898  1.00  0.00     0.062 A 
BRANCH  22  24
HETATM   24  C   UNL     1       7.383  32.039  61.288  1.00  0.00    -0.008 A 
HETATM   25  C   UNL     1       8.164  31.843  62.435  1.00  0.00     0.014 A 
HETATM   26  C   UNL     1       7.993  32.652  63.562  1.00  0.00     0.001 A 
HETATM   27  C   UNL     1       7.043  33.670  63.556  1.00  0.00     0.000 A 
HETATM   28  C   UNL     1       6.263  33.882  62.421  1.00  0.00     0.001 A 
HETATM   29  C   UNL     1       6.433  33.073  61.295  1.00  0.00     0.014 A 
ENDBRANCH  22  24
ENDBRANCH  17  18
ENDBRANCH   2  17
TORSDOF 6
ENDMDL
MODEL 3
REMARK VINA RESULT:      -8.4      2.573      3.560
REMARK  6 active torsions:
REMARK  status: ('A' for Active; 'I' for Inactive)
REMARK    1  A    between atoms: N_2  and  C_4 
REMARK    2  A    between atoms: N_2  and  C_16 
REMARK    3  A    between atoms: C_4  and  C_5 
REMARK       I    between atoms: C_5  and  N_6 
REMARK    4  A    between atoms: N_6  and  C_7 
REMARK    5  A    between atoms: C_16  and  C_17 
REMARK    6  A    between atoms: C_21  and  C_22 
ROOT
HETATM    1  C   UNL     1       7.661  28.161  53.956  1.00  0.00     0.270 C 
HETATM    2  N   UNL     1       6.564  27.935  54.950  1.00  0.00    -0.061 N 
HETATM    3  H   UNL     1       6.963  27.317  55.680  1.00  0.00     0.280 HD
ENDROOT
BRANCH   2   4
HETATM    4  C   UNL     1       6.068  29.211  55.616  1.00  0.00     0.337 C 
BRANCH   4   5
HETATM    5  C   UNL     1       5.819  29.087  57.120  1.00  0.00     0.248 C 
HETATM    6  N   UNL     1       6.748  29.437  58.050  1.00  0.00    -0.326 N 
HETATM    7  H   UNL     1       6.357  29.366  58.989  1.00  0.00     0.169 HD
HETATM    8  O   UNL     1       4.725  28.681  57.531  1.00  0.00    -0.271 OA
BRANCH   6   9
HETATM    9  C   UNL     1       8.091  29.856  57.992  1.00  0.00     0.040 A 
HETATM   10  C   UNL     1       9.102  29.253  57.248  1.00  0.00     0.072 A 
HETATM   11  C   UNL     1      10.401  29.772  57.283  1.00  0.00     0.121 A 
HETATM   12  F   UNL     1      11.352  29.172  56.555  1.00  0.00    -0.206 F 
HETATM   13  C   UNL     1      10.726  30.877  58.051  1.00  0.00     0.084 A 
HETATM   14  C   UNL     1       9.726  31.465  58.801  1.00  0.00     0.121 A 
HETATM   15  F   UNL     1      10.007  32.531  59.561  1.00  0.00    -0.206 F 
HETATM   16  C   UNL     1       8.424  30.967  58.783  1.00  0.00     0.072 A 
ENDBRANCH   6   9
ENDBRANCH   4   5
ENDBRANCH   2   4
BRANCH   2  17
HETATM   17  C   UNL     1       5.450  27.061  54.385  1.00  0.00     0.295 C 
BRANCH  17  18
HETATM   18  C   UNL     1       6.005  25.734  53.963  1.00  0.00     0.082 A 
HETATM   19  N   UNL     1       5.838  25.325  52.694  1.00  0.00    -0.177 NA
HETATM   20  N   UNL     1       6.427  24.107  52.678  1.00  0.00    -0.277 N 
HETATM   21  H   UNL     1       6.422  23.571  51.815  1.00  0.00     0.189 HD
HETATM   22  C   UNL     1       6.941  23.719  53.891  1.00  0.00     0.062 A 
HETATM   23  C   UNL     1       6.682  24.776  54.742  1.00  0.00     0.062 A 
BRANCH  22  24
HETATM   24  C   UNL     1       7.573  22.421  54.132  1.00  0.00    -0.008 A 
HETATM   25  C   UNL     1       8.030  21.621  53.075  1.00  0.00     0.014 A 
HETATM   26  C   UNL     1       8.622  20.379  53.323  1.00  0.00     0.001 A 
HETATM   27  C   UNL     1       8.768  19.923  54.631  1.00  0.00     0.000 A 
HETATM   28  C   UNL     1       8.325  20.708  55.692  1.00  0.00     0.001 A 
HETATM   29  C   UNL     1       7.732  21.948  55.444  1.00  0.00     0.014 A 
ENDBRANCH  22  24
ENDBRANCH  17  18
ENDBRANCH   2  17
TORSDOF 6
ENDMDL
MODEL 4
REMARK VINA RESULT:      -8.4      4.668      5.757
REMARK  6 active torsions:
REMARK  status: ('A' for Active; 'I' for Inactive)
REMARK    1  A    between atoms: N_2  and  C_4 
REMARK    2  A    between atoms: N_2  and  C_16 
REMARK    3  A    between atoms: C_4  and  C_5 
REMARK       I    between atoms: C_5  and  N_6 
REMARK    4  A    between atoms: N_6  and  C_7 
REMARK    5  A    between atoms: C_16  and  C_17 
REMARK    6  A    between atoms: C_21  and  C_22 
ROOT
HETATM    1  C   UNL     1       8.103  28.889  55.766  1.00  0.00     0.270 C 
HETATM    2  N   UNL     1       7.910  28.544  57.210  1.00  0.00    -0.061 N 
HETATM    3  H   UNL     1       8.746  27.997  57.487  1.00  0.00     0.280 HD
ENDROOT
BRANCH   2   4
HETATM    4  C   UNL     1       7.807  29.760  58.121  1.00  0.00     0.337 C 
BRANCH   4   5
HETATM    5  C   UNL     1       9.150  30.286  58.632  1.00  0.00     0.248 C 
HETATM    6  N   UNL     1       9.255  31.105  59.714  1.00  0.00    -0.326 N 
HETATM    7  H   UNL     1      10.235  31.267  59.945  1.00  0.00     0.169 HD
HETATM    8  O   UNL     1      10.199  29.944  58.072  1.00  0.00    -0.271 OA
BRANCH   6   9
HETATM    9  C   UNL     1       8.328  31.757  60.550  1.00  0.00     0.040 A 
HETATM   10  C   UNL     1       7.097  32.274  60.155  1.00  0.00     0.072 A 
HETATM   11  C   UNL     1       6.270  32.905  61.091  1.00  0.00     0.121 A 
HETATM   12  F   UNL     1       5.090  33.389  60.682  1.00  0.00    -0.206 F 
HETATM   13  C   UNL     1       6.641  33.044  62.417  1.00  0.00     0.084 A 
HETATM   14  C   UNL     1       7.871  32.546  62.804  1.00  0.00     0.121 A 
HETATM   15  F   UNL     1       8.265  32.671  64.078  1.00  0.00    -0.206 F 
HETATM   16  C   UNL     1       8.713  31.914  61.891  1.00  0.00     0.072 A 
ENDBRANCH   6   9
ENDBRANCH   4   5
ENDBRANCH   2   4
BRANCH   2  17
HETATM   17  C   UNL     1       6.795  27.525  57.413  1.00  0.00     0.295 C 
BRANCH  17  18
HETATM   18  C   UNL     1       7.287  26.153  57.065  1.00  0.00     0.082 A 
HETATM   19  N   UNL     1       8.254  25.593  57.811  1.00  0.00    -0.177 NA
HETATM   20  N   UNL     1       8.463  24.400  57.208  1.00  0.00    -0.277 N 
HETATM   21  H   UNL     1       9.173  23.778  57.583  1.00  0.00     0.189 HD
HETATM   22  C   UNL     1       7.683  24.192  56.096  1.00  0.00     0.062 A 
HETATM   23  C   UNL     1       6.901  25.326  55.993  1.00  0.00     0.062 A 
BRANCH  22  24
HETATM   24  C   UNL     1       7.771  23.002  55.249  1.00  0.00    -0.008 A 
HETATM   25  C   UNL     1       7.844  21.714  55.799  1.00  0.00     0.014 A 
HETATM   26  C   UNL     1       7.939  20.590  54.974  1.00  0.00     0.001 A 
HETATM   27  C   UNL     1       7.959  20.737  53.589  1.00  0.00     0.000 A 
HETATM   28  C   UNL     1       7.881  22.009  53.027  1.00  0.00     0.001 A 
HETATM   29  C   UNL     1       7.787  23.133  53.852  1.00  0.00     0.014 A 
ENDBRANCH  22  24
ENDBRANCH  17  18
ENDBRANCH   2  17
TORSDOF 6
ENDMDL
MODEL 5
REMARK VINA RESULT:      -8.3      3.806      4.942
REMARK  6 active torsions:
REMARK  status: ('A' for Active; 'I' for Inactive)
REMARK    1  A    between atoms: N_2  and  C_4 
REMARK    2  A    between atoms: N_2  and  C_16 
REMARK    3  A    between atoms: C_4  and  C_5 
REMARK       I    between atoms: C_5  and  N_6 
REMARK    4  A    between atoms: N_6  and  C_7 
REMARK    5  A    between atoms: C_16  and  C_17 
REMARK    6  A    between atoms: C_21  and  C_22 
ROOT
HETATM    1  C   UNL     1       6.153  29.702  56.423  1.00  0.00     0.270 C 
HETATM    2  N   UNL     1       6.834  28.385  56.630  1.00  0.00    -0.061 N 
HETATM    3  H   UNL     1       7.301  28.161  55.732  1.00  0.00     0.280 HD
ENDROOT
BRANCH   2   4
HETATM    4  C   UNL     1       7.887  28.405  57.729  1.00  0.00     0.337 C 
BRANCH   4   5
HETATM    5  C   UNL     1       8.975  29.465  57.546  1.00  0.00     0.248 C 
HETATM    6  N   UNL     1       9.114  30.529  58.384  1.00  0.00    -0.326 N 
HETATM    7  H   UNL     1       9.949  31.063  58.146  1.00  0.00     0.169 HD
HETATM    8  O   UNL     1       9.791  29.357  56.623  1.00  0.00    -0.271 OA
BRANCH   6   9
HETATM    9  C   UNL     1       8.371  31.032  59.469  1.00  0.00     0.040 A 
HETATM   10  C   UNL     1       7.266  31.875  59.380  1.00  0.00     0.072 A 
HETATM   11  C   UNL     1       6.618  32.306  60.542  1.00  0.00     0.121 A 
HETATM   12  F   UNL     1       5.557  33.114  60.424  1.00  0.00    -0.206 F 
HETATM   13  C   UNL     1       7.048  31.925  61.802  1.00  0.00     0.084 A 
HETATM   14  C   UNL     1       8.155  31.102  61.890  1.00  0.00     0.121 A 
HETATM   15  F   UNL     1       8.603  30.721  63.093  1.00  0.00    -0.206 F 
HETATM   16  C   UNL     1       8.817  30.659  60.746  1.00  0.00     0.072 A 
ENDBRANCH   6   9
ENDBRANCH   4   5
ENDBRANCH   2   4
BRANCH   2  17
HETATM   17  C   UNL     1       5.838  27.237  56.752  1.00  0.00     0.295 C 
BRANCH  17  18
HETATM   18  C   UNL     1       6.223  26.126  55.823  1.00  0.00     0.082 A 
HETATM   19  N   UNL     1       5.958  26.244  54.511  1.00  0.00    -0.177 NA
HETATM   20  N   UNL     1       6.404  25.076  53.995  1.00  0.00    -0.277 N 
HETATM   21  H   UNL     1       6.304  24.910  52.998  1.00  0.00     0.189 HD
HETATM   22  C   UNL     1       6.922  24.213  54.931  1.00  0.00     0.062 A 
HETATM   23  C   UNL     1       6.819  24.888  56.132  1.00  0.00     0.062 A 
BRANCH  22  24
HETATM   24  C   UNL     1       7.414  22.871  54.618  1.00  0.00    -0.008 A 
HETATM   25  C   UNL     1       7.663  22.470  53.298  1.00  0.00     0.014 A 
HETATM   26  C   UNL     1       8.122  21.180  53.019  1.00  0.00     0.001 A 
HETATM   27  C   UNL     1       8.342  20.275  54.054  1.00  0.00     0.000 A 
HETATM   28  C   UNL     1       8.106  20.660  55.371  1.00  0.00     0.001 A 
HETATM   29  C   UNL     1       7.646  21.949  55.651  1.00  0.00     0.014 A 
ENDBRANCH  22  24
ENDBRANCH  17  18
ENDBRANCH   2  17
TORSDOF 6
ENDMDL
MODEL 6
REMARK VINA RESULT:      -8.2      0.781      2.034
REMARK  6 active torsions:
REMARK  status: ('A' for Active; 'I' for Inactive)
REMARK    1  A    between atoms: N_2  and  C_4 
REMARK    2  A    between atoms: N_2  and  C_16 
REMARK    3  A    between atoms: C_4  and  C_5 
REMARK       I    between atoms: C_5  and  N_6 
REMARK    4  A    between atoms: N_6  and  C_7 
REMARK    5  A    between atoms: C_16  and  C_17 
REMARK    6  A    between atoms: C_21  and  C_22 
ROOT
HETATM    1  C   UNL     1       4.490  28.236  50.720  1.00  0.00     0.270 C 
HETATM    2  N   UNL     1       5.328  27.762  51.867  1.00  0.00    -0.061 N 
HETATM    3  H   UNL     1       6.205  27.400  51.450  1.00  0.00     0.280 HD
ENDROOT
BRANCH   2   4
HETATM    4  C   UNL     1       5.683  28.859  52.861  1.00  0.00     0.337 C 
BRANCH   4   5
HETATM    5  C   UNL     1       4.665  29.050  53.987  1.00  0.00     0.248 C 
HETATM    6  N   UNL     1       4.911  28.674  55.272  1.00  0.00    -0.326 N 
HETATM    7  H   UNL     1       4.150  28.969  55.881  1.00  0.00     0.169 HD
HETATM    8  O   UNL     1       3.579  29.593  53.750  1.00  0.00    -0.271 OA
BRANCH   6   9
HETATM    9  C   UNL     1       5.957  27.982  55.913  1.00  0.00     0.040 A 
HETATM   10  C   UNL     1       7.225  28.490  56.184  1.00  0.00     0.072 A 
HETATM   11  C   UNL     1       8.176  27.690  56.827  1.00  0.00     0.121 A 
HETATM   12  F   UNL     1       9.386  28.207  57.077  1.00  0.00    -0.206 F 
HETATM   13  C   UNL     1       7.901  26.386  57.201  1.00  0.00     0.084 A 
HETATM   14  C   UNL     1       6.648  25.877  56.916  1.00  0.00     0.121 A 
HETATM   15  F   UNL     1       6.351  24.618  57.258  1.00  0.00    -0.206 F 
HETATM   16  C   UNL     1       5.683  26.654  56.277  1.00  0.00     0.072 A 
ENDBRANCH   6   9
ENDBRANCH   4   5
ENDBRANCH   2   4
BRANCH   2  17
HETATM   17  C   UNL     1       4.756  26.505  52.515  1.00  0.00     0.295 C 
BRANCH  17  18
HETATM   18  C   UNL     1       5.836  25.479  52.678  1.00  0.00     0.082 A 
HETATM   19  N   UNL     1       6.930  25.546  51.902  1.00  0.00    -0.177 NA
HETATM   20  N   UNL     1       7.658  24.475  52.294  1.00  0.00    -0.277 N 
HETATM   21  H   UNL     1       8.547  24.293  51.836  1.00  0.00     0.189 HD
HETATM   22  C   UNL     1       7.059  23.719  53.271  1.00  0.00     0.062 A 
HETATM   23  C   UNL     1       5.869  24.367  53.542  1.00  0.00     0.062 A 
BRANCH  22  24
HETATM   24  C   UNL     1       7.629  22.485  53.813  1.00  0.00    -0.008 A 
HETATM   25  C   UNL     1       8.131  21.480  52.974  1.00  0.00     0.014 A 
HETATM   26  C   UNL     1       8.662  20.303  53.509  1.00  0.00     0.001 A 
HETATM   27  C   UNL     1       8.702  20.117  54.889  1.00  0.00     0.000 A 
HETATM   28  C   UNL     1       8.214  21.109  55.736  1.00  0.00     0.001 A 
HETATM   29  C   UNL     1       7.682  22.285  55.201  1.00  0.00     0.014 A 
ENDBRANCH  22  24
ENDBRANCH  17  18
ENDBRANCH   2  17
TORSDOF 6
ENDMDL
MODEL 7
REMARK VINA RESULT:      -8.2      5.090      9.001
REMARK  6 active torsions:
REMARK  status: ('A' for Active; 'I' for Inactive)
REMARK    1  A    between atoms: N_2  and  C_4 
REMARK    2  A    between atoms: N_2  and  C_16 
REMARK    3  A    between atoms: C_4  and  C_5 
REMARK       I    between atoms: C_5  and  N_6 
REMARK    4  A    between atoms: N_6  and  C_7 
REMARK    5  A    between atoms: C_16  and  C_17 
REMARK    6  A    between atoms: C_21  and  C_22 
ROOT
HETATM    1  C   UNL     1       8.916  29.242  55.867  1.00  0.00     0.270 C 
HETATM    2  N   UNL     1       8.211  29.379  57.181  1.00  0.00    -0.061 N 
HETATM    3  H   UNL     1       7.512  30.133  57.053  1.00  0.00     0.280 HD
ENDROOT
BRANCH   2   4
HETATM    4  C   UNL     1       7.482  28.116  57.619  1.00  0.00     0.337 C 
BRANCH   4   5
HETATM    5  C   UNL     1       6.053  27.991  57.088  1.00  0.00     0.248 C 
HETATM    6  N   UNL     1       5.662  26.986  56.258  1.00  0.00    -0.326 N 
HETATM    7  H   UNL     1       4.657  27.029  56.094  1.00  0.00     0.169 HD
HETATM    8  O   UNL     1       5.193  28.809  57.435  1.00  0.00    -0.271 OA
BRANCH   6   9
HETATM    9  C   UNL     1       6.332  25.938  55.596  1.00  0.00     0.040 A 
HETATM   10  C   UNL     1       6.422  24.620  56.038  1.00  0.00     0.072 A 
HETATM   11  C   UNL     1       7.125  23.675  55.283  1.00  0.00     0.121 A 
HETATM   12  F   UNL     1       7.192  22.416  55.732  1.00  0.00    -0.206 F 
HETATM   13  C   UNL     1       7.752  24.010  54.095  1.00  0.00     0.084 A 
HETATM   14  C   UNL     1       7.676  25.321  53.665  1.00  0.00     0.121 A 
HETATM   15  F   UNL     1       8.277  25.681  52.525  1.00  0.00    -0.206 F 
HETATM   16  C   UNL     1       6.982  26.281  54.401  1.00  0.00     0.072 A 
ENDBRANCH   6   9
ENDBRANCH   4   5
ENDBRANCH   2   4
BRANCH   2  17
HETATM   17  C   UNL     1       9.112  29.975  58.256  1.00  0.00     0.295 C 
BRANCH  17  18
HETATM   18  C   UNL     1       8.321  30.903  59.129  1.00  0.00     0.082 A 
HETATM   19  N   UNL     1       7.328  31.628  58.587  1.00  0.00    -0.177 NA
HETATM   20  N   UNL     1       6.863  32.353  59.631  1.00  0.00    -0.277 N 
HETATM   21  H   UNL     1       6.101  33.005  59.474  1.00  0.00     0.189 HD
HETATM   22  C   UNL     1       7.537  32.132  60.807  1.00  0.00     0.062 A 
HETATM   23  C   UNL     1       8.489  31.179  60.499  1.00  0.00     0.062 A 
BRANCH  22  24
HETATM   24  C   UNL     1       7.252  32.840  62.056  1.00  0.00    -0.008 A 
HETATM   25  C   UNL     1       6.324  33.890  62.107  1.00  0.00     0.014 A 
HETATM   26  C   UNL     1       6.073  34.562  63.307  1.00  0.00     0.001 A 
HETATM   27  C   UNL     1       6.742  34.192  64.471  1.00  0.00     0.000 A 
HETATM   28  C   UNL     1       7.662  33.147  64.437  1.00  0.00     0.001 A 
HETATM   29  C   UNL     1       7.914  32.475  63.239  1.00  0.00     0.014 A 
ENDBRANCH  22  24
ENDBRANCH  17  18
ENDBRANCH   2  17
TORSDOF 6
ENDMDL
MODEL 8
REMARK VINA RESULT:      -8.2      4.712      8.752
REMARK  6 active torsions:
REMARK  status: ('A' for Active; 'I' for Inactive)
REMARK    1  A    between atoms: N_2  and  C_4 
REMARK    2  A    between atoms: N_2  and  C_16 
REMARK    3  A    between atoms: C_4  and  C_5 
REMARK       I    between atoms: C_5  and  N_6 
REMARK    4  A    between atoms: N_6  and  C_7 
REMARK    5  A    between atoms: C_16  and  C_17 
REMARK    6  A    between atoms: C_21  and  C_22 
ROOT
HETATM    1  C   UNL     1       8.545  28.916  55.354  1.00  0.00     0.270 C 
HETATM    2  N   UNL     1       8.000  28.643  56.722  1.00  0.00    -0.061 N 
HETATM    3  H   UNL     1       7.173  29.259  56.828  1.00  0.00     0.280 HD
ENDROOT
BRANCH   2   4
HETATM    4  C   UNL     1       7.555  27.201  56.926  1.00  0.00     0.337 C 
BRANCH   4   5
HETATM    5  C   UNL     1       6.099  26.925  56.546  1.00  0.00     0.248 C 
HETATM    6  N   UNL     1       5.743  25.965  55.649  1.00  0.00    -0.326 N 
HETATM    7  H   UNL     1       4.729  25.878  55.604  1.00  0.00     0.169 HD
HETATM    8  O   UNL     1       5.190  27.569  57.082  1.00  0.00    -0.271 OA
BRANCH   6   9
HETATM    9  C   UNL     1       6.456  25.100  54.797  1.00  0.00     0.040 A 
HETATM   10  C   UNL     1       6.824  25.370  53.482  1.00  0.00     0.072 A 
HETATM   11  C   UNL     1       7.531  24.416  52.742  1.00  0.00     0.121 A 
HETATM   12  F   UNL     1       7.873  24.707  51.480  1.00  0.00    -0.206 F 
HETATM   13  C   UNL     1       7.877  23.187  53.276  1.00  0.00     0.084 A 
HETATM   14  C   UNL     1       7.497  22.912  54.576  1.00  0.00     0.121 A 
HETATM   15  F   UNL     1       7.808  21.730  55.122  1.00  0.00    -0.206 F 
HETATM   16  C   UNL     1       6.792  23.847  55.334  1.00  0.00     0.072 A 
ENDBRANCH   6   9
ENDBRANCH   4   5
ENDBRANCH   2   4
BRANCH   2  17
HETATM   17  C   UNL     1       8.917  29.168  57.820  1.00  0.00     0.295 C 
BRANCH  17  18
HETATM   18  C   UNL     1       8.150  30.073  58.737  1.00  0.00     0.082 A 
HETATM   19  N   UNL     1       6.943  30.523  58.357  1.00  0.00    -0.177 NA
HETATM   20  N   UNL     1       6.565  31.314  59.388  1.00  0.00    -0.277 N 
HETATM   21  H   UNL     1       5.672  31.794  59.335  1.00  0.00     0.189 HD
HETATM   22  C   UNL     1       7.495  31.400  60.395  1.00  0.00     0.062 A 
HETATM   23  C   UNL     1       8.535  30.587  59.990  1.00  0.00     0.062 A 
BRANCH  22  24
HETATM   24  C   UNL     1       7.334  32.239  61.584  1.00  0.00    -0.008 A 
HETATM   25  C   UNL     1       6.432  33.312  61.607  1.00  0.00     0.014 A 
HETATM   26  C   UNL     1       6.299  34.108  62.749  1.00  0.00     0.001 A 
HETATM   27  C   UNL     1       7.063  33.840  63.882  1.00  0.00     0.000 A 
HETATM   28  C   UNL     1       7.959  32.773  63.877  1.00  0.00     0.001 A 
HETATM   29  C   UNL     1       8.092  31.978  62.736  1.00  0.00     0.014 A 
ENDBRANCH  22  24
ENDBRANCH  17  18
ENDBRANCH   2  17
TORSDOF 6
ENDMDL
MODEL 9
REMARK VINA RESULT:      -8.2      4.142      8.114
REMARK  6 active torsions:
REMARK  status: ('A' for Active; 'I' for Inactive)
REMARK    1  A    between atoms: N_2  and  C_4 
REMARK    2  A    between atoms: N_2  and  C_16 
REMARK    3  A    between atoms: C_4  and  C_5 
REMARK       I    between atoms: C_5  and  N_6 
REMARK    4  A    between atoms: N_6  and  C_7 
REMARK    5  A    between atoms: C_16  and  C_17 
REMARK    6  A    between atoms: C_21  and  C_22 
ROOT
HETATM    1  C   UNL     1       5.221  27.514  55.585  1.00  0.00     0.270 C 
HETATM    2  N   UNL     1       6.632  27.529  56.086  1.00  0.00    -0.061 N 
HETATM    3  H   UNL     1       6.568  27.625  57.116  1.00  0.00     0.280 HD
ENDROOT
BRANCH   2   4
HETATM    4  C   UNL     1       7.407  26.258  55.768  1.00  0.00     0.337 C 
BRANCH   4   5
HETATM    5  C   UNL     1       7.954  25.523  56.994  1.00  0.00     0.248 C 
HETATM    6  N   UNL     1       8.322  24.214  56.962  1.00  0.00    -0.326 N 
HETATM    7  H   UNL     1       8.743  23.941  57.849  1.00  0.00     0.169 HD
HETATM    8  O   UNL     1       8.102  26.132  58.060  1.00  0.00    -0.271 OA
BRANCH   6   9
HETATM    9  C   UNL     1       8.243  23.191  55.998  1.00  0.00     0.040 A 
HETATM   10  C   UNL     1       8.068  23.372  54.628  1.00  0.00     0.072 A 
HETATM   11  C   UNL     1       8.002  22.264  53.777  1.00  0.00     0.121 A 
HETATM   12  F   UNL     1       7.836  22.470  52.465  1.00  0.00    -0.206 F 
HETATM   13  C   UNL     1       8.096  20.968  54.257  1.00  0.00     0.084 A 
HETATM   14  C   UNL     1       8.252  20.788  55.619  1.00  0.00     0.121 A 
HETATM   15  F   UNL     1       8.339  19.549  56.117  1.00  0.00    -0.206 F 
HETATM   16  C   UNL     1       8.321  21.877  56.486  1.00  0.00     0.072 A 
ENDBRANCH   6   9
ENDBRANCH   4   5
ENDBRANCH   2   4
BRANCH   2  17
HETATM   17  C   UNL     1       7.363  28.810  55.703  1.00  0.00     0.295 C 
BRANCH  17  18
HETATM   18  C   UNL     1       7.917  29.468  56.931  1.00  0.00     0.082 A 
HETATM   19  N   UNL     1       9.244  29.451  57.143  1.00  0.00    -0.177 NA
HETATM   20  N   UNL     1       9.380  30.095  58.326  1.00  0.00    -0.277 N 
HETATM   21  H   UNL     1      10.309  30.204  58.720  1.00  0.00     0.189 HD
HETATM   22  C   UNL     1       8.190  30.499  58.881  1.00  0.00     0.062 A 
HETATM   23  C   UNL     1       7.223  30.105  57.977  1.00  0.00     0.062 A 
BRANCH  22  24
HETATM   24  C   UNL     1       8.081  31.164  60.180  1.00  0.00    -0.008 A 
HETATM   25  C   UNL     1       7.235  32.265  60.372  1.00  0.00     0.014 A 
HETATM   26  C   UNL     1       7.153  32.894  61.618  1.00  0.00     0.001 A 
HETATM   27  C   UNL     1       7.912  32.428  62.688  1.00  0.00     0.000 A 
HETATM   28  C   UNL     1       8.751  31.331  62.516  1.00  0.00     0.001 A 
HETATM   29  C   UNL     1       8.835  30.703  61.271  1.00  0.00     0.014 A 
ENDBRANCH  22  24
ENDBRANCH  17  18
ENDBRANCH   2  17
TORSDOF 6
ENDMDL
MODEL 10
REMARK VINA RESULT:      -7.8      3.864      5.836
REMARK  6 active torsions:
REMARK  status: ('A' for Active; 'I' for Inactive)
REMARK    1  A    between atoms: N_2  and  C_4 
REMARK    2  A    between atoms: N_2  and  C_16 
REMARK    3  A    between atoms: C_4  and  C_5 
REMARK       I    between atoms: C_5  and  N_6 
REMARK    4  A    between atoms: N_6  and  C_7 
REMARK    5  A    between atoms: C_16  and  C_17 
REMARK    6  A    between atoms: C_21  and  C_22 
ROOT
HETATM    1  C   UNL     1       3.945  28.253  54.007  1.00  0.00     0.270 C 
HETATM    2  N   UNL     1       4.652  28.076  52.699  1.00  0.00    -0.061 N 
HETATM    3  H   UNL     1       4.397  27.130  52.362  1.00  0.00     0.280 HD
ENDROOT
BRANCH   2   4
HETATM    4  C   UNL     1       4.244  29.092  51.640  1.00  0.00     0.337 C 
BRANCH   4   5
HETATM    5  C   UNL     1       5.261  29.277  50.512  1.00  0.00     0.248 C 
HETATM    6  N   UNL     1       5.115  28.698  49.289  1.00  0.00    -0.326 N 
HETATM    7  H   UNL     1       5.846  29.017  48.655  1.00  0.00     0.169 HD
HETATM    8  O   UNL     1       6.249  30.000  50.687  1.00  0.00    -0.271 OA
BRANCH   6   9
HETATM    9  C   UNL     1       4.202  27.780  48.736  1.00  0.00     0.040 A 
HETATM   10  C   UNL     1       4.175  26.409  48.979  1.00  0.00     0.072 A 
HETATM   11  C   UNL     1       3.211  25.606  48.359  1.00  0.00     0.121 A 
HETATM   12  F   UNL     1       3.209  24.292  48.615  1.00  0.00    -0.206 F 
HETATM   13  C   UNL     1       2.272  26.133  47.488  1.00  0.00     0.084 A 
HETATM   14  C   UNL     1       2.311  27.491  47.234  1.00  0.00     0.121 A 
HETATM   15  F   UNL     1       1.422  28.033  46.392  1.00  0.00    -0.206 F 
HETATM   16  C   UNL     1       3.261  28.312  47.841  1.00  0.00     0.072 A 
ENDBRANCH   6   9
ENDBRANCH   4   5
ENDBRANCH   2   4
BRANCH   2  17
HETATM   17  C   UNL     1       6.160  27.942  52.875  1.00  0.00     0.295 C 
BRANCH  17  18
HETATM   18  C   UNL     1       6.558  26.499  52.792  1.00  0.00     0.082 A 
HETATM   19  N   UNL     1       6.599  25.897  51.591  1.00  0.00    -0.177 NA
HETATM   20  N   UNL     1       6.959  24.627  51.890  1.00  0.00    -0.277 N 
HETATM   21  H   UNL     1       7.048  23.953  51.136  1.00  0.00     0.189 HD
HETATM   22  C   UNL     1       7.126  24.395  53.234  1.00  0.00     0.062 A 
HETATM   23  C   UNL     1       6.876  25.612  53.838  1.00  0.00     0.062 A 
BRANCH  22  24
HETATM   24  C   UNL     1       7.460  23.088  53.801  1.00  0.00    -0.008 A 
HETATM   25  C   UNL     1       7.403  22.851  55.181  1.00  0.00     0.014 A 
HETATM   26  C   UNL     1       7.736  21.599  55.705  1.00  0.00     0.001 A 
HETATM   27  C   UNL     1       8.125  20.566  54.856  1.00  0.00     0.000 A 
HETATM   28  C   UNL     1       8.180  20.783  53.481  1.00  0.00     0.001 A 
HETATM   29  C   UNL     1       7.849  22.035  52.958  1.00  0.00     0.014 A 
ENDBRANCH  22  24
ENDBRANCH  17  18
ENDBRANCH   2  17
TORSDOF 6
ENDMDL
