MODEL 1
REMARK VINA RESULT:      -9.8      0.000      0.000
REMARK  3 active torsions:
REMARK  status: ('A' for Active; 'I' for Inactive)
REMARK    1  A    between atoms: N_7  and  C_9 
REMARK    2  A    between atoms: C_9  and  C_10 
REMARK    3  A    between atoms: C_13  and  C_14 
ROOT
HETATM    1  C   UNL     1       9.063  30.614  60.115  1.00  0.00     0.269 C 
HETATM    2  N   UNL     1       8.990  31.192  58.723  1.00  0.00    -0.074 N 
HETATM    3  H   UNL     1       8.883  32.201  58.916  1.00  0.00     0.279 HD
HETATM    4  C   UNL     1       7.779  30.831  57.902  1.00  0.00     0.245 C 
HETATM    5  C   UNL     1       7.870  29.466  57.146  1.00  0.00     0.008 C 
HETATM    6  C   UNL     1       6.684  29.452  56.127  1.00  0.00     0.246 C 
HETATM    7  N   UNL     1       6.384  28.106  55.506  1.00  0.00    -0.063 N 
HETATM    8  H   UNL     1       5.437  28.214  55.100  1.00  0.00     0.280 HD
HETATM    9  C   UNL     1       6.231  26.993  56.503  1.00  0.00     0.235 C 
HETATM   10  C   UNL     1       7.443  26.936  57.413  1.00  0.00     0.029 C 
HETATM   11  C   UNL     1       7.693  28.273  58.118  1.00  0.00     0.014 C 
HETATM   12  C   UNL     1       9.239  29.402  56.422  1.00  0.00     0.014 C 
HETATM   13  C   UNL     1      10.433  29.744  57.318  1.00  0.00     0.029 C 
HETATM   14  C   UNL     1      10.290  31.109  57.967  1.00  0.00     0.234 C 
ENDROOT
BRANCH   7  15
HETATM   15  C   UNL     1       7.179  27.719  54.248  1.00  0.00     0.323 C 
BRANCH  15  16
HETATM   16  C   UNL     1       7.039  26.280  53.915  1.00  0.00     0.199 A 
HETATM   17  O   UNL     1       5.890  25.890  53.307  1.00  0.00    -0.194 OA
HETATM   18  N   UNL     1       5.932  24.503  53.256  1.00  0.00    -0.106 NA
HETATM   19  C   UNL     1       7.118  24.184  53.802  1.00  0.00     0.189 A 
HETATM   20  N   UNL     1       7.804  25.283  54.293  1.00  0.00    -0.202 NA
BRANCH  19  21
HETATM   21  C   UNL     1       7.631  22.826  53.921  1.00  0.00     0.016 A 
HETATM   22  C   UNL     1       7.966  22.289  55.173  1.00  0.00     0.039 A 
HETATM   23  C   UNL     1       8.459  20.987  55.268  1.00  0.00     0.035 A 
HETATM   24 CL   UNL     1       8.885  20.352  56.807  1.00  0.00    -0.084 Cl
HETATM   25  C   UNL     1       8.616  20.202  54.128  1.00  0.00     0.024 A 
HETATM   26  C   UNL     1       8.280  20.723  52.879  1.00  0.00     0.003 A 
HETATM   27  C   UNL     1       7.795  22.030  52.775  1.00  0.00     0.015 A 
ENDBRANCH  19  21
ENDBRANCH  15  16
ENDBRANCH   7  15
TORSDOF 3
ENDMDL
MODEL 2
REMARK VINA RESULT:      -9.0      4.555      9.743
REMARK  3 active torsions:
REMARK  status: ('A' for Active; 'I' for Inactive)
REMARK    1  A    between atoms: N_7  and  C_9 
REMARK    2  A    between atoms: C_9  and  C_10 
REMARK    3  A    between atoms: C_13  and  C_14 
ROOT
HETATM    1  C   UNL     1       5.124  25.047  53.489  1.00  0.00     0.269 C 
HETATM    2  N   UNL     1       6.385  25.136  54.313  1.00  0.00    -0.074 N 
HETATM    3  H   UNL     1       6.627  24.140  54.441  1.00  0.00     0.279 HD
HETATM    4  C   UNL     1       6.243  25.674  55.714  1.00  0.00     0.245 C 
HETATM    5  C   UNL     1       6.260  27.233  55.832  1.00  0.00     0.008 C 
HETATM    6  C   UNL     1       6.430  27.552  57.353  1.00  0.00     0.246 C 
HETATM    7  N   UNL     1       6.160  28.987  57.744  1.00  0.00    -0.063 N 
HETATM    8  H   UNL     1       6.042  28.958  58.773  1.00  0.00     0.280 HD
HETATM    9  C   UNL     1       4.849  29.523  57.240  1.00  0.00     0.235 C 
HETATM   10  C   UNL     1       4.743  29.317  55.741  1.00  0.00     0.029 C 
HETATM   11  C   UNL     1       4.921  27.847  55.351  1.00  0.00     0.014 C 
HETATM   12  C   UNL     1       7.454  27.770  55.003  1.00  0.00     0.014 C 
HETATM   13  C   UNL     1       7.523  27.213  53.578  1.00  0.00     0.029 C 
HETATM   14  C   UNL     1       7.561  25.696  53.557  1.00  0.00     0.234 C 
ENDROOT
BRANCH   7  15
HETATM   15  C   UNL     1       7.330  29.980  57.632  1.00  0.00     0.323 C 
BRANCH  15  16
HETATM   16  C   UNL     1       7.701  30.561  58.945  1.00  0.00     0.199 A 
HETATM   17  O   UNL     1       8.763  30.014  59.591  1.00  0.00    -0.194 OA
HETATM   18  N   UNL     1       8.802  30.610  60.844  1.00  0.00    -0.106 NA
HETATM   19  C   UNL     1       7.785  31.490  60.828  1.00  0.00     0.189 A 
HETATM   20  N   UNL     1       7.030  31.427  59.668  1.00  0.00    -0.202 NA
BRANCH  19  21
HETATM   21  C   UNL     1       7.460  32.394  61.923  1.00  0.00     0.016 A 
HETATM   22  C   UNL     1       6.569  33.460  61.737  1.00  0.00     0.039 A 
HETATM   23  C   UNL     1       6.272  34.318  62.797  1.00  0.00     0.035 A 
HETATM   24 CL   UNL     1       5.194  35.633  62.547  1.00  0.00    -0.084 Cl
HETATM   25  C   UNL     1       6.845  34.122  64.051  1.00  0.00     0.024 A 
HETATM   26  C   UNL     1       7.728  33.061  64.249  1.00  0.00     0.003 A 
HETATM   27  C   UNL     1       8.038  32.203  63.189  1.00  0.00     0.015 A 
ENDBRANCH  19  21
ENDBRANCH  15  16
ENDBRANCH   7  15
TORSDOF 3
ENDMDL
MODEL 3
REMARK VINA RESULT:      -8.9      3.640      8.821
REMARK  3 active torsions:
REMARK  status: ('A' for Active; 'I' for Inactive)
REMARK    1  A    between atoms: N_7  and  C_9 
REMARK    2  A    between atoms: C_9  and  C_10 
REMARK    3  A    between atoms: C_13  and  C_14 
ROOT
HETATM    1  C   UNL     1       7.607  20.911  54.520  1.00  0.00     0.269 C 
HETATM    2  N   UNL     1       8.671  21.951  54.265  1.00  0.00    -0.074 N 
HETATM    3  H   UNL     1       9.511  21.368  54.125  1.00  0.00     0.279 HD
HETATM    4  C   UNL     1       9.024  22.856  55.418  1.00  0.00     0.245 C 
HETATM    5  C   UNL     1       8.092  24.098  55.599  1.00  0.00     0.008 C 
HETATM    6  C   UNL     1       8.818  25.043  56.612  1.00  0.00     0.246 C 
HETATM    7  N   UNL     1       7.965  26.156  57.178  1.00  0.00    -0.063 N 
HETATM    8  H   UNL     1       8.492  26.489  58.006  1.00  0.00     0.280 HD
HETATM    9  C   UNL     1       6.651  25.694  57.742  1.00  0.00     0.235 C 
HETATM   10  C   UNL     1       5.898  24.878  56.709  1.00  0.00     0.029 C 
HETATM   11  C   UNL     1       6.725  23.691  56.204  1.00  0.00     0.014 C 
HETATM   12  C   UNL     1       7.915  24.777  54.217  1.00  0.00     0.014 C 
HETATM   13  C   UNL     1       7.522  23.812  53.095  1.00  0.00     0.029 C 
HETATM   14  C   UNL     1       8.509  22.668  52.951  1.00  0.00     0.234 C 
ENDROOT
BRANCH   7  15
HETATM   15  C   UNL     1       7.878  27.459  56.366  1.00  0.00     0.323 C 
BRANCH  15  16
HETATM   16  C   UNL     1       7.636  28.643  57.227  1.00  0.00     0.199 A 
HETATM   17  O   UNL     1       6.876  29.642  56.712  1.00  0.00    -0.194 OA
HETATM   18  N   UNL     1       6.936  30.684  57.627  1.00  0.00    -0.106 NA
HETATM   19  C   UNL     1       7.695  30.206  58.628  1.00  0.00     0.189 A 
HETATM   20  N   UNL     1       8.209  28.946  58.367  1.00  0.00    -0.202 NA
BRANCH  19  21
HETATM   21  C   UNL     1       8.000  30.936  59.852  1.00  0.00     0.016 A 
HETATM   22  C   UNL     1       7.122  31.910  60.348  1.00  0.00     0.039 A 
HETATM   23  C   UNL     1       7.432  32.601  61.519  1.00  0.00     0.035 A 
HETATM   24 CL   UNL     1       6.355  33.809  62.102  1.00  0.00    -0.084 Cl
HETATM   25  C   UNL     1       8.606  32.327  62.216  1.00  0.00     0.024 A 
HETATM   26  C   UNL     1       9.483  31.356  61.736  1.00  0.00     0.003 A 
HETATM   27  C   UNL     1       9.184  30.666  60.557  1.00  0.00     0.015 A 
ENDBRANCH  19  21
ENDBRANCH  15  16
ENDBRANCH   7  15
TORSDOF 3
ENDMDL
MODEL 4
REMARK VINA RESULT:      -8.9      4.585      9.744
REMARK  3 active torsions:
REMARK  status: ('A' for Active; 'I' for Inactive)
REMARK    1  A    between atoms: N_7  and  C_9 
REMARK    2  A    between atoms: C_9  and  C_10 
REMARK    3  A    between atoms: C_13  and  C_14 
ROOT
HETATM    1  C   UNL     1       6.439  24.023  54.900  1.00  0.00     0.269 C 
HETATM    2  N   UNL     1       6.569  24.302  56.378  1.00  0.00    -0.074 N 
HETATM    3  H   UNL     1       5.871  23.655  56.779  1.00  0.00     0.279 HD
HETATM    4  C   UNL     1       6.138  25.667  56.850  1.00  0.00     0.245 C 
HETATM    5  C   UNL     1       7.218  26.789  56.717  1.00  0.00     0.008 C 
HETATM    6  C   UNL     1       6.689  28.004  57.547  1.00  0.00     0.246 C 
HETATM    7  N   UNL     1       7.412  29.310  57.310  1.00  0.00    -0.063 N 
HETATM    8  H   UNL     1       6.779  30.031  57.701  1.00  0.00     0.280 HD
HETATM    9  C   UNL     1       7.543  29.683  55.860  1.00  0.00     0.235 C 
HETATM   10  C   UNL     1       8.170  28.542  55.082  1.00  0.00     0.029 C 
HETATM   11  C   UNL     1       7.382  27.239  55.244  1.00  0.00     0.014 C 
HETATM   12  C   UNL     1       8.552  26.249  57.292  1.00  0.00     0.014 C 
HETATM   13  C   UNL     1       8.954  24.876  56.746  1.00  0.00     0.029 C 
HETATM   14  C   UNL     1       7.873  23.833  56.968  1.00  0.00     0.234 C 
ENDROOT
BRANCH   7  15
HETATM   15  C   UNL     1       8.677  29.575  58.145  1.00  0.00     0.323 C 
BRANCH  15  16
HETATM   16  C   UNL     1       8.528  30.756  59.031  1.00  0.00     0.199 A 
HETATM   17  O   UNL     1       9.311  31.833  58.771  1.00  0.00    -0.194 OA
HETATM   18  N   UNL     1       9.107  32.721  59.819  1.00  0.00    -0.106 NA
HETATM   19  C   UNL     1       8.191  32.117  60.595  1.00  0.00     0.189 A 
HETATM   20  N   UNL     1       7.863  30.843  60.159  1.00  0.00    -0.202 NA
BRANCH  19  21
HETATM   21  C   UNL     1       7.622  32.700  61.803  1.00  0.00     0.016 A 
HETATM   22  C   UNL     1       6.487  33.520  61.742  1.00  0.00     0.039 A 
HETATM   23  C   UNL     1       5.958  34.072  62.908  1.00  0.00     0.035 A 
HETATM   24 CL   UNL     1       4.578  35.094  62.814  1.00  0.00    -0.084 Cl
HETATM   25  C   UNL     1       6.540  33.809  64.146  1.00  0.00     0.024 A 
HETATM   26  C   UNL     1       7.665  32.989  64.220  1.00  0.00     0.003 A 
HETATM   27  C   UNL     1       8.207  32.441  63.054  1.00  0.00     0.015 A 
ENDBRANCH  19  21
ENDBRANCH  15  16
ENDBRANCH   7  15
TORSDOF 3
ENDMDL
MODEL 5
REMARK VINA RESULT:      -8.8      5.752      8.379
REMARK  3 active torsions:
REMARK  status: ('A' for Active; 'I' for Inactive)
REMARK    1  A    between atoms: N_7  and  C_9 
REMARK    2  A    between atoms: C_9  and  C_10 
REMARK    3  A    between atoms: C_13  and  C_14 
ROOT
HETATM    1  C   UNL     1       0.863  30.199  46.083  1.00  0.00     0.269 C 
HETATM    2  N   UNL     1       0.489  29.351  47.274  1.00  0.00    -0.074 N 
HETATM    3  H   UNL     1      -0.394  29.790  47.580  1.00  0.00     0.279 HD
HETATM    4  C   UNL     1       1.393  29.438  48.478  1.00  0.00     0.245 C 
HETATM    5  C   UNL     1       2.654  28.515  48.431  1.00  0.00     0.008 C 
HETATM    6  C   UNL     1       3.249  28.519  49.877  1.00  0.00     0.246 C 
HETATM    7  N   UNL     1       4.644  27.949  50.000  1.00  0.00    -0.063 N 
HETATM    8  H   UNL     1       4.978  28.279  50.924  1.00  0.00     0.280 HD
HETATM    9  C   UNL     1       5.631  28.529  49.025  1.00  0.00     0.235 C 
HETATM   10  C   UNL     1       5.097  28.411  47.610  1.00  0.00     0.029 C 
HETATM   11  C   UNL     1       3.724  29.074  47.460  1.00  0.00     0.014 C 
HETATM   12  C   UNL     1       2.199  27.094  48.010  1.00  0.00     0.014 C 
HETATM   13  C   UNL     1       1.314  27.069  46.761  1.00  0.00     0.029 C 
HETATM   14  C   UNL     1       0.084  27.946  46.912  1.00  0.00     0.234 C 
ENDROOT
BRANCH   7  15
HETATM   15  C   UNL     1       4.769  26.428  50.192  1.00  0.00     0.323 C 
BRANCH  15  16
HETATM   16  C   UNL     1       5.610  26.077  51.362  1.00  0.00     0.199 A 
HETATM   17  O   UNL     1       6.166  27.100  52.060  1.00  0.00    -0.194 OA
HETATM   18  N   UNL     1       7.023  26.517  52.984  1.00  0.00    -0.106 NA
HETATM   19  C   UNL     1       6.878  25.195  52.786  1.00  0.00     0.189 A 
HETATM   20  N   UNL     1       6.047  24.892  51.719  1.00  0.00    -0.202 NA
BRANCH  19  21
HETATM   21  C   UNL     1       7.552  24.167  53.568  1.00  0.00     0.016 A 
HETATM   22  C   UNL     1       7.847  22.914  53.010  1.00  0.00     0.039 A 
HETATM   23  C   UNL     1       8.489  21.940  53.775  1.00  0.00     0.035 A 
HETATM   24 CL   UNL     1       8.824  20.403  53.083  1.00  0.00    -0.084 Cl
HETATM   25  C   UNL     1       8.855  22.200  55.094  1.00  0.00     0.024 A 
HETATM   26  C   UNL     1       8.572  23.444  55.657  1.00  0.00     0.003 A 
HETATM   27  C   UNL     1       7.920  24.421  54.899  1.00  0.00     0.015 A 
ENDBRANCH  19  21
ENDBRANCH  15  16
ENDBRANCH   7  15
TORSDOF 3
ENDMDL
MODEL 6
REMARK VINA RESULT:      -8.8      2.306      3.123
REMARK  3 active torsions:
REMARK  status: ('A' for Active; 'I' for Inactive)
REMARK    1  A    between atoms: N_7  and  C_9 
REMARK    2  A    between atoms: C_9  and  C_10 
REMARK    3  A    between atoms: C_13  and  C_14 
ROOT
HETATM    1  C   UNL     1       4.064  33.136  59.231  1.00  0.00     0.269 C 
HETATM    2  N   UNL     1       3.474  32.277  58.139  1.00  0.00    -0.074 N 
HETATM    3  H   UNL     1       2.469  32.291  58.376  1.00  0.00     0.279 HD
HETATM    4  C   UNL     1       3.846  30.816  58.151  1.00  0.00     0.245 C 
HETATM    5  C   UNL     1       5.203  30.471  57.455  1.00  0.00     0.008 C 
HETATM    6  C   UNL     1       5.227  28.915  57.296  1.00  0.00     0.246 C 
HETATM    7  N   UNL     1       6.571  28.325  56.935  1.00  0.00    -0.063 N 
HETATM    8  H   UNL     1       6.475  27.315  57.144  1.00  0.00     0.280 HD
HETATM    9  C   UNL     1       7.696  28.778  57.822  1.00  0.00     0.235 C 
HETATM   10  C   UNL     1       7.742  30.293  57.876  1.00  0.00     0.029 C 
HETATM   11  C   UNL     1       6.408  30.889  58.335  1.00  0.00     0.014 C 
HETATM   12  C   UNL     1       5.238  31.182  56.079  1.00  0.00     0.014 C 
HETATM   13  C   UNL     1       4.886  32.671  56.138  1.00  0.00     0.029 C 
HETATM   14  C   UNL     1       3.529  32.913  56.775  1.00  0.00     0.234 C 
ENDROOT
BRANCH   7  15
HETATM   15  C   UNL     1       6.934  28.262  55.442  1.00  0.00     0.323 C 
BRANCH  15  16
HETATM   16  C   UNL     1       6.748  26.903  54.875  1.00  0.00     0.199 A 
HETATM   17  O   UNL     1       5.573  26.645  54.247  1.00  0.00    -0.194 OA
HETATM   18  N   UNL     1       5.579  25.287  53.960  1.00  0.00    -0.106 NA
HETATM   19  C   UNL     1       6.771  24.855  54.406  1.00  0.00     0.189 A 
HETATM   20  N   UNL     1       7.498  25.841  55.054  1.00  0.00    -0.202 NA
BRANCH  19  21
HETATM   21  C   UNL     1       7.253  23.487  54.278  1.00  0.00     0.016 A 
HETATM   22  C   UNL     1       7.465  22.688  55.411  1.00  0.00     0.039 A 
HETATM   23  C   UNL     1       7.930  21.380  55.269  1.00  0.00     0.035 A 
HETATM   24 CL   UNL     1       8.207  20.422  56.669  1.00  0.00    -0.084 Cl
HETATM   25  C   UNL     1       8.178  20.848  54.006  1.00  0.00     0.024 A 
HETATM   26  C   UNL     1       7.964  21.631  52.872  1.00  0.00     0.003 A 
HETATM   27  C   UNL     1       7.508  22.945  53.007  1.00  0.00     0.015 A 
ENDBRANCH  19  21
ENDBRANCH  15  16
ENDBRANCH   7  15
TORSDOF 3
ENDMDL
MODEL 7
REMARK VINA RESULT:      -8.7      4.520      7.286
REMARK  3 active torsions:
REMARK  status: ('A' for Active; 'I' for Inactive)
REMARK    1  A    between atoms: N_7  and  C_9 
REMARK    2  A    between atoms: C_9  and  C_10 
REMARK    3  A    between atoms: C_13  and  C_14 
ROOT
HETATM    1  C   UNL     1       5.477  34.758  66.099  1.00  0.00     0.269 C 
HETATM    2  N   UNL     1       4.655  34.522  64.855  1.00  0.00    -0.074 N 
HETATM    3  H   UNL     1       3.694  34.516  65.232  1.00  0.00     0.279 HD
HETATM    4  C   UNL     1       4.809  33.179  64.187  1.00  0.00     0.245 C 
HETATM    5  C   UNL     1       6.019  33.060  63.205  1.00  0.00     0.008 C 
HETATM    6  C   UNL     1       5.797  31.737  62.400  1.00  0.00     0.246 C 
HETATM    7  N   UNL     1       6.995  31.253  61.615  1.00  0.00    -0.063 N 
HETATM    8  H   UNL     1       6.774  30.266  61.388  1.00  0.00     0.280 HD
HETATM    9  C   UNL     1       8.262  31.171  62.418  1.00  0.00     0.235 C 
HETATM   10  C   UNL     1       8.534  32.498  63.101  1.00  0.00     0.029 C 
HETATM   11  C   UNL     1       7.358  32.944  63.975  1.00  0.00     0.014 C 
HETATM   12  C   UNL     1       6.012  34.298  62.273  1.00  0.00     0.014 C 
HETATM   13  C   UNL     1       5.890  35.633  63.013  1.00  0.00     0.029 C 
HETATM   14  C   UNL     1       4.658  35.686  63.900  1.00  0.00     0.234 C 
ENDROOT
BRANCH   7  15
HETATM   15  C   UNL     1       7.184  31.822  60.198  1.00  0.00     0.323 C 
BRANCH  15  16
HETATM   16  C   UNL     1       7.740  30.818  59.258  1.00  0.00     0.199 A 
HETATM   17  O   UNL     1       9.080  30.840  59.044  1.00  0.00    -0.194 OA
HETATM   18  N   UNL     1       9.323  29.932  58.021  1.00  0.00    -0.106 NA
HETATM   19  C   UNL     1       8.114  29.417  57.738  1.00  0.00     0.189 A 
HETATM   20  N   UNL     1       7.088  30.012  58.454  1.00  0.00    -0.202 NA
BRANCH  19  21
HETATM   21  C   UNL     1       7.874  28.375  56.749  1.00  0.00     0.016 A 
HETATM   22  C   UNL     1       7.670  27.044  57.140  1.00  0.00     0.039 A 
HETATM   23  C   UNL     1       7.445  26.058  56.179  1.00  0.00     0.035 A 
HETATM   24 CL   UNL     1       7.219  24.427  56.674  1.00  0.00    -0.084 Cl
HETATM   25  C   UNL     1       7.409  26.381  54.825  1.00  0.00     0.024 A 
HETATM   26  C   UNL     1       7.604  27.702  54.425  1.00  0.00     0.003 A 
HETATM   27  C   UNL     1       7.840  28.694  55.382  1.00  0.00     0.015 A 
ENDBRANCH  19  21
ENDBRANCH  15  16
ENDBRANCH   7  15
TORSDOF 3
ENDMDL
MODEL 8
REMARK VINA RESULT:      -8.7      3.316      5.367
REMARK  3 active torsions:
REMARK  status: ('A' for Active; 'I' for Inactive)
REMARK    1  A    between atoms: N_7  and  C_9 
REMARK    2  A    between atoms: C_9  and  C_10 
REMARK    3  A    between atoms: C_13  and  C_14 
ROOT
HETATM    1  C   UNL     1       2.126  30.750  50.075  1.00  0.00     0.269 C 
HETATM    2  N   UNL     1       3.082  29.600  49.861  1.00  0.00    -0.074 N 
HETATM    3  H   UNL     1       2.634  29.093  49.081  1.00  0.00     0.279 HD
HETATM    4  C   UNL     1       3.176  28.584  50.970  1.00  0.00     0.245 C 
HETATM    5  C   UNL     1       4.153  28.957  52.133  1.00  0.00     0.008 C 
HETATM    6  C   UNL     1       4.341  27.655  52.978  1.00  0.00     0.246 C 
HETATM    7  N   UNL     1       4.993  27.852  54.328  1.00  0.00    -0.063 N 
HETATM    8  H   UNL     1       4.786  26.978  54.845  1.00  0.00     0.280 HD
HETATM    9  C   UNL     1       4.360  28.930  55.161  1.00  0.00     0.235 C 
HETATM   10  C   UNL     1       4.291  30.225  54.375  1.00  0.00     0.029 C 
HETATM   11  C   UNL     1       3.545  30.049  53.048  1.00  0.00     0.014 C 
HETATM   12  C   UNL     1       5.492  29.427  51.510  1.00  0.00     0.014 C 
HETATM   13  C   UNL     1       5.332  30.485  50.415  1.00  0.00     0.029 C 
HETATM   14  C   UNL     1       4.414  30.020  49.299  1.00  0.00     0.234 C 
ENDROOT
BRANCH   7  15
HETATM   15  C   UNL     1       6.530  27.840  54.376  1.00  0.00     0.323 C 
BRANCH  15  16
HETATM   16  C   UNL     1       7.096  26.536  53.952  1.00  0.00     0.199 A 
HETATM   17  O   UNL     1       7.580  26.448  52.687  1.00  0.00    -0.194 OA
HETATM   18  N   UNL     1       7.892  25.111  52.485  1.00  0.00    -0.106 NA
HETATM   19  C   UNL     1       7.604  24.519  53.657  1.00  0.00     0.189 A 
HETATM   20  N   UNL     1       7.031  25.384  54.576  1.00  0.00    -0.202 NA
BRANCH  19  21
HETATM   21  C   UNL     1       7.817  23.106  53.941  1.00  0.00     0.016 A 
HETATM   22  C   UNL     1       7.995  22.654  55.256  1.00  0.00     0.039 A 
HETATM   23  C   UNL     1       8.202  21.298  55.509  1.00  0.00     0.035 A 
HETATM   24 CL   UNL     1       8.441  20.763  57.125  1.00  0.00    -0.084 Cl
HETATM   25  C   UNL     1       8.223  20.376  54.465  1.00  0.00     0.024 A 
HETATM   26  C   UNL     1       8.041  20.813  53.154  1.00  0.00     0.003 A 
HETATM   27  C   UNL     1       7.843  22.172  52.892  1.00  0.00     0.015 A 
ENDBRANCH  19  21
ENDBRANCH  15  16
ENDBRANCH   7  15
TORSDOF 3
ENDMDL
MODEL 9
REMARK VINA RESULT:      -8.5      5.340      8.304
REMARK  3 active torsions:
REMARK  status: ('A' for Active; 'I' for Inactive)
REMARK    1  A    between atoms: N_7  and  C_9 
REMARK    2  A    between atoms: C_9  and  C_10 
REMARK    3  A    between atoms: C_13  and  C_14 
ROOT
HETATM    1  C   UNL     1       4.048  35.660  65.946  1.00  0.00     0.269 C 
HETATM    2  N   UNL     1       3.717  35.541  64.478  1.00  0.00    -0.074 N 
HETATM    3  H   UNL     1       2.687  35.614  64.485  1.00  0.00     0.279 HD
HETATM    4  C   UNL     1       3.999  34.211  63.826  1.00  0.00     0.245 C 
HETATM    5  C   UNL     1       5.470  34.008  63.337  1.00  0.00     0.008 C 
HETATM    6  C   UNL     1       5.454  32.738  62.424  1.00  0.00     0.246 C 
HETATM    7  N   UNL     1       6.814  32.168  62.091  1.00  0.00    -0.063 N 
HETATM    8  H   UNL     1       6.615  31.214  61.739  1.00  0.00     0.280 HD
HETATM    9  C   UNL     1       7.693  31.942  63.288  1.00  0.00     0.235 C 
HETATM   10  C   UNL     1       7.801  33.216  64.104  1.00  0.00     0.029 C 
HETATM   11  C   UNL     1       6.426  33.743  64.526  1.00  0.00     0.014 C 
HETATM   12  C   UNL     1       5.895  35.270  62.544  1.00  0.00     0.014 C 
HETATM   13  C   UNL     1       5.616  36.587  63.273  1.00  0.00     0.029 C 
HETATM   14  C   UNL     1       4.156  36.728  63.662  1.00  0.00     0.234 C 
ENDROOT
BRANCH   7  15
HETATM   15  C   UNL     1       7.546  32.761  60.875  1.00  0.00     0.323 C 
BRANCH  15  16
HETATM   16  C   UNL     1       7.276  32.000  59.630  1.00  0.00     0.199 A 
HETATM   17  O   UNL     1       6.354  32.511  58.775  1.00  0.00    -0.194 OA
HETATM   18  N   UNL     1       6.165  31.550  57.791  1.00  0.00    -0.106 NA
HETATM   19  C   UNL     1       7.016  30.564  58.119  1.00  0.00     0.189 A 
HETATM   20  N   UNL     1       7.677  30.791  59.316  1.00  0.00    -0.202 NA
BRANCH  19  21
HETATM   21  C   UNL     1       7.209  29.348  57.340  1.00  0.00     0.016 A 
HETATM   22  C   UNL     1       7.015  29.344  55.951  1.00  0.00     0.039 A 
HETATM   23  C   UNL     1       7.201  28.170  55.221  1.00  0.00     0.035 A 
HETATM   24 CL   UNL     1       6.938  28.177  53.522  1.00  0.00    -0.084 Cl
HETATM   25  C   UNL     1       7.590  26.993  55.856  1.00  0.00     0.024 A 
HETATM   26  C   UNL     1       7.792  26.987  57.235  1.00  0.00     0.003 A 
HETATM   27  C   UNL     1       7.598  28.157  57.974  1.00  0.00     0.015 A 
ENDBRANCH  19  21
ENDBRANCH  15  16
ENDBRANCH   7  15
TORSDOF 3
ENDMDL
MODEL 10
REMARK VINA RESULT:      -8.2      4.160      5.388
REMARK  3 active torsions:
REMARK  status: ('A' for Active; 'I' for Inactive)
REMARK    1  A    between atoms: N_7  and  C_9 
REMARK    2  A    between atoms: C_9  and  C_10 
REMARK    3  A    between atoms: C_13  and  C_14 
ROOT
HETATM    1  C   UNL     1       8.888  30.451  60.005  1.00  0.00     0.269 C 
HETATM    2  N   UNL     1       8.842  31.069  58.629  1.00  0.00    -0.074 N 
HETATM    3  H   UNL     1       8.692  32.067  58.848  1.00  0.00     0.279 HD
HETATM    4  C   UNL     1       7.671  30.692  57.757  1.00  0.00     0.245 C 
HETATM    5  C   UNL     1       7.835  29.354  56.964  1.00  0.00     0.008 C 
HETATM    6  C   UNL     1       6.685  29.331  55.906  1.00  0.00     0.246 C 
HETATM    7  N   UNL     1       6.453  27.996  55.236  1.00  0.00    -0.063 N 
HETATM    8  H   UNL     1       5.516  28.084  54.801  1.00  0.00     0.280 HD
HETATM    9  C   UNL     1       6.306  26.848  56.194  1.00  0.00     0.235 C 
HETATM   10  C   UNL     1       7.489  26.804  57.142  1.00  0.00     0.029 C 
HETATM   11  C   UNL     1       7.668  28.127  57.895  1.00  0.00     0.014 C 
HETATM   12  C   UNL     1       9.229  29.359  56.286  1.00  0.00     0.014 C 
HETATM   13  C   UNL     1      10.380  29.714  57.232  1.00  0.00     0.029 C 
HETATM   14  C   UNL     1      10.168  31.053  57.915  1.00  0.00     0.234 C 
ENDROOT
BRANCH   7  15
HETATM   15  C   UNL     1       7.301  27.675  53.994  1.00  0.00     0.323 C 
BRANCH  15  16
HETATM   16  C   UNL     1       6.476  27.192  52.859  1.00  0.00     0.199 A 
HETATM   17  O   UNL     1       6.382  25.850  52.684  1.00  0.00    -0.194 OA
HETATM   18  N   UNL     1       5.708  25.663  51.485  1.00  0.00    -0.106 NA
HETATM   19  C   UNL     1       5.424  26.907  51.064  1.00  0.00     0.189 A 
HETATM   20  N   UNL     1       5.962  27.892  51.876  1.00  0.00    -0.202 NA
BRANCH  19  21
HETATM   21  C   UNL     1       4.672  27.216  49.855  1.00  0.00     0.016 A 
HETATM   22  C   UNL     1       4.149  26.194  49.050  1.00  0.00     0.039 A 
HETATM   23  C   UNL     1       3.434  26.509  47.895  1.00  0.00     0.035 A 
HETATM   24 CL   UNL     1       2.819  25.243  46.906  1.00  0.00    -0.084 Cl
HETATM   25  C   UNL     1       3.220  27.836  47.531  1.00  0.00     0.024 A 
HETATM   26  C   UNL     1       3.729  28.861  48.328  1.00  0.00     0.003 A 
HETATM   27  C   UNL     1       4.455  28.553  49.482  1.00  0.00     0.015 A 
ENDBRANCH  19  21
ENDBRANCH  15  16
ENDBRANCH   7  15
TORSDOF 3
ENDMDL
