MODEL 1
REMARK VINA RESULT:     -10.6      0.000      0.000
REMARK  3 active torsions:
REMARK  status: ('A' for Active; 'I' for Inactive)
REMARK    1  A    between atoms: C_5  and  C_6 
REMARK    2  A    between atoms: C_11  and  C_12 
REMARK    3  A    between atoms: C_23  and  O_24 
ROOT
HETATM    1  C   UNL     1       7.833  29.270  58.204  1.00  0.00     0.031 C 
HETATM    2  C   UNL     1       8.814  30.177  58.084  1.00  0.00     0.066 A 
HETATM    3  C   UNL     1      10.009  30.123  57.205  1.00  0.00     0.274 A 
HETATM    4  O   UNL     1      10.310  29.320  56.347  1.00  0.00    -0.266 OA
HETATM    5  N   UNL     1      10.749  31.221  57.619  1.00  0.00    -0.242 N 
HETATM    6  C   UNL     1       9.020  31.416  58.882  1.00  0.00     0.111 A 
HETATM    7  N   UNL     1      10.175  31.982  58.608  1.00  0.00    -0.170 NA
HETATM    8  H   UNL     1      11.639  31.475  57.206  1.00  0.00     0.192 HD
ENDROOT
BRANCH   6   9
HETATM    9  C   UNL     1       8.074  31.937  59.891  1.00  0.00     0.098 C 
HETATM   10  C   UNL     1       6.689  32.350  59.539  1.00  0.00     0.263 C 
HETATM   11  O   UNL     1       6.356  32.386  58.354  1.00  0.00    -0.267 OA
HETATM   12  N   UNL     1       5.823  32.680  60.575  1.00  0.00    -0.317 N 
HETATM   13  C   UNL     1       4.441  32.995  60.243  1.00  0.00     0.159 C 
HETATM   14  C   UNL     1       6.275  32.806  61.922  1.00  0.00     0.050 A 
HETATM   15  C   UNL     1       7.621  32.532  62.221  1.00  0.00     0.025 A 
HETATM   16  C   UNL     1       5.418  33.221  62.955  1.00  0.00     0.031 A 
HETATM   17  C   UNL     1       8.080  32.688  63.540  1.00  0.00     0.016 A 
HETATM   18  C   UNL     1       8.523  32.077  61.153  1.00  0.00     0.096 C 
HETATM   19  C   UNL     1       7.220  33.105  64.555  1.00  0.00     0.001 A 
HETATM   20  C   UNL     1       5.888  33.369  64.262  1.00  0.00     0.002 A 
BRANCH  18  21
HETATM   21  O   UNL     1       9.820  31.801  61.554  1.00  0.00    -0.359 OA
HETATM   22  H   UNL     1      10.017  30.859  61.364  1.00  0.00     0.218 HD
ENDBRANCH  18  21
ENDBRANCH   6   9
BRANCH   1  23
HETATM   23  C   UNL     1       7.639  28.063  57.392  1.00  0.00    -0.035 A 
HETATM   24  C   UNL     1       7.934  26.811  57.943  1.00  0.00     0.012 A 
HETATM   25  C   UNL     1       7.681  25.640  57.220  1.00  0.00     0.007 A 
HETATM   26  C   UNL     1       7.130  25.705  55.936  1.00  0.00    -0.062 A 
HETATM   27  C   UNL     1       6.821  24.455  55.167  1.00  0.00     0.048 C 
HETATM   28  C   UNL     1       6.818  26.956  55.395  1.00  0.00     0.007 A 
HETATM   29  C   UNL     1       7.067  28.125  56.119  1.00  0.00     0.012 A 
ENDBRANCH   1  23
TORSDOF 3
ENDMDL
MODEL 2
REMARK VINA RESULT:      -9.8      4.439      9.836
REMARK  3 active torsions:
REMARK  status: ('A' for Active; 'I' for Inactive)
REMARK    1  A    between atoms: C_5  and  C_6 
REMARK    2  A    between atoms: C_11  and  C_12 
REMARK    3  A    between atoms: C_23  and  O_24 
ROOT
HETATM    1  C   UNL     1       7.900  27.120  56.483  1.00  0.00     0.031 C 
HETATM    2  C   UNL     1       6.826  26.986  55.691  1.00  0.00     0.066 A 
HETATM    3  C   UNL     1       5.828  28.019  55.318  1.00  0.00     0.274 A 
HETATM    4  O   UNL     1       5.812  29.210  55.555  1.00  0.00    -0.266 OA
HETATM    5  N   UNL     1       4.864  27.290  54.638  1.00  0.00    -0.242 N 
HETATM    6  C   UNL     1       6.291  25.742  55.074  1.00  0.00     0.111 A 
HETATM    7  N   UNL     1       5.128  25.949  54.495  1.00  0.00    -0.170 NA
HETATM    8  H   UNL     1       4.032  27.710  54.239  1.00  0.00     0.192 HD
ENDROOT
BRANCH   6   9
HETATM    9  C   UNL     1       6.952  24.421  55.130  1.00  0.00     0.098 C 
HETATM   10  C   UNL     1       7.444  23.835  56.406  1.00  0.00     0.263 C 
HETATM   11  O   UNL     1       7.421  24.519  57.429  1.00  0.00    -0.267 OA
HETATM   12  N   UNL     1       7.911  22.526  56.385  1.00  0.00    -0.317 N 
HETATM   13  C   UNL     1       8.305  21.916  57.646  1.00  0.00     0.159 C 
HETATM   14  C   UNL     1       8.096  21.812  55.164  1.00  0.00     0.050 A 
HETATM   15  C   UNL     1       7.742  22.427  53.950  1.00  0.00     0.025 A 
HETATM   16  C   UNL     1       8.645  20.519  55.138  1.00  0.00     0.031 A 
HETATM   17  C   UNL     1       7.955  21.743  52.742  1.00  0.00     0.016 A 
HETATM   18  C   UNL     1       7.145  23.771  53.967  1.00  0.00     0.096 C 
HETATM   19  C   UNL     1       8.506  20.461  52.730  1.00  0.00     0.001 A 
HETATM   20  C   UNL     1       8.849  19.850  53.929  1.00  0.00     0.002 A 
BRANCH  18  21
HETATM   21  O   UNL     1       6.801  24.278  52.723  1.00  0.00    -0.359 OA
HETATM   22  H   UNL     1       7.047  25.227  52.690  1.00  0.00     0.218 HD
ENDBRANCH  18  21
ENDBRANCH   6   9
BRANCH   1  23
HETATM   23  C   UNL     1       8.420  28.362  57.066  1.00  0.00    -0.035 A 
HETATM   24  C   UNL     1       7.815  28.887  58.213  1.00  0.00     0.012 A 
HETATM   25  C   UNL     1       8.342  30.024  58.837  1.00  0.00     0.007 A 
HETATM   26  C   UNL     1       9.481  30.651  58.321  1.00  0.00    -0.062 A 
HETATM   27  C   UNL     1      10.075  31.848  59.002  1.00  0.00     0.048 C 
HETATM   28  C   UNL     1      10.096  30.113  57.186  1.00  0.00     0.007 A 
HETATM   29  C   UNL     1       9.572  28.975  56.566  1.00  0.00     0.012 A 
ENDBRANCH   1  23
TORSDOF 3
ENDMDL
MODEL 3
REMARK VINA RESULT:      -9.6      2.773      5.097
REMARK  3 active torsions:
REMARK  status: ('A' for Active; 'I' for Inactive)
REMARK    1  A    between atoms: C_5  and  C_6 
REMARK    2  A    between atoms: C_11  and  C_12 
REMARK    3  A    between atoms: C_23  and  O_24 
ROOT
HETATM    1  C   UNL     1       7.354  26.683  55.326  1.00  0.00     0.031 C 
HETATM    2  C   UNL     1       6.374  27.576  55.124  1.00  0.00     0.066 A 
HETATM    3  C   UNL     1       5.192  27.454  54.234  1.00  0.00     0.274 A 
HETATM    4  O   UNL     1       4.801  26.508  53.582  1.00  0.00    -0.266 OA
HETATM    5  N   UNL     1       4.629  28.720  54.290  1.00  0.00    -0.242 N 
HETATM    6  C   UNL     1       6.276  28.964  55.650  1.00  0.00     0.111 A 
HETATM    7  N   UNL     1       5.264  29.614  55.117  1.00  0.00    -0.170 NA
HETATM    8  H   UNL     1       3.787  28.973  53.785  1.00  0.00     0.192 HD
ENDROOT
BRANCH   6   9
HETATM    9  C   UNL     1       7.213  29.567  56.621  1.00  0.00     0.098 C 
HETATM   10  C   UNL     1       8.686  29.563  56.407  1.00  0.00     0.263 C 
HETATM   11  O   UNL     1       9.153  28.928  55.462  1.00  0.00    -0.267 OA
HETATM   12  N   UNL     1       9.476  30.287  57.293  1.00  0.00    -0.317 N 
HETATM   13  C   UNL     1      10.906  30.364  57.034  1.00  0.00     0.159 C 
HETATM   14  C   UNL     1       8.937  30.867  58.480  1.00  0.00     0.050 A 
HETATM   15  C   UNL     1       7.559  30.754  58.733  1.00  0.00     0.025 A 
HETATM   16  C   UNL     1       9.751  31.526  59.417  1.00  0.00     0.031 A 
HETATM   17  C   UNL     1       7.029  31.293  59.918  1.00  0.00     0.016 A 
HETATM   18  C   UNL     1       6.694  30.085  57.750  1.00  0.00     0.096 C 
HETATM   19  C   UNL     1       7.849  31.940  60.842  1.00  0.00     0.001 A 
HETATM   20  C   UNL     1       9.210  32.058  60.589  1.00  0.00     0.002 A 
BRANCH  18  21
HETATM   21  O   UNL     1       5.347  30.054  58.075  1.00  0.00    -0.359 OA
HETATM   22  H   UNL     1       4.990  29.167  57.858  1.00  0.00     0.218 HD
ENDBRANCH  18  21
ENDBRANCH   6   9
BRANCH   1  23
HETATM   23  C   UNL     1       7.421  25.311  54.811  1.00  0.00    -0.035 A 
HETATM   24  C   UNL     1       7.837  25.092  53.493  1.00  0.00     0.012 A 
HETATM   25  C   UNL     1       7.989  23.790  53.003  1.00  0.00     0.007 A 
HETATM   26  C   UNL     1       7.725  22.689  53.824  1.00  0.00    -0.062 A 
HETATM   27  C   UNL     1       7.919  21.289  53.321  1.00  0.00     0.048 C 
HETATM   28  C   UNL     1       7.328  22.909  55.147  1.00  0.00     0.007 A 
HETATM   29  C   UNL     1       7.181  24.209  55.637  1.00  0.00     0.012 A 
ENDBRANCH   1  23
TORSDOF 3
ENDMDL
MODEL 4
REMARK VINA RESULT:      -9.3      1.867      7.344
REMARK  3 active torsions:
REMARK  status: ('A' for Active; 'I' for Inactive)
REMARK    1  A    between atoms: C_5  and  C_6 
REMARK    2  A    between atoms: C_11  and  C_12 
REMARK    3  A    between atoms: C_23  and  O_24 
ROOT
HETATM    1  C   UNL     1       7.745  30.584  59.230  1.00  0.00     0.031 C 
HETATM    2  C   UNL     1       8.776  30.603  58.373  1.00  0.00     0.066 A 
HETATM    3  C   UNL     1      10.010  31.424  58.443  1.00  0.00     0.274 A 
HETATM    4  O   UNL     1      10.403  32.168  59.317  1.00  0.00    -0.266 OA
HETATM    5  N   UNL     1      10.624  31.166  57.226  1.00  0.00    -0.242 N 
HETATM    6  C   UNL     1       8.899  29.893  57.071  1.00  0.00     0.111 A 
HETATM    7  N   UNL     1       9.973  30.270  56.413  1.00  0.00    -0.170 NA
HETATM    8  H   UNL     1      11.510  31.577  56.956  1.00  0.00     0.192 HD
ENDROOT
BRANCH   6   9
HETATM    9  C   UNL     1       7.922  28.914  56.548  1.00  0.00     0.098 C 
HETATM   10  C   UNL     1       6.616  29.329  55.971  1.00  0.00     0.263 C 
HETATM   11  O   UNL     1       6.274  30.509  56.047  1.00  0.00    -0.267 OA
HETATM   12  N   UNL     1       5.831  28.355  55.365  1.00  0.00    -0.317 N 
HETATM   13  C   UNL     1       4.596  28.771  54.717  1.00  0.00     0.159 C 
HETATM   14  C   UNL     1       6.158  26.968  55.445  1.00  0.00     0.050 A 
HETATM   15  C   UNL     1       7.337  26.579  56.104  1.00  0.00     0.025 A 
HETATM   16  C   UNL     1       5.321  25.978  54.904  1.00  0.00     0.031 A 
HETATM   17  C   UNL     1       7.646  25.213  56.216  1.00  0.00     0.016 A 
HETATM   18  C   UNL     1       8.232  27.608  56.655  1.00  0.00     0.096 C 
HETATM   19  C   UNL     1       6.804  24.240  55.679  1.00  0.00     0.001 A 
HETATM   20  C   UNL     1       5.642  24.624  55.021  1.00  0.00     0.002 A 
BRANCH  18  21
HETATM   21  O   UNL     1       9.383  27.126  57.257  1.00  0.00    -0.359 OA
HETATM   22  H   UNL     1       9.147  26.364  57.828  1.00  0.00     0.218 HD
ENDBRANCH  18  21
ENDBRANCH   6   9
BRANCH   1  23
HETATM   23  C   UNL     1       7.652  31.279  60.520  1.00  0.00    -0.035 A 
HETATM   24  C   UNL     1       8.332  30.761  61.628  1.00  0.00     0.012 A 
HETATM   25  C   UNL     1       8.327  31.447  62.847  1.00  0.00     0.007 A 
HETATM   26  C   UNL     1       7.642  32.660  62.976  1.00  0.00    -0.062 A 
HETATM   27  C   UNL     1       7.661  33.422  64.268  1.00  0.00     0.048 C 
HETATM   28  C   UNL     1       6.980  33.186  61.862  1.00  0.00     0.007 A 
HETATM   29  C   UNL     1       6.988  32.502  60.643  1.00  0.00     0.012 A 
ENDBRANCH   1  23
TORSDOF 3
ENDMDL
MODEL 5
REMARK VINA RESULT:      -9.2      3.564      6.244
REMARK  3 active torsions:
REMARK  status: ('A' for Active; 'I' for Inactive)
REMARK    1  A    between atoms: C_5  and  C_6 
REMARK    2  A    between atoms: C_11  and  C_12 
REMARK    3  A    between atoms: C_23  and  O_24 
ROOT
HETATM    1  C   UNL     1       6.984  25.773  54.738  1.00  0.00     0.031 C 
HETATM    2  C   UNL     1       5.915  26.501  54.383  1.00  0.00     0.066 A 
HETATM    3  C   UNL     1       4.814  26.122  53.463  1.00  0.00     0.274 A 
HETATM    4  O   UNL     1       4.584  25.063  52.916  1.00  0.00    -0.266 OA
HETATM    5  N   UNL     1       4.096  27.302  53.336  1.00  0.00    -0.242 N 
HETATM    6  C   UNL     1       5.614  27.916  54.729  1.00  0.00     0.111 A 
HETATM    7  N   UNL     1       4.564  28.362  54.074  1.00  0.00    -0.170 NA
HETATM    8  H   UNL     1       3.261  27.382  52.767  1.00  0.00     0.192 HD
ENDROOT
BRANCH   6   9
HETATM    9  C   UNL     1       6.410  28.745  55.659  1.00  0.00     0.098 C 
HETATM   10  C   UNL     1       5.783  29.514  56.768  1.00  0.00     0.263 C 
HETATM   11  O   UNL     1       4.556  29.571  56.841  1.00  0.00    -0.267 OA
HETATM   12  N   UNL     1       6.622  30.140  57.683  1.00  0.00    -0.317 N 
HETATM   13  C   UNL     1       6.017  30.813  58.822  1.00  0.00     0.159 C 
HETATM   14  C   UNL     1       8.033  30.213  57.483  1.00  0.00     0.050 A 
HETATM   15  C   UNL     1       8.599  29.586  56.359  1.00  0.00     0.025 A 
HETATM   16  C   UNL     1       8.870  30.917  58.365  1.00  0.00     0.031 A 
HETATM   17  C   UNL     1       9.983  29.684  56.138  1.00  0.00     0.016 A 
HETATM   18  C   UNL     1       7.735  28.828  55.441  1.00  0.00     0.096 C 
HETATM   19  C   UNL     1      10.802  30.391  57.019  1.00  0.00     0.001 A 
HETATM   20  C   UNL     1      10.244  31.005  58.134  1.00  0.00     0.002 A 
BRANCH  18  21
HETATM   21  O   UNL     1       8.392  28.220  54.383  1.00  0.00    -0.359 OA
HETATM   22  H   UNL     1       9.252  27.873  54.702  1.00  0.00     0.218 HD
ENDBRANCH  18  21
ENDBRANCH   6   9
BRANCH   1  23
HETATM   23  C   UNL     1       7.253  24.370  54.400  1.00  0.00    -0.035 A 
HETATM   24  C   UNL     1       7.675  24.044  53.107  1.00  0.00     0.012 A 
HETATM   25  C   UNL     1       8.016  22.727  52.782  1.00  0.00     0.007 A 
HETATM   26  C   UNL     1       7.938  21.716  53.746  1.00  0.00    -0.062 A 
HETATM   27  C   UNL     1       8.335  20.307  53.419  1.00  0.00     0.048 C 
HETATM   28  C   UNL     1       7.534  22.047  55.044  1.00  0.00     0.007 A 
HETATM   29  C   UNL     1       7.198  23.364  55.369  1.00  0.00     0.012 A 
ENDBRANCH   1  23
TORSDOF 3
ENDMDL
MODEL 6
REMARK VINA RESULT:      -9.1      2.191      7.883
REMARK  3 active torsions:
REMARK  status: ('A' for Active; 'I' for Inactive)
REMARK    1  A    between atoms: C_5  and  C_6 
REMARK    2  A    between atoms: C_11  and  C_12 
REMARK    3  A    between atoms: C_23  and  O_24 
ROOT
HETATM    1  C   UNL     1       7.557  30.346  58.348  1.00  0.00     0.031 C 
HETATM    2  C   UNL     1       8.749  30.145  57.766  1.00  0.00     0.066 A 
HETATM    3  C   UNL     1       9.998  30.926  57.945  1.00  0.00     0.274 A 
HETATM    4  O   UNL     1      10.248  31.833  58.711  1.00  0.00    -0.266 OA
HETATM    5  N   UNL     1      10.841  30.387  56.985  1.00  0.00    -0.242 N 
HETATM    6  C   UNL     1       9.097  29.161  56.706  1.00  0.00     0.111 A 
HETATM    7  N   UNL     1      10.316  29.353  56.249  1.00  0.00    -0.170 NA
HETATM    8  H   UNL     1      11.794  30.703  56.846  1.00  0.00     0.192 HD
ENDROOT
BRANCH   6   9
HETATM    9  C   UNL     1       8.185  28.119  56.189  1.00  0.00     0.098 C 
HETATM   10  C   UNL     1       7.589  27.081  57.072  1.00  0.00     0.263 C 
HETATM   11  O   UNL     1       7.963  27.001  58.242  1.00  0.00    -0.267 OA
HETATM   12  N   UNL     1       6.625  26.238  56.530  1.00  0.00    -0.317 N 
HETATM   13  C   UNL     1       5.971  25.283  57.412  1.00  0.00     0.159 C 
HETATM   14  C   UNL     1       6.335  26.227  55.132  1.00  0.00     0.050 A 
HETATM   15  C   UNL     1       7.001  27.133  54.288  1.00  0.00     0.025 A 
HETATM   16  C   UNL     1       5.421  25.319  54.573  1.00  0.00     0.031 A 
HETATM   17  C   UNL     1       6.746  27.103  52.907  1.00  0.00     0.016 A 
HETATM   18  C   UNL     1       7.944  28.103  54.865  1.00  0.00     0.096 C 
HETATM   19  C   UNL     1       5.840  26.192  52.363  1.00  0.00     0.001 A 
HETATM   20  C   UNL     1       5.177  25.302  53.198  1.00  0.00     0.002 A 
BRANCH  18  21
HETATM   21  O   UNL     1       8.523  28.974  53.956  1.00  0.00    -0.359 OA
HETATM   22  H   UNL     1       8.563  29.869  54.356  1.00  0.00     0.218 HD
ENDBRANCH  18  21
ENDBRANCH   6   9
BRANCH   1  23
HETATM   23  C   UNL     1       7.240  31.311  59.407  1.00  0.00    -0.035 A 
HETATM   24  C   UNL     1       6.239  32.264  59.189  1.00  0.00     0.012 A 
HETATM   25  C   UNL     1       5.861  33.143  60.210  1.00  0.00     0.007 A 
HETATM   26  C   UNL     1       6.479  33.080  61.464  1.00  0.00    -0.062 A 
HETATM   27  C   UNL     1       6.056  33.993  62.577  1.00  0.00     0.048 C 
HETATM   28  C   UNL     1       7.465  32.114  61.686  1.00  0.00     0.007 A 
HETATM   29  C   UNL     1       7.839  31.234  60.667  1.00  0.00     0.012 A 
ENDBRANCH   1  23
TORSDOF 3
ENDMDL
MODEL 7
REMARK VINA RESULT:      -9.0      1.819      7.970
REMARK  3 active torsions:
REMARK  status: ('A' for Active; 'I' for Inactive)
REMARK    1  A    between atoms: C_5  and  C_6 
REMARK    2  A    between atoms: C_11  and  C_12 
REMARK    3  A    between atoms: C_23  and  O_24 
ROOT
HETATM    1  C   UNL     1       6.314  32.336  61.692  1.00  0.00     0.031 C 
HETATM    2  C   UNL     1       5.759  32.965  60.645  1.00  0.00     0.066 A 
HETATM    3  C   UNL     1       4.894  34.171  60.655  1.00  0.00     0.274 A 
HETATM    4  O   UNL     1       4.583  34.901  61.574  1.00  0.00    -0.266 OA
HETATM    5  N   UNL     1       4.479  34.266  59.335  1.00  0.00    -0.242 N 
HETATM    6  C   UNL     1       5.772  32.553  59.216  1.00  0.00     0.111 A 
HETATM    7  N   UNL     1       4.988  33.315  58.485  1.00  0.00    -0.170 NA
HETATM    8  H   UNL     1       3.869  35.002  58.999  1.00  0.00     0.192 HD
ENDROOT
BRANCH   6   9
HETATM    9  C   UNL     1       6.533  31.407  58.675  1.00  0.00     0.098 C 
HETATM   10  C   UNL     1       8.021  31.389  58.643  1.00  0.00     0.263 C 
HETATM   11  O   UNL     1       8.640  32.406  58.953  1.00  0.00    -0.267 OA
HETATM   12  N   UNL     1       8.650  30.210  58.261  1.00  0.00    -0.317 N 
HETATM   13  C   UNL     1      10.104  30.156  58.318  1.00  0.00     0.159 C 
HETATM   14  C   UNL     1       7.920  29.102  57.735  1.00  0.00     0.050 A 
HETATM   15  C   UNL     1       6.519  29.183  57.654  1.00  0.00     0.025 A 
HETATM   16  C   UNL     1       8.564  27.943  57.272  1.00  0.00     0.031 A 
HETATM   17  C   UNL     1       5.797  28.109  57.105  1.00  0.00     0.016 A 
HETATM   18  C   UNL     1       5.832  30.382  58.156  1.00  0.00     0.096 C 
HETATM   19  C   UNL     1       6.450  26.966  56.644  1.00  0.00     0.001 A 
HETATM   20  C   UNL     1       7.834  26.884  56.730  1.00  0.00     0.002 A 
BRANCH  18  21
HETATM   21  O   UNL     1       4.449  30.351  58.063  1.00  0.00    -0.359 OA
HETATM   22  H   UNL     1       4.199  29.936  57.209  1.00  0.00     0.218 HD
ENDBRANCH  18  21
ENDBRANCH   6   9
BRANCH   1  23
HETATM   23  C   UNL     1       6.304  32.771  63.094  1.00  0.00    -0.035 A 
HETATM   24  C   UNL     1       7.492  33.222  63.680  1.00  0.00     0.012 A 
HETATM   25  C   UNL     1       7.494  33.720  64.988  1.00  0.00     0.007 A 
HETATM   26  C   UNL     1       6.308  33.771  65.728  1.00  0.00    -0.062 A 
HETATM   27  C   UNL     1       6.292  34.336  67.118  1.00  0.00     0.048 C 
HETATM   28  C   UNL     1       5.118  33.338  65.134  1.00  0.00     0.007 A 
HETATM   29  C   UNL     1       5.116  32.846  63.826  1.00  0.00     0.012 A 
ENDBRANCH   1  23
TORSDOF 3
ENDMDL
MODEL 8
REMARK VINA RESULT:      -8.9      3.738      6.260
REMARK  3 active torsions:
REMARK  status: ('A' for Active; 'I' for Inactive)
REMARK    1  A    between atoms: C_5  and  C_6 
REMARK    2  A    between atoms: C_11  and  C_12 
REMARK    3  A    between atoms: C_23  and  O_24 
ROOT
HETATM    1  C   UNL     1       6.715  25.632  54.774  1.00  0.00     0.031 C 
HETATM    2  C   UNL     1       5.639  26.260  54.276  1.00  0.00     0.066 A 
HETATM    3  C   UNL     1       4.708  25.786  53.222  1.00  0.00     0.274 A 
HETATM    4  O   UNL     1       4.650  24.713  52.658  1.00  0.00    -0.266 OA
HETATM    5  N   UNL     1       3.907  26.894  52.994  1.00  0.00    -0.242 N 
HETATM    6  C   UNL     1       5.165  27.639  54.570  1.00  0.00     0.111 A 
HETATM    7  N   UNL     1       4.174  27.989  53.780  1.00  0.00    -0.170 NA
HETATM    8  H   UNL     1       3.150  26.900  52.320  1.00  0.00     0.192 HD
ENDROOT
BRANCH   6   9
HETATM    9  C   UNL     1       5.752  28.534  55.590  1.00  0.00     0.098 C 
HETATM   10  C   UNL     1       7.222  28.701  55.746  1.00  0.00     0.263 C 
HETATM   11  O   UNL     1       7.980  27.978  55.099  1.00  0.00    -0.267 OA
HETATM   12  N   UNL     1       7.678  29.677  56.625  1.00  0.00    -0.317 N 
HETATM   13  C   UNL     1       9.112  29.908  56.711  1.00  0.00     0.159 C 
HETATM   14  C   UNL     1       6.792  30.379  57.495  1.00  0.00     0.050 A 
HETATM   15  C   UNL     1       5.413  30.120  57.423  1.00  0.00     0.025 A 
HETATM   16  C   UNL     1       7.263  31.305  58.441  1.00  0.00     0.031 A 
HETATM   17  C   UNL     1       4.539  30.782  58.302  1.00  0.00     0.016 A 
HETATM   18  C   UNL     1       4.906  29.168  56.423  1.00  0.00     0.096 C 
HETATM   19  C   UNL     1       5.021  31.696  59.240  1.00  0.00     0.001 A 
HETATM   20  C   UNL     1       6.383  31.958  59.307  1.00  0.00     0.002 A 
BRANCH  18  21
HETATM   21  O   UNL     1       3.529  29.006  56.409  1.00  0.00    -0.359 OA
HETATM   22  H   UNL     1       3.191  29.245  55.519  1.00  0.00     0.218 HD
ENDBRANCH  18  21
ENDBRANCH   6   9
BRANCH   1  23
HETATM   23  C   UNL     1       7.154  24.262  54.484  1.00  0.00    -0.035 A 
HETATM   24  C   UNL     1       7.722  23.972  53.239  1.00  0.00     0.012 A 
HETATM   25  C   UNL     1       8.223  22.695  52.967  1.00  0.00     0.007 A 
HETATM   26  C   UNL     1       8.162  21.688  53.937  1.00  0.00    -0.062 A 
HETATM   27  C   UNL     1       8.729  20.325  53.669  1.00  0.00     0.048 C 
HETATM   28  C   UNL     1       7.612  21.985  55.188  1.00  0.00     0.007 A 
HETATM   29  C   UNL     1       7.116  23.263  55.461  1.00  0.00     0.012 A 
ENDBRANCH   1  23
TORSDOF 3
ENDMDL
MODEL 9
REMARK VINA RESULT:      -8.7      1.991      3.193
REMARK  3 active torsions:
REMARK  status: ('A' for Active; 'I' for Inactive)
REMARK    1  A    between atoms: C_5  and  C_6 
REMARK    2  A    between atoms: C_11  and  C_12 
REMARK    3  A    between atoms: C_23  and  O_24 
ROOT
HETATM    1  C   UNL     1       6.477  29.493  57.626  1.00  0.00     0.031 C 
HETATM    2  C   UNL     1       5.922  30.675  57.320  1.00  0.00     0.066 A 
HETATM    3  C   UNL     1       5.213  31.058  56.073  1.00  0.00     0.274 A 
HETATM    4  O   UNL     1       4.895  30.381  55.118  1.00  0.00    -0.266 OA
HETATM    5  N   UNL     1       5.015  32.420  56.236  1.00  0.00    -0.242 N 
HETATM    6  C   UNL     1       5.973  31.941  58.100  1.00  0.00     0.111 A 
HETATM    7  N   UNL     1       5.463  32.947  57.423  1.00  0.00    -0.170 NA
HETATM    8  H   UNL     1       4.542  32.996  55.548  1.00  0.00     0.192 HD
ENDROOT
BRANCH   6   9
HETATM    9  C   UNL     1       6.556  32.077  59.451  1.00  0.00     0.098 C 
HETATM   10  C   UNL     1       8.006  31.872  59.711  1.00  0.00     0.263 C 
HETATM   11  O   UNL     1       8.725  31.449  58.806  1.00  0.00    -0.267 OA
HETATM   12  N   UNL     1       8.490  32.172  60.980  1.00  0.00    -0.317 N 
HETATM   13  C   UNL     1       9.923  32.063  61.213  1.00  0.00     0.159 C 
HETATM   14  C   UNL     1       7.617  32.489  62.063  1.00  0.00     0.050 A 
HETATM   15  C   UNL     1       6.233  32.557  61.829  1.00  0.00     0.025 A 
HETATM   16  C   UNL     1       8.100  32.710  63.363  1.00  0.00     0.031 A 
HETATM   17  C   UNL     1       5.365  32.834  62.899  1.00  0.00     0.016 A 
HETATM   18  C   UNL     1       5.717  32.348  60.468  1.00  0.00     0.096 C 
HETATM   19  C   UNL     1       5.858  33.046  64.186  1.00  0.00     0.001 A 
HETATM   20  C   UNL     1       7.226  32.986  64.417  1.00  0.00     0.002 A 
BRANCH  18  21
HETATM   21  O   UNL     1       4.342  32.468  60.334  1.00  0.00    -0.359 OA
HETATM   22  H   UNL     1       4.000  33.023  61.068  1.00  0.00     0.218 HD
ENDBRANCH  18  21
ENDBRANCH   6   9
BRANCH   1  23
HETATM   23  C   UNL     1       6.399  28.250  56.850  1.00  0.00    -0.035 A 
HETATM   24  C   UNL     1       7.443  27.918  55.980  1.00  0.00     0.012 A 
HETATM   25  C   UNL     1       7.432  26.700  55.290  1.00  0.00     0.007 A 
HETATM   26  C   UNL     1       6.377  25.798  55.461  1.00  0.00    -0.062 A 
HETATM   27  C   UNL     1       6.373  24.475  54.755  1.00  0.00     0.048 C 
HETATM   28  C   UNL     1       5.344  26.123  56.346  1.00  0.00     0.007 A 
HETATM   29  C   UNL     1       5.357  27.337  57.038  1.00  0.00     0.012 A 
ENDBRANCH   1  23
TORSDOF 3
ENDMDL
MODEL 10
REMARK VINA RESULT:      -8.7      2.367      3.002
REMARK  3 active torsions:
REMARK  status: ('A' for Active; 'I' for Inactive)
REMARK    1  A    between atoms: C_5  and  C_6 
REMARK    2  A    between atoms: C_11  and  C_12 
REMARK    3  A    between atoms: C_23  and  O_24 
ROOT
HETATM    1  C   UNL     1       6.052  28.976  57.433  1.00  0.00     0.031 C 
HETATM    2  C   UNL     1       5.600  30.073  56.808  1.00  0.00     0.066 A 
HETATM    3  C   UNL     1       5.280  30.240  55.368  1.00  0.00     0.274 A 
HETATM    4  O   UNL     1       5.259  29.420  54.474  1.00  0.00    -0.266 OA
HETATM    5  N   UNL     1       5.032  31.600  55.262  1.00  0.00    -0.242 N 
HETATM    6  C   UNL     1       5.412  31.437  57.371  1.00  0.00     0.111 A 
HETATM    7  N   UNL     1       5.113  32.311  56.435  1.00  0.00    -0.170 NA
HETATM    8  H   UNL     1       4.775  32.049  54.389  1.00  0.00     0.192 HD
ENDROOT
BRANCH   6   9
HETATM    9  C   UNL     1       5.577  31.791  58.797  1.00  0.00     0.098 C 
HETATM   10  C   UNL     1       4.418  32.118  59.670  1.00  0.00     0.263 C 
HETATM   11  O   UNL     1       3.299  32.226  59.169  1.00  0.00    -0.267 OA
HETATM   12  N   UNL     1       4.654  32.288  61.030  1.00  0.00    -0.317 N 
HETATM   13  C   UNL     1       3.512  32.514  61.903  1.00  0.00     0.159 C 
HETATM   14  C   UNL     1       5.976  32.336  61.565  1.00  0.00     0.050 A 
HETATM   15  C   UNL     1       7.070  32.149  60.702  1.00  0.00     0.025 A 
HETATM   16  C   UNL     1       6.216  32.590  62.926  1.00  0.00     0.031 A 
HETATM   17  C   UNL     1       8.375  32.230  61.217  1.00  0.00     0.016 A 
HETATM   18  C   UNL     1       6.831  31.861  59.280  1.00  0.00     0.096 C 
HETATM   19  C   UNL     1       8.599  32.489  62.569  1.00  0.00     0.001 A 
HETATM   20  C   UNL     1       7.518  32.666  63.423  1.00  0.00     0.002 A 
BRANCH  18  21
HETATM   21  O   UNL     1       7.973  31.660  58.520  1.00  0.00    -0.359 OA
HETATM   22  H   UNL     1       8.707  32.183  58.908  1.00  0.00     0.218 HD
ENDBRANCH  18  21
ENDBRANCH   6   9
BRANCH   1  23
HETATM   23  C   UNL     1       6.212  27.633  56.862  1.00  0.00    -0.035 A 
HETATM   24  C   UNL     1       7.442  27.268  56.303  1.00  0.00     0.012 A 
HETATM   25  C   UNL     1       7.647  25.969  55.826  1.00  0.00     0.007 A 
HETATM   26  C   UNL     1       6.624  25.017  55.900  1.00  0.00    -0.062 A 
HETATM   27  C   UNL     1       6.845  23.611  55.424  1.00  0.00     0.048 C 
HETATM   28  C   UNL     1       5.402  25.378  56.476  1.00  0.00     0.007 A 
HETATM   29  C   UNL     1       5.200  26.675  56.956  1.00  0.00     0.012 A 
ENDBRANCH   1  23
TORSDOF 3
ENDMDL
