MODEL 1
REMARK VINA RESULT:     -10.7      0.000      0.000
REMARK  7 active torsions:
REMARK  status: ('A' for Active; 'I' for Inactive)
REMARK    1  A    between atoms: C_2  and  O_3 
REMARK    2  A    between atoms: O_3  and  C_4 
REMARK    3  A    between atoms: C_5  and  C_6 
REMARK    4  A    between atoms: C_9  and  C_10 
REMARK       I    between atoms: C_10  and  N_11 
REMARK    5  A    between atoms: N_11  and  C_12 
REMARK    6  A    between atoms: C_25  and  C_26 
REMARK       I    between atoms: C_26  and  N_27 
REMARK    7  A    between atoms: N_27  and  C_28 
ROOT
HETATM    1  C   UNL     1       6.219  30.117  57.897  1.00  0.00     0.188 A 
HETATM    2  N   UNL     1       6.110  29.017  56.920  1.00  0.00    -0.239 N 
HETATM    3  C   UNL     1       7.186  28.336  56.387  1.00  0.00     0.142 A 
HETATM    4  C   UNL     1       6.650  27.402  55.522  1.00  0.00     0.097 A 
HETATM    5  C   UNL     1       5.252  27.621  55.599  1.00  0.00     0.160 A 
HETATM    6  N   UNL     1       4.914  28.557  56.488  1.00  0.00    -0.181 NA
HETATM    7  N   UNL     1       8.443  28.698  56.754  1.00  0.00    -0.343 N 
HETATM    8  C   UNL     1       8.696  29.745  57.644  1.00  0.00     0.021 A 
HETATM    9  C   UNL     1      10.136  30.050  57.965  1.00  0.00     0.069 C 
HETATM   10  C   UNL     1       7.670  30.435  58.194  1.00  0.00     0.061 A 
HETATM   11  H   UNL     1       9.262  28.339  56.265  1.00  0.00     0.167 HD
ENDROOT
BRANCH   4  12
HETATM   12  C   UNL     1       7.292  26.403  54.689  1.00  0.00     0.261 C 
HETATM   13  N   UNL     1       7.371  25.154  55.280  1.00  0.00    -0.323 N 
HETATM   14  H   UNL     1       6.929  25.068  56.187  1.00  0.00     0.169 HD
HETATM   15  O   UNL     1       7.645  26.687  53.552  1.00  0.00    -0.267 OA
BRANCH  13  16
HETATM   16  C   UNL     1       7.824  23.959  54.682  1.00  0.00     0.035 A 
HETATM   17  C   UNL     1       7.303  23.433  53.494  1.00  0.00     0.032 A 
HETATM   18  C   UNL     1       7.778  22.220  52.983  1.00  0.00     0.044 A 
HETATM   19  C   UNL     1       8.779  21.537  53.658  1.00  0.00     0.116 A 
HETATM   20  F   UNL     1       9.227  20.372  53.172  1.00  0.00    -0.206 F 
HETATM   21  C   UNL     1       9.319  22.045  54.831  1.00  0.00     0.044 A 
HETATM   22  C   UNL     1       8.842  23.256  55.342  1.00  0.00     0.032 A 
ENDBRANCH  13  16
ENDBRANCH   4  12
BRANCH   1  23
HETATM   23  C   UNL     1       5.367  31.302  57.441  1.00  0.00     0.005 A 
HETATM   24  C   UNL     1       4.436  31.951  58.272  1.00  0.00     0.077 A 
HETATM   25  C   UNL     1       3.686  33.031  57.798  1.00  0.00     0.037 A 
HETATM   26  C   UNL     1       3.889  33.512  56.506  1.00  0.00     0.003 A 
HETATM   27  C   UNL     1       4.826  32.903  55.678  1.00  0.00     0.001 A 
HETATM   28  C   UNL     1       5.557  31.807  56.139  1.00  0.00     0.012 A 
BRANCH  24  29
HETATM   29  O   UNL     1       4.170  31.412  59.506  1.00  0.00    -0.351 OA
BRANCH  29  30
HETATM   30  C   UNL     1       3.230  32.190  60.256  1.00  0.00     0.171 C 
HETATM   31  C   UNL     1       3.494  31.934  61.729  1.00  0.00     0.034 C 
ENDBRANCH  29  30
ENDBRANCH  24  29
ENDBRANCH   1  23
BRANCH  10  32
HETATM   32  C   UNL     1       7.898  31.530  59.165  1.00  0.00     0.256 C 
HETATM   33  N   UNL     1       7.122  31.379  60.292  1.00  0.00    -0.323 N 
HETATM   34  H   UNL     1       6.526  30.555  60.315  1.00  0.00     0.169 HD
HETATM   35  O   UNL     1       8.727  32.395  58.916  1.00  0.00    -0.267 OA
BRANCH  33  36
HETATM   36  C   UNL     1       7.212  32.096  61.500  1.00  0.00     0.035 A 
HETATM   37  C   UNL     1       7.900  31.644  62.625  1.00  0.00     0.029 A 
HETATM   38  C   UNL     1       7.904  32.403  63.801  1.00  0.00     0.002 A 
HETATM   39  C   UNL     1       7.217  33.614  63.860  1.00  0.00     0.000 A 
HETATM   40  C   UNL     1       6.531  34.074  62.739  1.00  0.00     0.002 A 
HETATM   41  C   UNL     1       6.534  33.321  61.563  1.00  0.00     0.029 A 
ENDBRANCH  33  36
ENDBRANCH  10  32
TORSDOF 7
ENDMDL
MODEL 2
REMARK VINA RESULT:     -10.2      1.163      1.368
REMARK  7 active torsions:
REMARK  status: ('A' for Active; 'I' for Inactive)
REMARK    1  A    between atoms: C_2  and  O_3 
REMARK    2  A    between atoms: O_3  and  C_4 
REMARK    3  A    between atoms: C_5  and  C_6 
REMARK    4  A    between atoms: C_9  and  C_10 
REMARK       I    between atoms: C_10  and  N_11 
REMARK    5  A    between atoms: N_11  and  C_12 
REMARK    6  A    between atoms: C_25  and  C_26 
REMARK       I    between atoms: C_26  and  N_27 
REMARK    7  A    between atoms: N_27  and  C_28 
ROOT
HETATM    1  C   UNL     1       5.405  30.854  57.913  1.00  0.00     0.188 A 
HETATM    2  N   UNL     1       5.009  29.877  56.881  1.00  0.00    -0.239 N 
HETATM    3  C   UNL     1       5.867  28.970  56.294  1.00  0.00     0.142 A 
HETATM    4  C   UNL     1       5.104  28.258  55.390  1.00  0.00     0.097 A 
HETATM    5  C   UNL     1       3.811  28.830  55.503  1.00  0.00     0.160 A 
HETATM    6  N   UNL     1       3.733  29.770  56.446  1.00  0.00    -0.181 NA
HETATM    7  N   UNL     1       7.176  28.970  56.658  1.00  0.00    -0.343 N 
HETATM    8  C   UNL     1       7.697  29.863  57.598  1.00  0.00     0.021 A 
HETATM    9  C   UNL     1       9.168  29.763  57.910  1.00  0.00     0.069 C 
HETATM   10  C   UNL     1       6.889  30.765  58.201  1.00  0.00     0.061 A 
HETATM   11  H   UNL     1       7.871  28.437  56.137  1.00  0.00     0.167 HD
ENDROOT
BRANCH   4  12
HETATM   12  C   UNL     1       5.459  27.174  54.495  1.00  0.00     0.261 C 
HETATM   13  N   UNL     1       6.519  26.406  54.944  1.00  0.00    -0.323 N 
HETATM   14  H   UNL     1       6.882  26.650  55.858  1.00  0.00     0.169 HD
HETATM   15  O   UNL     1       4.797  26.969  53.486  1.00  0.00    -0.267 OA
BRANCH  13  16
HETATM   16  C   UNL     1       7.015  25.219  54.363  1.00  0.00     0.035 A 
HETATM   17  C   UNL     1       7.560  25.147  53.076  1.00  0.00     0.032 A 
HETATM   18  C   UNL     1       7.995  23.924  52.555  1.00  0.00     0.044 A 
HETATM   19  C   UNL     1       7.890  22.774  53.324  1.00  0.00     0.116 A 
HETATM   20  F   UNL     1       8.300  21.603  52.820  1.00  0.00    -0.206 F 
HETATM   21  C   UNL     1       7.364  22.823  54.607  1.00  0.00     0.044 A 
HETATM   22  C   UNL     1       6.927  24.046  55.127  1.00  0.00     0.032 A 
ENDBRANCH  13  16
ENDBRANCH   4  12
BRANCH   1  23
HETATM   23  C   UNL     1       4.891  32.244  57.536  1.00  0.00     0.005 A 
HETATM   24  C   UNL     1       4.199  33.082  58.428  1.00  0.00     0.077 A 
HETATM   25  C   UNL     1       3.755  34.345  58.025  1.00  0.00     0.037 A 
HETATM   26  C   UNL     1       4.037  34.810  56.741  1.00  0.00     0.003 A 
HETATM   27  C   UNL     1       4.746  34.008  55.853  1.00  0.00     0.001 A 
HETATM   28  C   UNL     1       5.167  32.736  56.244  1.00  0.00     0.012 A 
BRANCH  24  29
HETATM   29  O   UNL     1       3.837  32.580  59.654  1.00  0.00    -0.351 OA
BRANCH  29  30
HETATM   30  C   UNL     1       2.773  33.323  60.261  1.00  0.00     0.171 C 
HETATM   31  C   UNL     1       3.026  33.346  61.758  1.00  0.00     0.034 C 
ENDBRANCH  29  30
ENDBRANCH  24  29
ENDBRANCH   1  23
BRANCH  10  32
HETATM   32  C   UNL     1       7.398  31.707  59.225  1.00  0.00     0.256 C 
HETATM   33  N   UNL     1       6.669  31.632  60.390  1.00  0.00    -0.323 N 
HETATM   34  H   UNL     1       5.912  30.953  60.400  1.00  0.00     0.169 HD
HETATM   35  O   UNL     1       8.378  32.395  58.978  1.00  0.00    -0.267 OA
BRANCH  33  36
HETATM   36  C   UNL     1       6.975  32.216  61.634  1.00  0.00     0.035 A 
HETATM   37  C   UNL     1       7.802  31.626  62.589  1.00  0.00     0.029 A 
HETATM   38  C   UNL     1       8.020  32.257  63.819  1.00  0.00     0.002 A 
HETATM   39  C   UNL     1       7.411  33.477  64.103  1.00  0.00     0.000 A 
HETATM   40  C   UNL     1       6.588  34.076  63.152  1.00  0.00     0.002 A 
HETATM   41  C   UNL     1       6.376  33.450  61.922  1.00  0.00     0.029 A 
ENDBRANCH  33  36
ENDBRANCH  10  32
TORSDOF 7
ENDMDL
MODEL 3
REMARK VINA RESULT:      -9.5      2.471      3.597
REMARK  7 active torsions:
REMARK  status: ('A' for Active; 'I' for Inactive)
REMARK    1  A    between atoms: C_2  and  O_3 
REMARK    2  A    between atoms: O_3  and  C_4 
REMARK    3  A    between atoms: C_5  and  C_6 
REMARK    4  A    between atoms: C_9  and  C_10 
REMARK       I    between atoms: C_10  and  N_11 
REMARK    5  A    between atoms: N_11  and  C_12 
REMARK    6  A    between atoms: C_25  and  C_26 
REMARK       I    between atoms: C_26  and  N_27 
REMARK    7  A    between atoms: N_27  and  C_28 
ROOT
HETATM    1  C   UNL     1       4.167  32.482  59.463  1.00  0.00     0.188 A 
HETATM    2  N   UNL     1       4.224  31.559  58.313  1.00  0.00    -0.239 N 
HETATM    3  C   UNL     1       5.304  30.757  58.008  1.00  0.00     0.142 A 
HETATM    4  C   UNL     1       4.950  30.065  56.866  1.00  0.00     0.097 A 
HETATM    5  C   UNL     1       3.649  30.540  56.564  1.00  0.00     0.160 A 
HETATM    6  N   UNL     1       3.180  31.401  57.468  1.00  0.00    -0.181 NA
HETATM    7  N   UNL     1       6.412  30.817  58.792  1.00  0.00    -0.343 N 
HETATM    8  C   UNL     1       6.510  31.670  59.894  1.00  0.00     0.021 A 
HETATM    9  C   UNL     1       7.797  31.646  60.678  1.00  0.00     0.069 C 
HETATM   10  C   UNL     1       5.472  32.470  60.231  1.00  0.00     0.061 A 
HETATM   11  H   UNL     1       7.284  30.372  58.511  1.00  0.00     0.167 HD
ENDROOT
BRANCH   4  12
HETATM   12  C   UNL     1       5.676  29.076  56.093  1.00  0.00     0.261 C 
HETATM   13  N   UNL     1       4.966  27.910  55.874  1.00  0.00    -0.323 N 
HETATM   14  H   UNL     1       4.015  27.902  56.223  1.00  0.00     0.169 HD
HETATM   15  O   UNL     1       6.785  29.340  55.646  1.00  0.00    -0.267 OA
BRANCH  13  16
HETATM   16  C   UNL     1       5.349  26.821  55.061  1.00  0.00     0.035 A 
HETATM   17  C   UNL     1       4.998  26.692  53.712  1.00  0.00     0.032 A 
HETATM   18  C   UNL     1       5.384  25.563  52.981  1.00  0.00     0.044 A 
HETATM   19  C   UNL     1       6.125  24.566  53.599  1.00  0.00     0.116 A 
HETATM   20  F   UNL     1       6.487  23.482  52.900  1.00  0.00    -0.206 F 
HETATM   21  C   UNL     1       6.494  24.678  54.932  1.00  0.00     0.044 A 
HETATM   22  C   UNL     1       6.107  25.806  55.663  1.00  0.00     0.032 A 
ENDBRANCH  13  16
ENDBRANCH   4  12
BRANCH   1  23
HETATM   23  C   UNL     1       3.689  33.859  59.001  1.00  0.00     0.005 A 
HETATM   24  C   UNL     1       2.533  34.484  59.501  1.00  0.00     0.077 A 
HETATM   25  C   UNL     1       2.146  35.747  59.039  1.00  0.00     0.037 A 
HETATM   26  C   UNL     1       2.935  36.424  58.110  1.00  0.00     0.003 A 
HETATM   27  C   UNL     1       4.097  35.835  57.626  1.00  0.00     0.001 A 
HETATM   28  C   UNL     1       4.471  34.564  58.064  1.00  0.00     0.012 A 
BRANCH  24  29
HETATM   29  O   UNL     1       1.709  33.772  60.337  1.00  0.00    -0.351 OA
BRANCH  29  30
HETATM   30  C   UNL     1       1.168  34.575  61.393  1.00  0.00     0.171 C 
HETATM   31  C   UNL     1       2.171  34.573  62.532  1.00  0.00     0.034 C 
ENDBRANCH  29  30
ENDBRANCH  24  29
ENDBRANCH   1  23
BRANCH  10  32
HETATM   32  C   UNL     1       5.528  33.365  61.410  1.00  0.00     0.256 C 
HETATM   33  N   UNL     1       5.405  32.662  62.587  1.00  0.00    -0.323 N 
HETATM   34  H   UNL     1       5.311  31.653  62.495  1.00  0.00     0.169 HD
HETATM   35  O   UNL     1       5.704  34.565  61.249  1.00  0.00    -0.267 OA
BRANCH  33  36
HETATM   36  C   UNL     1       5.612  33.135  63.896  1.00  0.00     0.035 A 
HETATM   37  C   UNL     1       4.584  33.456  64.781  1.00  0.00     0.029 A 
HETATM   38  C   UNL     1       4.879  33.961  66.052  1.00  0.00     0.002 A 
HETATM   39  C   UNL     1       6.202  34.151  66.445  1.00  0.00     0.000 A 
HETATM   40  C   UNL     1       7.235  33.827  65.569  1.00  0.00     0.002 A 
HETATM   41  C   UNL     1       6.941  33.317  64.303  1.00  0.00     0.029 A 
ENDBRANCH  33  36
ENDBRANCH  10  32
TORSDOF 7
ENDMDL
MODEL 4
REMARK VINA RESULT:      -9.4      5.044      9.014
REMARK  7 active torsions:
REMARK  status: ('A' for Active; 'I' for Inactive)
REMARK    1  A    between atoms: C_2  and  O_3 
REMARK    2  A    between atoms: O_3  and  C_4 
REMARK    3  A    between atoms: C_5  and  C_6 
REMARK    4  A    between atoms: C_9  and  C_10 
REMARK       I    between atoms: C_10  and  N_11 
REMARK    5  A    between atoms: N_11  and  C_12 
REMARK    6  A    between atoms: C_25  and  C_26 
REMARK       I    between atoms: C_26  and  N_27 
REMARK    7  A    between atoms: N_27  and  C_28 
ROOT
HETATM    1  C   UNL     1       6.082  26.915  54.525  1.00  0.00     0.188 A 
HETATM    2  N   UNL     1       5.310  27.792  53.623  1.00  0.00    -0.239 N 
HETATM    3  C   UNL     1       5.190  27.600  52.261  1.00  0.00     0.142 A 
HETATM    4  C   UNL     1       4.399  28.635  51.803  1.00  0.00     0.097 A 
HETATM    5  C   UNL     1       4.115  29.395  52.965  1.00  0.00     0.160 A 
HETATM    6  N   UNL     1       4.615  28.858  54.079  1.00  0.00    -0.181 NA
HETATM    7  N   UNL     1       5.834  26.552  51.684  1.00  0.00    -0.343 N 
HETATM    8  C   UNL     1       6.628  25.662  52.412  1.00  0.00     0.021 A 
HETATM    9  C   UNL     1       7.294  24.544  51.651  1.00  0.00     0.069 C 
HETATM   10  C   UNL     1       6.768  25.811  53.749  1.00  0.00     0.061 A 
HETATM   11  H   UNL     1       5.909  26.469  50.671  1.00  0.00     0.167 HD
ENDROOT
BRANCH   4  12
HETATM   12  C   UNL     1       3.928  28.947  50.467  1.00  0.00     0.261 C 
HETATM   13  N   UNL     1       2.866  28.162  50.053  1.00  0.00    -0.323 N 
HETATM   14  H   UNL     1       2.509  27.509  50.740  1.00  0.00     0.169 HD
HETATM   15  O   UNL     1       4.421  29.879  49.845  1.00  0.00    -0.267 OA
BRANCH  13  16
HETATM   16  C   UNL     1       2.115  28.305  48.867  1.00  0.00     0.035 A 
HETATM   17  C   UNL     1       1.459  29.484  48.495  1.00  0.00     0.032 A 
HETATM   18  C   UNL     1       0.700  29.537  47.320  1.00  0.00     0.044 A 
HETATM   19  C   UNL     1       0.604  28.411  46.515  1.00  0.00     0.116 A 
HETATM   20  F   UNL     1      -0.129  28.461  45.396  1.00  0.00    -0.206 F 
HETATM   21  C   UNL     1       1.256  27.235  46.858  1.00  0.00     0.044 A 
HETATM   22  C   UNL     1       2.012  27.182  48.033  1.00  0.00     0.032 A 
ENDBRANCH  13  16
ENDBRANCH   4  12
BRANCH   1  23
HETATM   23  C   UNL     1       6.996  27.761  55.413  1.00  0.00     0.005 A 
HETATM   24  C   UNL     1       6.883  27.812  56.813  1.00  0.00     0.077 A 
HETATM   25  C   UNL     1       7.750  28.604  57.573  1.00  0.00     0.037 A 
HETATM   26  C   UNL     1       8.773  29.317  56.950  1.00  0.00     0.003 A 
HETATM   27  C   UNL     1       8.920  29.256  55.569  1.00  0.00     0.001 A 
HETATM   28  C   UNL     1       8.039  28.488  54.806  1.00  0.00     0.012 A 
BRANCH  24  29
HETATM   29  O   UNL     1       5.814  27.189  57.409  1.00  0.00    -0.351 OA
BRANCH  29  30
HETATM   30  C   UNL     1       6.053  25.798  57.656  1.00  0.00     0.171 C 
HETATM   31  C   UNL     1       4.809  25.037  57.234  1.00  0.00     0.034 C 
ENDBRANCH  29  30
ENDBRANCH  24  29
ENDBRANCH   1  23
BRANCH  10  32
HETATM   32  C   UNL     1       7.576  24.869  54.559  1.00  0.00     0.256 C 
HETATM   33  N   UNL     1       6.996  23.622  54.615  1.00  0.00    -0.323 N 
HETATM   34  H   UNL     1       6.127  23.511  54.098  1.00  0.00     0.169 HD
HETATM   35  O   UNL     1       8.635  25.244  55.042  1.00  0.00    -0.267 OA
BRANCH  33  36
HETATM   36  C   UNL     1       7.563  22.432  55.111  1.00  0.00     0.035 A 
HETATM   37  C   UNL     1       7.891  22.225  56.450  1.00  0.00     0.029 A 
HETATM   38  C   UNL     1       8.490  21.026  56.851  1.00  0.00     0.002 A 
HETATM   39  C   UNL     1       8.769  20.030  55.917  1.00  0.00     0.000 A 
HETATM   40  C   UNL     1       8.439  20.228  54.578  1.00  0.00     0.002 A 
HETATM   41  C   UNL     1       7.834  21.422  54.179  1.00  0.00     0.029 A 
ENDBRANCH  33  36
ENDBRANCH  10  32
TORSDOF 7
ENDMDL
MODEL 5
REMARK VINA RESULT:      -9.3      1.823      4.320
REMARK  7 active torsions:
REMARK  status: ('A' for Active; 'I' for Inactive)
REMARK    1  A    between atoms: C_2  and  O_3 
REMARK    2  A    between atoms: O_3  and  C_4 
REMARK    3  A    between atoms: C_5  and  C_6 
REMARK    4  A    between atoms: C_9  and  C_10 
REMARK       I    between atoms: C_10  and  N_11 
REMARK    5  A    between atoms: N_11  and  C_12 
REMARK    6  A    between atoms: C_25  and  C_26 
REMARK       I    between atoms: C_26  and  N_27 
REMARK    7  A    between atoms: N_27  and  C_28 
ROOT
HETATM    1  C   UNL     1       7.051  31.147  58.262  1.00  0.00     0.188 A 
HETATM    2  N   UNL     1       7.381  29.770  57.847  1.00  0.00    -0.239 N 
HETATM    3  C   UNL     1       6.462  28.855  57.374  1.00  0.00     0.142 A 
HETATM    4  C   UNL     1       7.178  27.704  57.110  1.00  0.00     0.097 A 
HETATM    5  C   UNL     1       8.508  28.032  57.476  1.00  0.00     0.160 A 
HETATM    6  N   UNL     1       8.648  29.299  57.868  1.00  0.00    -0.181 NA
HETATM    7  N   UNL     1       5.155  29.215  57.295  1.00  0.00    -0.343 N 
HETATM    8  C   UNL     1       4.695  30.475  57.685  1.00  0.00     0.021 A 
HETATM    9  C   UNL     1       3.218  30.747  57.553  1.00  0.00     0.069 C 
HETATM   10  C   UNL     1       5.562  31.403  58.151  1.00  0.00     0.061 A 
HETATM   11  H   UNL     1       4.426  28.527  57.111  1.00  0.00     0.167 HD
ENDROOT
BRANCH   4  12
HETATM   12  C   UNL     1       6.750  26.420  56.589  1.00  0.00     0.261 C 
HETATM   13  N   UNL     1       7.721  25.767  55.851  1.00  0.00    -0.323 N 
HETATM   14  H   UNL     1       8.623  26.225  55.808  1.00  0.00     0.169 HD
HETATM   15  O   UNL     1       5.642  25.982  56.871  1.00  0.00    -0.267 OA
BRANCH  13  16
HETATM   16  C   UNL     1       7.651  24.460  55.322  1.00  0.00     0.035 A 
HETATM   17  C   UNL     1       7.706  23.299  56.102  1.00  0.00     0.032 A 
HETATM   18  C   UNL     1       7.670  22.035  55.500  1.00  0.00     0.044 A 
HETATM   19  C   UNL     1       7.574  21.935  54.120  1.00  0.00     0.116 A 
HETATM   20  F   UNL     1       7.547  20.726  53.545  1.00  0.00    -0.206 F 
HETATM   21  C   UNL     1       7.506  23.073  53.329  1.00  0.00     0.044 A 
HETATM   22  C   UNL     1       7.544  24.336  53.930  1.00  0.00     0.032 A 
ENDBRANCH  13  16
ENDBRANCH   4  12
BRANCH   1  23
HETATM   23  C   UNL     1       7.667  31.438  59.631  1.00  0.00     0.005 A 
HETATM   24  C   UNL     1       8.914  32.065  59.801  1.00  0.00     0.077 A 
HETATM   25  C   UNL     1       9.426  32.305  61.080  1.00  0.00     0.037 A 
HETATM   26  C   UNL     1       8.678  31.970  62.208  1.00  0.00     0.003 A 
HETATM   27  C   UNL     1       7.429  31.377  62.061  1.00  0.00     0.001 A 
HETATM   28  C   UNL     1       6.928  31.110  60.786  1.00  0.00     0.012 A 
BRANCH  24  29
HETATM   29  O   UNL     1       9.688  32.300  58.691  1.00  0.00    -0.351 OA
BRANCH  29  30
HETATM   30  C   UNL     1      10.885  31.512  58.677  1.00  0.00     0.171 C 
HETATM   31  C   UNL     1      10.924  30.761  57.358  1.00  0.00     0.034 C 
ENDBRANCH  29  30
ENDBRANCH  24  29
ENDBRANCH   1  23
BRANCH  10  32
HETATM   32  C   UNL     1       5.116  32.760  58.546  1.00  0.00     0.256 C 
HETATM   33  N   UNL     1       4.507  32.754  59.780  1.00  0.00    -0.323 N 
HETATM   34  H   UNL     1       4.459  31.853  60.249  1.00  0.00     0.169 HD
HETATM   35  O   UNL     1       5.345  33.708  57.809  1.00  0.00    -0.267 OA
BRANCH  33  36
HETATM   36  C   UNL     1       4.143  33.865  60.564  1.00  0.00     0.035 A 
HETATM   37  C   UNL     1       2.898  34.490  60.500  1.00  0.00     0.029 A 
HETATM   38  C   UNL     1       2.634  35.617  61.285  1.00  0.00     0.002 A 
HETATM   39  C   UNL     1       3.612  36.129  62.135  1.00  0.00     0.000 A 
HETATM   40  C   UNL     1       4.856  35.507  62.210  1.00  0.00     0.002 A 
HETATM   41  C   UNL     1       5.117  34.377  61.431  1.00  0.00     0.029 A 
ENDBRANCH  33  36
ENDBRANCH  10  32
TORSDOF 7
ENDMDL
MODEL 6
REMARK VINA RESULT:      -9.3      2.125      5.004
REMARK  7 active torsions:
REMARK  status: ('A' for Active; 'I' for Inactive)
REMARK    1  A    between atoms: C_2  and  O_3 
REMARK    2  A    between atoms: O_3  and  C_4 
REMARK    3  A    between atoms: C_5  and  C_6 
REMARK    4  A    between atoms: C_9  and  C_10 
REMARK       I    between atoms: C_10  and  N_11 
REMARK    5  A    between atoms: N_11  and  C_12 
REMARK    6  A    between atoms: C_25  and  C_26 
REMARK       I    between atoms: C_26  and  N_27 
REMARK    7  A    between atoms: N_27  and  C_28 
ROOT
HETATM    1  C   UNL     1       5.740  30.657  56.679  1.00  0.00     0.188 A 
HETATM    2  N   UNL     1       6.210  29.271  56.868  1.00  0.00    -0.239 N 
HETATM    3  C   UNL     1       5.900  28.220  56.029  1.00  0.00     0.142 A 
HETATM    4  C   UNL     1       6.529  27.113  56.564  1.00  0.00     0.097 A 
HETATM    5  C   UNL     1       7.172  27.608  57.727  1.00  0.00     0.160 A 
HETATM    6  N   UNL     1       7.031  28.925  57.885  1.00  0.00    -0.181 NA
HETATM    7  N   UNL     1       5.091  28.445  54.961  1.00  0.00    -0.343 N 
HETATM    8  C   UNL     1       4.545  29.700  54.680  1.00  0.00     0.021 A 
HETATM    9  C   UNL     1       3.657  29.815  53.468  1.00  0.00     0.069 C 
HETATM   10  C   UNL     1       4.827  30.759  55.474  1.00  0.00     0.061 A 
HETATM   11  H   UNL     1       4.706  27.675  54.417  1.00  0.00     0.167 HD
ENDROOT
BRANCH   4  12
HETATM   12  C   UNL     1       6.571  25.736  56.112  1.00  0.00     0.261 C 
HETATM   13  N   UNL     1       7.598  25.472  55.223  1.00  0.00    -0.323 N 
HETATM   14  H   UNL     1       8.227  26.244  55.037  1.00  0.00     0.169 HD
HETATM   15  O   UNL     1       5.784  24.917  56.568  1.00  0.00    -0.267 OA
BRANCH  13  16
HETATM   16  C   UNL     1       7.973  24.213  54.706  1.00  0.00     0.035 A 
HETATM   17  C   UNL     1       8.755  23.285  55.402  1.00  0.00     0.032 A 
HETATM   18  C   UNL     1       9.118  22.071  54.807  1.00  0.00     0.044 A 
HETATM   19  C   UNL     1       8.694  21.786  53.517  1.00  0.00     0.116 A 
HETATM   20  F   UNL     1       9.049  20.628  52.946  1.00  0.00    -0.206 F 
HETATM   21  C   UNL     1       7.908  22.687  52.813  1.00  0.00     0.044 A 
HETATM   22  C   UNL     1       7.546  23.900  53.407  1.00  0.00     0.032 A 
ENDBRANCH  13  16
ENDBRANCH   4  12
BRANCH   1  23
HETATM   23  C   UNL     1       5.159  31.192  57.989  1.00  0.00     0.005 A 
HETATM   24  C   UNL     1       5.853  32.068  58.842  1.00  0.00     0.077 A 
HETATM   25  C   UNL     1       5.269  32.524  60.028  1.00  0.00     0.037 A 
HETATM   26  C   UNL     1       3.966  32.151  60.355  1.00  0.00     0.003 A 
HETATM   27  C   UNL     1       3.252  31.308  59.509  1.00  0.00     0.001 A 
HETATM   28  C   UNL     1       3.843  30.830  58.339  1.00  0.00     0.012 A 
BRANCH  24  29
HETATM   29  O   UNL     1       7.168  32.350  58.566  1.00  0.00    -0.351 OA
BRANCH  29  30
HETATM   30  C   UNL     1       8.044  32.002  59.644  1.00  0.00     0.171 C 
HETATM   31  C   UNL     1       9.366  31.565  59.039  1.00  0.00     0.034 C 
ENDBRANCH  29  30
ENDBRANCH  24  29
ENDBRANCH   1  23
BRANCH  10  32
HETATM   32  C   UNL     1       4.292  32.111  55.190  1.00  0.00     0.256 C 
HETATM   33  N   UNL     1       2.961  32.211  55.529  1.00  0.00    -0.323 N 
HETATM   34  H   UNL     1       2.540  31.377  55.930  1.00  0.00     0.169 HD
HETATM   35  O   UNL     1       5.036  32.974  54.746  1.00  0.00    -0.267 OA
BRANCH  33  36
HETATM   36  C   UNL     1       2.177  33.378  55.594  1.00  0.00     0.035 A 
HETATM   37  C   UNL     1       2.386  34.408  56.511  1.00  0.00     0.029 A 
HETATM   38  C   UNL     1       1.532  35.515  56.534  1.00  0.00     0.002 A 
HETATM   39  C   UNL     1       0.462  35.599  55.645  1.00  0.00     0.000 A 
HETATM   40  C   UNL     1       0.249  34.577  54.723  1.00  0.00     0.002 A 
HETATM   41  C   UNL     1       1.107  33.475  54.695  1.00  0.00     0.029 A 
ENDBRANCH  33  36
ENDBRANCH  10  32
TORSDOF 7
ENDMDL
MODEL 7
REMARK VINA RESULT:      -9.3      6.820     10.311
REMARK  7 active torsions:
REMARK  status: ('A' for Active; 'I' for Inactive)
REMARK    1  A    between atoms: C_2  and  O_3 
REMARK    2  A    between atoms: O_3  and  C_4 
REMARK    3  A    between atoms: C_5  and  C_6 
REMARK    4  A    between atoms: C_9  and  C_10 
REMARK       I    between atoms: C_10  and  N_11 
REMARK    5  A    between atoms: N_11  and  C_12 
REMARK    6  A    between atoms: C_25  and  C_26 
REMARK       I    between atoms: C_26  and  N_27 
REMARK    7  A    between atoms: N_27  and  C_28 
ROOT
HETATM    1  C   UNL     1       4.768  28.375  49.797  1.00  0.00     0.188 A 
HETATM    2  N   UNL     1       5.330  27.770  51.020  1.00  0.00    -0.239 N 
HETATM    3  C   UNL     1       5.258  26.427  51.330  1.00  0.00     0.142 A 
HETATM    4  C   UNL     1       5.894  26.288  52.548  1.00  0.00     0.097 A 
HETATM    5  C   UNL     1       6.291  27.606  52.884  1.00  0.00     0.160 A 
HETATM    6  N   UNL     1       6.005  28.500  51.936  1.00  0.00    -0.181 NA
HETATM    7  N   UNL     1       4.614  25.587  50.479  1.00  0.00    -0.343 N 
HETATM    8  C   UNL     1       4.006  26.028  49.301  1.00  0.00     0.021 A 
HETATM    9  C   UNL     1       3.318  24.995  48.447  1.00  0.00     0.069 C 
HETATM   10  C   UNL     1       4.056  27.335  48.957  1.00  0.00     0.061 A 
HETATM   11  H   UNL     1       4.395  24.628  50.746  1.00  0.00     0.167 HD
ENDROOT
BRANCH   4  12
HETATM   12  C   UNL     1       6.137  25.112  53.362  1.00  0.00     0.261 C 
HETATM   13  N   UNL     1       7.320  24.461  53.061  1.00  0.00    -0.323 N 
HETATM   14  H   UNL     1       7.899  24.905  52.358  1.00  0.00     0.169 HD
HETATM   15  O   UNL     1       5.361  24.818  54.262  1.00  0.00    -0.267 OA
BRANCH  13  16
HETATM   16  C   UNL     1       7.890  23.370  53.752  1.00  0.00     0.035 A 
HETATM   17  C   UNL     1       7.966  22.072  53.235  1.00  0.00     0.032 A 
HETATM   18  C   UNL     1       8.511  21.033  53.997  1.00  0.00     0.044 A 
HETATM   19  C   UNL     1       8.984  21.294  55.275  1.00  0.00     0.116 A 
HETATM   20  F   UNL     1       9.498  20.297  56.006  1.00  0.00    -0.206 F 
HETATM   21  C   UNL     1       8.930  22.576  55.803  1.00  0.00     0.044 A 
HETATM   22  C   UNL     1       8.383  23.614  55.042  1.00  0.00     0.032 A 
ENDBRANCH  13  16
ENDBRANCH   4  12
BRANCH   1  23
HETATM   23  C   UNL     1       3.936  29.606  50.161  1.00  0.00     0.005 A 
HETATM   24  C   UNL     1       4.277  30.913  49.770  1.00  0.00     0.077 A 
HETATM   25  C   UNL     1       3.475  32.000  50.134  1.00  0.00     0.037 A 
HETATM   26  C   UNL     1       2.297  31.793  50.850  1.00  0.00     0.003 A 
HETATM   27  C   UNL     1       1.928  30.504  51.221  1.00  0.00     0.001 A 
HETATM   28  C   UNL     1       2.740  29.421  50.883  1.00  0.00     0.012 A 
BRANCH  24  29
HETATM   29  O   UNL     1       5.486  31.121  49.154  1.00  0.00    -0.351 OA
BRANCH  29  30
HETATM   30  C   UNL     1       6.117  32.336  49.575  1.00  0.00     0.171 C 
HETATM   31  C   UNL     1       6.538  33.090  48.326  1.00  0.00     0.034 C 
ENDBRANCH  29  30
ENDBRANCH  24  29
ENDBRANCH   1  23
BRANCH  10  32
HETATM   32  C   UNL     1       3.449  27.835  47.701  1.00  0.00     0.256 C 
HETATM   33  N   UNL     1       2.074  27.770  47.741  1.00  0.00    -0.323 N 
HETATM   34  H   UNL     1       1.670  27.415  48.604  1.00  0.00     0.169 HD
HETATM   35  O   UNL     1       4.170  28.267  46.813  1.00  0.00    -0.267 OA
BRANCH  33  36
HETATM   36  C   UNL     1       1.161  28.335  46.831  1.00  0.00     0.035 A 
HETATM   37  C   UNL     1       1.039  29.704  46.597  1.00  0.00     0.029 A 
HETATM   38  C   UNL     1       0.074  30.184  45.705  1.00  0.00     0.002 A 
HETATM   39  C   UNL     1      -0.776  29.300  45.045  1.00  0.00     0.000 A 
HETATM   40  C   UNL     1      -0.657  27.931  45.268  1.00  0.00     0.002 A 
HETATM   41  C   UNL     1       0.311  27.451  46.153  1.00  0.00     0.029 A 
ENDBRANCH  33  36
ENDBRANCH  10  32
TORSDOF 7
ENDMDL
MODEL 8
REMARK VINA RESULT:      -9.2      4.537     10.257
REMARK  7 active torsions:
REMARK  status: ('A' for Active; 'I' for Inactive)
REMARK    1  A    between atoms: C_2  and  O_3 
REMARK    2  A    between atoms: O_3  and  C_4 
REMARK    3  A    between atoms: C_5  and  C_6 
REMARK    4  A    between atoms: C_9  and  C_10 
REMARK       I    between atoms: C_10  and  N_11 
REMARK    5  A    between atoms: N_11  and  C_12 
REMARK    6  A    between atoms: C_25  and  C_26 
REMARK       I    between atoms: C_26  and  N_27 
REMARK    7  A    between atoms: N_27  and  C_28 
ROOT
HETATM    1  C   UNL     1       4.302  28.288  54.187  1.00  0.00     0.188 A 
HETATM    2  N   UNL     1       4.706  28.864  55.484  1.00  0.00    -0.239 N 
HETATM    3  C   UNL     1       4.861  30.214  55.724  1.00  0.00     0.142 A 
HETATM    4  C   UNL     1       5.249  30.320  57.045  1.00  0.00     0.097 A 
HETATM    5  C   UNL     1       5.313  28.977  57.495  1.00  0.00     0.160 A 
HETATM    6  N   UNL     1       4.929  28.094  56.572  1.00  0.00    -0.181 NA
HETATM    7  N   UNL     1       4.654  31.093  54.709  1.00  0.00    -0.343 N 
HETATM    8  C   UNL     1       4.299  30.686  53.420  1.00  0.00     0.021 A 
HETATM    9  C   UNL     1       4.104  31.760  52.382  1.00  0.00     0.069 C 
HETATM   10  C   UNL     1       4.133  29.372  53.143  1.00  0.00     0.061 A 
HETATM   11  H   UNL     1       4.915  32.074  54.796  1.00  0.00     0.167 HD
ENDROOT
BRANCH   4  12
HETATM   12  C   UNL     1       5.547  31.485  57.856  1.00  0.00     0.261 C 
HETATM   13  N   UNL     1       5.419  31.265  59.216  1.00  0.00    -0.323 N 
HETATM   14  H   UNL     1       5.192  30.316  59.488  1.00  0.00     0.169 HD
HETATM   15  O   UNL     1       5.938  32.517  57.326  1.00  0.00    -0.267 OA
BRANCH  13  16
HETATM   16  C   UNL     1       5.755  32.157  60.257  1.00  0.00     0.035 A 
HETATM   17  C   UNL     1       7.033  32.254  60.819  1.00  0.00     0.032 A 
HETATM   18  C   UNL     1       7.280  33.138  61.877  1.00  0.00     0.044 A 
HETATM   19  C   UNL     1       6.249  33.926  62.367  1.00  0.00     0.116 A 
HETATM   20  F   UNL     1       6.485  34.764  63.384  1.00  0.00    -0.206 F 
HETATM   21  C   UNL     1       4.977  33.854  61.817  1.00  0.00     0.044 A 
HETATM   22  C   UNL     1       4.730  32.971  60.761  1.00  0.00     0.032 A 
ENDBRANCH  13  16
ENDBRANCH   4  12
BRANCH   1  23
HETATM   23  C   UNL     1       5.250  27.151  53.805  1.00  0.00     0.005 A 
HETATM   24  C   UNL     1       6.649  27.290  53.769  1.00  0.00     0.077 A 
HETATM   25  C   UNL     1       7.466  26.212  53.412  1.00  0.00     0.037 A 
HETATM   26  C   UNL     1       6.902  24.968  53.135  1.00  0.00     0.003 A 
HETATM   27  C   UNL     1       5.523  24.803  53.194  1.00  0.00     0.001 A 
HETATM   28  C   UNL     1       4.704  25.884  53.523  1.00  0.00     0.012 A 
BRANCH  24  29
HETATM   29  O   UNL     1       7.190  28.540  53.944  1.00  0.00    -0.351 OA
BRANCH  29  30
HETATM   30  C   UNL     1       8.537  28.494  54.429  1.00  0.00     0.171 C 
HETATM   31  C   UNL     1       8.517  28.937  55.881  1.00  0.00     0.034 C 
ENDBRANCH  29  30
ENDBRANCH  24  29
ENDBRANCH   1  23
BRANCH  10  32
HETATM   32  C   UNL     1       3.728  28.905  51.796  1.00  0.00     0.256 C 
HETATM   33  N   UNL     1       4.820  28.591  51.019  1.00  0.00    -0.323 N 
HETATM   34  H   UNL     1       5.729  28.703  51.461  1.00  0.00     0.169 HD
HETATM   35  O   UNL     1       2.540  28.808  51.523  1.00  0.00    -0.267 OA
BRANCH  33  36
HETATM   36  C   UNL     1       4.828  27.932  49.775  1.00  0.00     0.035 A 
HETATM   37  C   UNL     1       4.393  26.621  49.585  1.00  0.00     0.029 A 
HETATM   38  C   UNL     1       4.475  26.027  48.321  1.00  0.00     0.002 A 
HETATM   39  C   UNL     1       4.996  26.737  47.241  1.00  0.00     0.000 A 
HETATM   40  C   UNL     1       5.427  28.049  47.421  1.00  0.00     0.002 A 
HETATM   41  C   UNL     1       5.338  28.644  48.682  1.00  0.00     0.029 A 
ENDBRANCH  33  36
ENDBRANCH  10  32
TORSDOF 7
ENDMDL
MODEL 9
REMARK VINA RESULT:      -9.0      2.711      4.341
REMARK  7 active torsions:
REMARK  status: ('A' for Active; 'I' for Inactive)
REMARK    1  A    between atoms: C_2  and  O_3 
REMARK    2  A    between atoms: O_3  and  C_4 
REMARK    3  A    between atoms: C_5  and  C_6 
REMARK    4  A    between atoms: C_9  and  C_10 
REMARK       I    between atoms: C_10  and  N_11 
REMARK    5  A    between atoms: N_11  and  C_12 
REMARK    6  A    between atoms: C_25  and  C_26 
REMARK       I    between atoms: C_26  and  N_27 
REMARK    7  A    between atoms: N_27  and  C_28 
ROOT
HETATM    1  C   UNL     1       4.149  32.517  60.163  1.00  0.00     0.188 A 
HETATM    2  N   UNL     1       4.196  31.635  58.981  1.00  0.00    -0.239 N 
HETATM    3  C   UNL     1       5.351  31.093  58.457  1.00  0.00     0.142 A 
HETATM    4  C   UNL     1       4.955  30.345  57.365  1.00  0.00     0.097 A 
HETATM    5  C   UNL     1       3.550  30.521  57.317  1.00  0.00     0.160 A 
HETATM    6  N   UNL     1       3.076  31.253  58.327  1.00  0.00    -0.181 NA
HETATM    7  N   UNL     1       6.543  31.394  59.036  1.00  0.00    -0.343 N 
HETATM    8  C   UNL     1       6.651  32.243  60.140  1.00  0.00     0.021 A 
HETATM    9  C   UNL     1       8.032  32.501  60.685  1.00  0.00     0.069 C 
HETATM   10  C   UNL     1       5.543  32.792  60.688  1.00  0.00     0.061 A 
HETATM   11  H   UNL     1       7.426  31.154  58.587  1.00  0.00     0.167 HD
ENDROOT
BRANCH   4  12
HETATM   12  C   UNL     1       5.727  29.544  56.434  1.00  0.00     0.261 C 
HETATM   13  N   UNL     1       4.988  28.563  55.798  1.00  0.00    -0.323 N 
HETATM   14  H   UNL     1       3.997  28.553  56.009  1.00  0.00     0.169 HD
HETATM   15  O   UNL     1       6.903  29.811  56.225  1.00  0.00    -0.267 OA
BRANCH  13  16
HETATM   16  C   UNL     1       5.421  27.713  54.758  1.00  0.00     0.035 A 
HETATM   17  C   UNL     1       5.609  28.131  53.435  1.00  0.00     0.032 A 
HETATM   18  C   UNL     1       6.003  27.219  52.450  1.00  0.00     0.044 A 
HETATM   19  C   UNL     1       6.215  25.890  52.789  1.00  0.00     0.116 A 
HETATM   20  F   UNL     1       6.584  25.017  51.844  1.00  0.00    -0.206 F 
HETATM   21  C   UNL     1       6.045  25.456  54.097  1.00  0.00     0.044 A 
HETATM   22  C   UNL     1       5.650  26.368  55.081  1.00  0.00     0.032 A 
ENDBRANCH  13  16
ENDBRANCH   4  12
BRANCH   1  23
HETATM   23  C   UNL     1       3.309  33.757  59.853  1.00  0.00     0.005 A 
HETATM   24  C   UNL     1       3.581  34.628  58.784  1.00  0.00     0.077 A 
HETATM   25  C   UNL     1       2.775  35.746  58.549  1.00  0.00     0.037 A 
HETATM   26  C   UNL     1       1.657  35.984  59.348  1.00  0.00     0.003 A 
HETATM   27  C   UNL     1       1.354  35.117  60.393  1.00  0.00     0.001 A 
HETATM   28  C   UNL     1       2.173  34.016  60.646  1.00  0.00     0.012 A 
BRANCH  24  29
HETATM   29  O   UNL     1       4.737  34.446  58.065  1.00  0.00    -0.351 OA
BRANCH  29  30
HETATM   30  C   UNL     1       4.494  34.279  56.663  1.00  0.00     0.171 C 
HETATM   31  C   UNL     1       5.139  35.450  55.944  1.00  0.00     0.034 C 
ENDBRANCH  29  30
ENDBRANCH  24  29
ENDBRANCH   1  23
BRANCH  10  32
HETATM   32  C   UNL     1       5.615  33.672  61.878  1.00  0.00     0.256 C 
HETATM   33  N   UNL     1       5.447  32.962  63.045  1.00  0.00    -0.323 N 
HETATM   34  H   UNL     1       5.316  31.959  62.942  1.00  0.00     0.169 HD
HETATM   35  O   UNL     1       5.840  34.865  61.733  1.00  0.00    -0.267 OA
BRANCH  33  36
HETATM   36  C   UNL     1       5.653  33.414  64.363  1.00  0.00     0.035 A 
HETATM   37  C   UNL     1       6.910  33.557  64.950  1.00  0.00     0.029 A 
HETATM   38  C   UNL     1       7.023  33.972  66.281  1.00  0.00     0.002 A 
HETATM   39  C   UNL     1       5.882  34.244  67.034  1.00  0.00     0.000 A 
HETATM   40  C   UNL     1       4.623  34.109  66.453  1.00  0.00     0.002 A 
HETATM   41  C   UNL     1       4.511  33.701  65.122  1.00  0.00     0.029 A 
ENDBRANCH  33  36
ENDBRANCH  10  32
TORSDOF 7
ENDMDL
MODEL 10
REMARK VINA RESULT:      -8.9      6.207      9.716
REMARK  7 active torsions:
REMARK  status: ('A' for Active; 'I' for Inactive)
REMARK    1  A    between atoms: C_2  and  O_3 
REMARK    2  A    between atoms: O_3  and  C_4 
REMARK    3  A    between atoms: C_5  and  C_6 
REMARK    4  A    between atoms: C_9  and  C_10 
REMARK       I    between atoms: C_10  and  N_11 
REMARK    5  A    between atoms: N_11  and  C_12 
REMARK    6  A    between atoms: C_25  and  C_26 
REMARK       I    between atoms: C_26  and  N_27 
REMARK    7  A    between atoms: N_27  and  C_28 
ROOT
HETATM    1  C   UNL     1       4.997  29.562  50.527  1.00  0.00     0.188 A 
HETATM    2  N   UNL     1       5.508  28.483  51.394  1.00  0.00    -0.239 N 
HETATM    3  C   UNL     1       5.160  27.153  51.273  1.00  0.00     0.142 A 
HETATM    4  C   UNL     1       5.847  26.491  52.271  1.00  0.00     0.097 A 
HETATM    5  C   UNL     1       6.560  27.518  52.940  1.00  0.00     0.160 A 
HETATM    6  N   UNL     1       6.405  28.718  52.378  1.00  0.00    -0.181 NA
HETATM    7  N   UNL     1       4.272  26.789  50.311  1.00  0.00    -0.343 N 
HETATM    8  C   UNL     1       3.683  27.710  49.441  1.00  0.00     0.021 A 
HETATM    9  C   UNL     1       2.709  27.177  48.422  1.00  0.00     0.069 C 
HETATM   10  C   UNL     1       3.999  29.023  49.523  1.00  0.00     0.061 A 
HETATM   11  H   UNL     1       3.864  25.855  50.293  1.00  0.00     0.167 HD
ENDROOT
BRANCH   4  12
HETATM   12  C   UNL     1       5.884  25.085  52.625  1.00  0.00     0.261 C 
HETATM   13  N   UNL     1       7.083  24.683  53.186  1.00  0.00    -0.323 N 
HETATM   14  H   UNL     1       7.766  25.416  53.336  1.00  0.00     0.169 HD
HETATM   15  O   UNL     1       4.887  24.390  52.479  1.00  0.00    -0.267 OA
BRANCH  13  16
HETATM   16  C   UNL     1       7.380  23.420  53.742  1.00  0.00     0.035 A 
HETATM   17  C   UNL     1       7.285  23.126  55.107  1.00  0.00     0.032 A 
HETATM   18  C   UNL     1       7.635  21.859  55.587  1.00  0.00     0.044 A 
HETATM   19  C   UNL     1       8.075  20.886  54.702  1.00  0.00     0.116 A 
HETATM   20  F   UNL     1       8.417  19.677  55.164  1.00  0.00    -0.206 F 
HETATM   21  C   UNL     1       8.166  21.153  53.343  1.00  0.00     0.044 A 
HETATM   22  C   UNL     1       7.818  22.419  52.863  1.00  0.00     0.032 A 
ENDBRANCH  13  16
ENDBRANCH   4  12
BRANCH   1  23
HETATM   23  C   UNL     1       4.500  30.727  51.385  1.00  0.00     0.005 A 
HETATM   24  C   UNL     1       4.923  32.056  51.204  1.00  0.00     0.077 A 
HETATM   25  C   UNL     1       4.433  33.080  52.021  1.00  0.00     0.037 A 
HETATM   26  C   UNL     1       3.476  32.800  52.996  1.00  0.00     0.003 A 
HETATM   27  C   UNL     1       3.024  31.497  53.170  1.00  0.00     0.001 A 
HETATM   28  C   UNL     1       3.532  30.469  52.375  1.00  0.00     0.012 A 
BRANCH  24  29
HETATM   29  O   UNL     1       5.936  32.308  50.313  1.00  0.00    -0.351 OA
BRANCH  29  30
HETATM   30  C   UNL     1       5.569  33.273  49.319  1.00  0.00     0.171 C 
HETATM   31  C   UNL     1       6.793  33.533  48.459  1.00  0.00     0.034 C 
ENDBRANCH  29  30
ENDBRANCH  24  29
ENDBRANCH   1  23
BRANCH  10  32
HETATM   32  C   UNL     1       3.419  30.024  48.598  1.00  0.00     0.256 C 
HETATM   33  N   UNL     1       4.270  30.304  47.553  1.00  0.00    -0.323 N 
HETATM   34  H   UNL     1       5.149  29.791  47.546  1.00  0.00     0.169 HD
HETATM   35  O   UNL     1       2.295  30.459  48.808  1.00  0.00    -0.267 OA
BRANCH  33  36
HETATM   36  C   UNL     1       3.986  31.038  46.387  1.00  0.00     0.035 A 
HETATM   37  C   UNL     1       2.737  31.065  45.767  1.00  0.00     0.029 A 
HETATM   38  C   UNL     1       2.552  31.789  44.584  1.00  0.00     0.002 A 
HETATM   39  C   UNL     1       3.614  32.487  44.012  1.00  0.00     0.000 A 
HETATM   40  C   UNL     1       4.863  32.470  44.627  1.00  0.00     0.002 A 
HETATM   41  C   UNL     1       5.045  31.753  45.812  1.00  0.00     0.029 A 
ENDBRANCH  33  36
ENDBRANCH  10  32
TORSDOF 7
ENDMDL
