MODEL 1
REMARK VINA RESULT:      -9.5      0.000      0.000
REMARK  6 active torsions:
REMARK  status: ('A' for Active; 'I' for Inactive)
REMARK    1  A    between atoms: C_2  and  C_3 
REMARK    2  A    between atoms: C_4  and  N_5 
REMARK       I    between atoms: N_5  and  C_6 
REMARK    3  A    between atoms: C_6  and  C_7 
REMARK    4  A    between atoms: C_10  and  C_11 
REMARK    5  A    between atoms: C_11  and  C_12 
REMARK    6  A    between atoms: C_25  and  C_26 
ROOT
HETATM    1  N   UNL     1       5.880  28.916  52.405  1.00  0.00    -0.307 N 
HETATM    2  C   UNL     1       6.210  28.148  53.565  1.00  0.00     0.257 C 
HETATM    3  O   UNL     1       6.296  28.764  54.612  1.00  0.00    -0.267 OA
HETATM    4  H   UNL     1       6.043  29.914  52.486  1.00  0.00     0.170 HD
ENDROOT
BRANCH   2   5
HETATM    5  C   UNL     1       6.511  26.700  53.461  1.00  0.00     0.032 A 
HETATM    6  C   UNL     1       5.548  25.738  53.790  1.00  0.00     0.017 A 
HETATM    7  C   UNL     1       5.852  24.380  53.699  1.00  0.00     0.008 A 
HETATM    8  C   UNL     1       7.100  23.963  53.223  1.00  0.00    -0.057 A 
HETATM    9  C   UNL     1       8.046  24.933  52.856  1.00  0.00     0.008 A 
HETATM   10  C   UNL     1       7.756  26.296  52.973  1.00  0.00     0.017 A 
BRANCH   8  11
HETATM   11  C   UNL     1       7.417  22.489  53.065  1.00  0.00     0.053 C 
BRANCH  11  12
HETATM   12  C   UNL     1       8.702  21.998  53.752  1.00  0.00     0.091 C 
HETATM   13  C   UNL     1       8.739  20.493  53.841  1.00  0.00     0.229 C 
HETATM   14  O   UNL     1       8.737  19.724  52.892  1.00  0.00    -0.273 OA
HETATM   15  N   UNL     1       8.687  20.129  55.146  1.00  0.00    -0.297 N 
HETATM   16  C   UNL     1       8.592  21.188  55.987  1.00  0.00     0.225 C 
HETATM   17  H   UNL     1       8.577  19.173  55.446  1.00  0.00     0.171 HD
HETATM   18  O   UNL     1       8.344  21.133  57.180  1.00  0.00    -0.273 OA
HETATM   19  C   UNL     1       8.863  22.440  55.207  1.00  0.00     0.117 C 
ENDBRANCH  11  12
ENDBRANCH   8  11
ENDBRANCH   2   5
BRANCH   1  20
HETATM   20  C   UNL     1       5.295  28.428  51.250  1.00  0.00     0.133 A 
HETATM   21  C   UNL     1       3.958  28.561  50.918  1.00  0.00     0.018 A 
HETATM   22  C   UNL     1       3.854  27.969  49.602  1.00  0.00     0.097 A 
HETATM   23  N   UNL     1       5.048  27.471  49.228  1.00  0.00    -0.172 NA
HETATM   24  N   UNL     1       5.880  27.742  50.231  1.00  0.00    -0.261 N 
HETATM   25  H   UNL     1       6.840  27.425  50.146  1.00  0.00     0.191 HD
BRANCH  21  26
HETATM   26  C   UNL     1       2.930  29.274  51.735  1.00  0.00     0.040 C 
HETATM   27  C   UNL     1       2.899  30.769  51.457  1.00  0.00     0.010 C 
ENDBRANCH  21  26
BRANCH  22  28
HETATM   28  C   UNL     1       2.728  27.879  48.650  1.00  0.00    -0.002 A 
HETATM   29  C   UNL     1       2.446  26.648  48.037  1.00  0.00     0.033 A 
HETATM   30  C   UNL     1       1.410  26.559  47.123  1.00  0.00     0.117 A 
HETATM   31  N   UNL     1       0.639  27.605  46.770  1.00  0.00    -0.273 NA
HETATM   32  C   UNL     1       0.907  28.780  47.373  1.00  0.00     0.117 A 
HETATM   33  C   UNL     1       1.918  28.962  48.308  1.00  0.00     0.033 A 
ENDBRANCH  22  28
ENDBRANCH   1  20
TORSDOF 6
ENDMDL
MODEL 2
REMARK VINA RESULT:      -9.2      4.046      7.382
REMARK  6 active torsions:
REMARK  status: ('A' for Active; 'I' for Inactive)
REMARK    1  A    between atoms: C_2  and  C_3 
REMARK    2  A    between atoms: C_4  and  N_5 
REMARK       I    between atoms: N_5  and  C_6 
REMARK    3  A    between atoms: C_6  and  C_7 
REMARK    4  A    between atoms: C_10  and  C_11 
REMARK    5  A    between atoms: C_11  and  C_12 
REMARK    6  A    between atoms: C_25  and  C_26 
ROOT
HETATM    1  N   UNL     1       4.851  28.798  54.691  1.00  0.00    -0.307 N 
HETATM    2  C   UNL     1       4.927  27.596  53.920  1.00  0.00     0.257 C 
HETATM    3  O   UNL     1       4.208  27.541  52.937  1.00  0.00    -0.267 OA
HETATM    4  H   UNL     1       4.016  29.354  54.544  1.00  0.00     0.170 HD
ENDROOT
BRANCH   2   5
HETATM    5  C   UNL     1       5.773  26.461  54.356  1.00  0.00     0.032 A 
HETATM    6  C   UNL     1       6.859  26.032  53.582  1.00  0.00     0.017 A 
HETATM    7  C   UNL     1       7.639  24.954  54.002  1.00  0.00     0.008 A 
HETATM    8  C   UNL     1       7.382  24.327  55.225  1.00  0.00    -0.057 A 
HETATM    9  C   UNL     1       6.317  24.788  56.014  1.00  0.00     0.008 A 
HETATM   10  C   UNL     1       5.515  25.850  55.585  1.00  0.00     0.017 A 
BRANCH   8  11
HETATM   11  C   UNL     1       8.260  23.193  55.716  1.00  0.00     0.053 C 
BRANCH  11  12
HETATM   12  C   UNL     1       7.654  21.783  55.627  1.00  0.00     0.091 C 
HETATM   13  C   UNL     1       8.492  20.774  56.372  1.00  0.00     0.229 C 
HETATM   14  O   UNL     1       8.730  20.793  57.570  1.00  0.00    -0.273 OA
HETATM   15  N   UNL     1       9.012  19.892  55.483  1.00  0.00    -0.297 N 
HETATM   16  C   UNL     1       8.665  20.167  54.201  1.00  0.00     0.225 C 
HETATM   17  H   UNL     1       9.701  19.201  55.733  1.00  0.00     0.171 HD
HETATM   18  O   UNL     1       9.143  19.650  53.206  1.00  0.00    -0.273 OA
HETATM   19  C   UNL     1       7.579  21.202  54.214  1.00  0.00     0.117 C 
ENDBRANCH  11  12
ENDBRANCH   8  11
ENDBRANCH   2   5
BRANCH   1  20
HETATM   20  C   UNL     1       5.836  29.283  55.532  1.00  0.00     0.133 A 
HETATM   21  C   UNL     1       5.612  29.867  56.766  1.00  0.00     0.018 A 
HETATM   22  C   UNL     1       6.936  30.130  57.285  1.00  0.00     0.097 A 
HETATM   23  N   UNL     1       7.863  29.774  56.376  1.00  0.00    -0.172 NA
HETATM   24  N   UNL     1       7.184  29.291  55.339  1.00  0.00    -0.261 N 
HETATM   25  H   UNL     1       7.713  28.982  54.531  1.00  0.00     0.191 HD
BRANCH  21  26
HETATM   26  C   UNL     1       4.275  30.048  57.408  1.00  0.00     0.040 C 
HETATM   27  C   UNL     1       3.558  31.298  56.921  1.00  0.00     0.010 C 
ENDBRANCH  21  26
BRANCH  22  28
HETATM   28  C   UNL     1       7.396  30.647  58.591  1.00  0.00    -0.002 A 
HETATM   29  C   UNL     1       6.779  31.784  59.133  1.00  0.00     0.033 A 
HETATM   30  C   UNL     1       7.221  32.293  60.344  1.00  0.00     0.117 A 
HETATM   31  N   UNL     1       8.233  31.755  61.049  1.00  0.00    -0.273 NA
HETATM   32  C   UNL     1       8.811  30.655  60.529  1.00  0.00     0.117 A 
HETATM   33  C   UNL     1       8.430  30.069  59.329  1.00  0.00     0.033 A 
ENDBRANCH  22  28
ENDBRANCH   1  20
TORSDOF 6
ENDMDL
MODEL 3
REMARK VINA RESULT:      -9.1     10.717     13.401
REMARK  6 active torsions:
REMARK  status: ('A' for Active; 'I' for Inactive)
REMARK    1  A    between atoms: C_2  and  C_3 
REMARK    2  A    between atoms: C_4  and  N_5 
REMARK       I    between atoms: N_5  and  C_6 
REMARK    3  A    between atoms: C_6  and  C_7 
REMARK    4  A    between atoms: C_10  and  C_11 
REMARK    5  A    between atoms: C_11  and  C_12 
REMARK    6  A    between atoms: C_25  and  C_26 
ROOT
HETATM    1  N   UNL     1       3.720  34.856  65.446  1.00  0.00    -0.307 N 
HETATM    2  C   UNL     1       4.771  33.971  65.843  1.00  0.00     0.257 C 
HETATM    3  O   UNL     1       4.907  33.799  67.041  1.00  0.00    -0.267 OA
HETATM    4  H   UNL     1       3.389  35.485  66.169  1.00  0.00     0.170 HD
ENDROOT
BRANCH   2   5
HETATM    5  C   UNL     1       5.686  33.375  64.841  1.00  0.00     0.032 A 
HETATM    6  C   UNL     1       7.067  33.603  64.899  1.00  0.00     0.017 A 
HETATM    7  C   UNL     1       7.912  33.044  63.941  1.00  0.00     0.008 A 
HETATM    8  C   UNL     1       7.400  32.204  62.946  1.00  0.00    -0.057 A 
HETATM    9  C   UNL     1       6.020  31.948  62.918  1.00  0.00     0.008 A 
HETATM   10  C   UNL     1       5.165  32.528  63.860  1.00  0.00     0.017 A 
BRANCH   8  11
HETATM   11  C   UNL     1       8.319  31.546  61.937  1.00  0.00     0.053 C 
BRANCH  11  12
HETATM   12  C   UNL     1       8.520  32.302  60.613  1.00  0.00     0.091 C 
HETATM   13  C   UNL     1       7.530  31.856  59.567  1.00  0.00     0.229 C 
HETATM   14  O   UNL     1       6.316  31.957  59.649  1.00  0.00    -0.273 OA
HETATM   15  N   UNL     1       8.201  31.246  58.558  1.00  0.00    -0.297 N 
HETATM   16  C   UNL     1       9.537  31.184  58.775  1.00  0.00     0.225 C 
HETATM   17  H   UNL     1       7.739  30.760  57.806  1.00  0.00     0.171 HD
HETATM   18  O   UNL     1      10.336  30.530  58.125  1.00  0.00    -0.273 OA
HETATM   19  C   UNL     1       9.873  32.069  59.938  1.00  0.00     0.117 C 
ENDBRANCH  11  12
ENDBRANCH   8  11
ENDBRANCH   2   5
BRANCH   1  20
HETATM   20  C   UNL     1       3.087  34.861  64.217  1.00  0.00     0.133 A 
HETATM   21  C   UNL     1       3.458  35.638  63.134  1.00  0.00     0.018 A 
HETATM   22  C   UNL     1       2.558  35.234  62.075  1.00  0.00     0.097 A 
HETATM   23  N   UNL     1       1.683  34.323  62.542  1.00  0.00    -0.172 NA
HETATM   24  N   UNL     1       2.008  34.133  63.818  1.00  0.00    -0.261 N 
HETATM   25  H   UNL     1       1.444  33.484  64.357  1.00  0.00     0.191 HD
BRANCH  21  26
HETATM   26  C   UNL     1       4.617  36.581  63.102  1.00  0.00     0.040 C 
HETATM   27  C   UNL     1       5.802  36.022  62.329  1.00  0.00     0.010 C 
ENDBRANCH  21  26
BRANCH  22  28
HETATM   28  C   UNL     1       2.490  35.604  60.647  1.00  0.00    -0.002 A 
HETATM   29  C   UNL     1       2.680  34.612  59.672  1.00  0.00     0.033 A 
HETATM   30  C   UNL     1       2.644  34.953  58.331  1.00  0.00     0.117 A 
HETATM   31  N   UNL     1       2.440  36.208  57.889  1.00  0.00    -0.273 NA
HETATM   32  C   UNL     1       2.245  37.152  58.830  1.00  0.00     0.117 A 
HETATM   33  C   UNL     1       2.254  36.903  60.196  1.00  0.00     0.033 A 
ENDBRANCH  22  28
ENDBRANCH   1  20
TORSDOF 6
ENDMDL
MODEL 4
REMARK VINA RESULT:      -9.0      3.034      8.449
REMARK  6 active torsions:
REMARK  status: ('A' for Active; 'I' for Inactive)
REMARK    1  A    between atoms: C_2  and  C_3 
REMARK    2  A    between atoms: C_4  and  N_5 
REMARK       I    between atoms: N_5  and  C_6 
REMARK    3  A    between atoms: C_6  and  C_7 
REMARK    4  A    between atoms: C_10  and  C_11 
REMARK    5  A    between atoms: C_11  and  C_12 
REMARK    6  A    between atoms: C_25  and  C_26 
ROOT
HETATM    1  N   UNL     1       5.319  26.463  55.983  1.00  0.00    -0.307 N 
HETATM    2  C   UNL     1       5.182  27.825  55.566  1.00  0.00     0.257 C 
HETATM    3  O   UNL     1       5.173  28.660  56.453  1.00  0.00    -0.267 OA
HETATM    4  H   UNL     1       5.093  26.283  56.954  1.00  0.00     0.170 HD
ENDROOT
BRANCH   2   5
HETATM    5  C   UNL     1       4.978  28.170  54.140  1.00  0.00     0.032 A 
HETATM    6  C   UNL     1       6.068  28.377  53.285  1.00  0.00     0.017 A 
HETATM    7  C   UNL     1       5.859  28.714  51.948  1.00  0.00     0.008 A 
HETATM    8  C   UNL     1       4.561  28.791  51.431  1.00  0.00    -0.057 A 
HETATM    9  C   UNL     1       3.475  28.543  52.284  1.00  0.00     0.008 A 
HETATM   10  C   UNL     1       3.679  28.232  53.632  1.00  0.00     0.017 A 
BRANCH   8  11
HETATM   11  C   UNL     1       4.327  29.099  49.966  1.00  0.00     0.053 C 
BRANCH  11  12
HETATM   12  C   UNL     1       4.940  28.110  48.961  1.00  0.00     0.091 C 
HETATM   13  C   UNL     1       4.387  28.318  47.573  1.00  0.00     0.229 C 
HETATM   14  O   UNL     1       4.496  29.338  46.911  1.00  0.00    -0.273 OA
HETATM   15  N   UNL     1       3.675  27.221  47.215  1.00  0.00    -0.297 N 
HETATM   16  C   UNL     1       3.636  26.276  48.186  1.00  0.00     0.225 C 
HETATM   17  H   UNL     1       3.113  27.180  46.380  1.00  0.00     0.171 HD
HETATM   18  O   UNL     1       2.918  25.290  48.193  1.00  0.00    -0.273 OA
HETATM   19  C   UNL     1       4.638  26.637  49.242  1.00  0.00     0.117 C 
ENDBRANCH  11  12
ENDBRANCH   8  11
ENDBRANCH   2   5
BRANCH   1  20
HETATM   20  C   UNL     1       5.800  25.424  55.206  1.00  0.00     0.133 A 
HETATM   21  C   UNL     1       6.702  24.465  55.632  1.00  0.00     0.018 A 
HETATM   22  C   UNL     1       6.828  23.565  54.506  1.00  0.00     0.097 A 
HETATM   23  N   UNL     1       6.090  24.016  53.475  1.00  0.00    -0.172 NA
HETATM   24  N   UNL     1       5.504  25.129  53.911  1.00  0.00    -0.261 N 
HETATM   25  H   UNL     1       4.911  25.635  53.263  1.00  0.00     0.191 HD
BRANCH  21  26
HETATM   26  C   UNL     1       7.286  24.375  57.005  1.00  0.00     0.040 C 
HETATM   27  C   UNL     1       8.569  25.179  57.147  1.00  0.00     0.010 C 
ENDBRANCH  21  26
BRANCH  22  28
HETATM   28  C   UNL     1       7.553  22.288  54.344  1.00  0.00    -0.002 A 
HETATM   29  C   UNL     1       7.870  21.840  53.052  1.00  0.00     0.033 A 
HETATM   30  C   UNL     1       8.526  20.631  52.888  1.00  0.00     0.117 A 
HETATM   31  N   UNL     1       8.883  19.835  53.913  1.00  0.00    -0.273 NA
HETATM   32  C   UNL     1       8.588  20.279  55.150  1.00  0.00     0.117 A 
HETATM   33  C   UNL     1       7.942  21.480  55.413  1.00  0.00     0.033 A 
ENDBRANCH  22  28
ENDBRANCH   1  20
TORSDOF 6
ENDMDL
MODEL 5
REMARK VINA RESULT:      -8.9      3.074      8.672
REMARK  6 active torsions:
REMARK  status: ('A' for Active; 'I' for Inactive)
REMARK    1  A    between atoms: C_2  and  C_3 
REMARK    2  A    between atoms: C_4  and  N_5 
REMARK       I    between atoms: N_5  and  C_6 
REMARK    3  A    between atoms: C_6  and  C_7 
REMARK    4  A    between atoms: C_10  and  C_11 
REMARK    5  A    between atoms: C_11  and  C_12 
REMARK    6  A    between atoms: C_25  and  C_26 
ROOT
HETATM    1  N   UNL     1       5.091  27.905  55.100  1.00  0.00    -0.307 N 
HETATM    2  C   UNL     1       4.919  29.065  54.282  1.00  0.00     0.257 C 
HETATM    3  O   UNL     1       5.085  30.140  54.830  1.00  0.00    -0.267 OA
HETATM    4  H   UNL     1       5.033  28.068  56.099  1.00  0.00     0.170 HD
ENDROOT
BRANCH   2   5
HETATM    5  C   UNL     1       4.479  28.946  52.872  1.00  0.00     0.032 A 
HETATM    6  C   UNL     1       5.408  28.760  51.840  1.00  0.00     0.017 A 
HETATM    7  C   UNL     1       4.978  28.662  50.517  1.00  0.00     0.008 A 
HETATM    8  C   UNL     1       3.614  28.690  50.210  1.00  0.00    -0.057 A 
HETATM    9  C   UNL     1       2.686  28.836  51.254  1.00  0.00     0.008 A 
HETATM   10  C   UNL     1       3.114  28.963  52.579  1.00  0.00     0.017 A 
BRANCH   8  11
HETATM   11  C   UNL     1       3.135  28.525  48.782  1.00  0.00     0.053 C 
BRANCH  11  12
HETATM   12  C   UNL     1       2.366  27.231  48.472  1.00  0.00     0.091 C 
HETATM   13  C   UNL     1       2.934  26.526  47.265  1.00  0.00     0.229 C 
HETATM   14  O   UNL     1       4.069  26.089  47.166  1.00  0.00    -0.273 OA
HETATM   15  N   UNL     1       2.007  26.535  46.275  1.00  0.00    -0.297 N 
HETATM   16  C   UNL     1       0.867  27.179  46.624  1.00  0.00     0.225 C 
HETATM   17  H   UNL     1       2.204  26.229  45.335  1.00  0.00     0.171 HD
HETATM   18  O   UNL     1      -0.038  27.490  45.867  1.00  0.00    -0.273 OA
HETATM   19  C   UNL     1       0.895  27.429  48.103  1.00  0.00     0.117 C 
ENDBRANCH  11  12
ENDBRANCH   8  11
ENDBRANCH   2   5
BRANCH   1  20
HETATM   20  C   UNL     1       5.405  26.636  54.649  1.00  0.00     0.133 A 
HETATM   21  C   UNL     1       6.525  25.913  55.020  1.00  0.00     0.018 A 
HETATM   22  C   UNL     1       6.365  24.637  54.359  1.00  0.00     0.097 A 
HETATM   23  N   UNL     1       5.251  24.649  53.603  1.00  0.00    -0.172 NA
HETATM   24  N   UNL     1       4.709  25.851  53.780  1.00  0.00    -0.261 N 
HETATM   25  H   UNL     1       3.858  26.065  53.272  1.00  0.00     0.191 HD
BRANCH  21  26
HETATM   26  C   UNL     1       7.568  26.371  55.988  1.00  0.00     0.040 C 
HETATM   27  C   UNL     1       7.228  26.010  57.425  1.00  0.00     0.010 C 
ENDBRANCH  21  26
BRANCH  22  28
HETATM   28  C   UNL     1       7.156  23.390  54.421  1.00  0.00    -0.002 A 
HETATM   29  C   UNL     1       7.616  22.811  53.228  1.00  0.00     0.033 A 
HETATM   30  C   UNL     1       8.335  21.629  53.273  1.00  0.00     0.117 A 
HETATM   31  N   UNL     1       8.626  20.980  54.416  1.00  0.00    -0.273 NA
HETATM   32  C   UNL     1       8.193  21.550  55.557  1.00  0.00     0.117 A 
HETATM   33  C   UNL     1       7.475  22.736  55.611  1.00  0.00     0.033 A 
ENDBRANCH  22  28
ENDBRANCH   1  20
TORSDOF 6
ENDMDL
MODEL 6
REMARK VINA RESULT:      -8.8      3.460      7.862
REMARK  6 active torsions:
REMARK  status: ('A' for Active; 'I' for Inactive)
REMARK    1  A    between atoms: C_2  and  C_3 
REMARK    2  A    between atoms: C_4  and  N_5 
REMARK       I    between atoms: N_5  and  C_6 
REMARK    3  A    between atoms: C_6  and  C_7 
REMARK    4  A    between atoms: C_10  and  C_11 
REMARK    5  A    between atoms: C_11  and  C_12 
REMARK    6  A    between atoms: C_25  and  C_26 
ROOT
HETATM    1  N   UNL     1       7.606  24.494  56.078  1.00  0.00    -0.307 N 
HETATM    2  C   UNL     1       7.536  23.793  54.834  1.00  0.00     0.257 C 
HETATM    3  O   UNL     1       8.097  22.712  54.793  1.00  0.00    -0.267 OA
HETATM    4  H   UNL     1       8.346  24.194  56.703  1.00  0.00     0.170 HD
ENDROOT
BRANCH   2   5
HETATM    5  C   UNL     1       6.887  24.403  53.649  1.00  0.00     0.032 A 
HETATM    6  C   UNL     1       5.503  24.614  53.614  1.00  0.00     0.017 A 
HETATM    7  C   UNL     1       4.907  25.179  52.487  1.00  0.00     0.008 A 
HETATM    8  C   UNL     1       5.689  25.592  51.403  1.00  0.00    -0.057 A 
HETATM    9  C   UNL     1       7.080  25.413  51.462  1.00  0.00     0.008 A 
HETATM   10  C   UNL     1       7.679  24.823  52.579  1.00  0.00     0.017 A 
BRANCH   8  11
HETATM   11  C   UNL     1       5.056  26.259  50.199  1.00  0.00     0.053 C 
BRANCH  11  12
HETATM   12  C   UNL     1       4.390  27.622  50.453  1.00  0.00     0.091 C 
HETATM   13  C   UNL     1       3.903  28.247  49.169  1.00  0.00     0.229 C 
HETATM   14  O   UNL     1       3.062  27.772  48.423  1.00  0.00    -0.273 OA
HETATM   15  N   UNL     1       4.614  29.378  48.934  1.00  0.00    -0.297 N 
HETATM   16  C   UNL     1       5.557  29.615  49.878  1.00  0.00     0.225 C 
HETATM   17  H   UNL     1       4.548  29.899  48.074  1.00  0.00     0.171 HD
HETATM   18  O   UNL     1       6.445  30.448  49.806  1.00  0.00    -0.273 OA
HETATM   19  C   UNL     1       5.316  28.691  51.035  1.00  0.00     0.117 C 
ENDBRANCH  11  12
ENDBRANCH   8  11
ENDBRANCH   2   5
BRANCH   1  20
HETATM   20  C   UNL     1       6.716  25.460  56.514  1.00  0.00     0.133 A 
HETATM   21  C   UNL     1       6.871  26.823  56.333  1.00  0.00     0.018 A 
HETATM   22  C   UNL     1       5.662  27.398  56.881  1.00  0.00     0.097 A 
HETATM   23  N   UNL     1       4.888  26.427  57.402  1.00  0.00    -0.172 NA
HETATM   24  N   UNL     1       5.545  25.289  57.186  1.00  0.00    -0.261 N 
HETATM   25  H   UNL     1       5.126  24.431  57.527  1.00  0.00     0.191 HD
BRANCH  21  26
HETATM   26  C   UNL     1       8.007  27.477  55.615  1.00  0.00     0.040 C 
HETATM   27  C   UNL     1       7.601  28.021  54.255  1.00  0.00     0.010 C 
ENDBRANCH  21  26
BRANCH  22  28
HETATM   28  C   UNL     1       5.158  28.787  56.909  1.00  0.00    -0.002 A 
HETATM   29  C   UNL     1       3.986  29.104  56.206  1.00  0.00     0.033 A 
HETATM   30  C   UNL     1       3.519  30.408  56.204  1.00  0.00     0.117 A 
HETATM   31  N   UNL     1       4.137  31.418  56.845  1.00  0.00    -0.273 NA
HETATM   32  C   UNL     1       5.253  31.102  57.530  1.00  0.00     0.117 A 
HETATM   33  C   UNL     1       5.789  29.823  57.597  1.00  0.00     0.033 A 
ENDBRANCH  22  28
ENDBRANCH   1  20
TORSDOF 6
ENDMDL
MODEL 7
REMARK VINA RESULT:      -8.6      4.147      6.945
REMARK  6 active torsions:
REMARK  status: ('A' for Active; 'I' for Inactive)
REMARK    1  A    between atoms: C_2  and  C_3 
REMARK    2  A    between atoms: C_4  and  N_5 
REMARK       I    between atoms: N_5  and  C_6 
REMARK    3  A    between atoms: C_6  and  C_7 
REMARK    4  A    between atoms: C_10  and  C_11 
REMARK    5  A    between atoms: C_11  and  C_12 
REMARK    6  A    between atoms: C_25  and  C_26 
ROOT
HETATM    1  N   UNL     1       5.012  25.081  54.207  1.00  0.00    -0.307 N 
HETATM    2  C   UNL     1       5.840  25.254  55.360  1.00  0.00     0.257 C 
HETATM    3  O   UNL     1       6.303  24.238  55.847  1.00  0.00    -0.267 OA
HETATM    4  H   UNL     1       4.638  24.147  54.079  1.00  0.00     0.170 HD
ENDROOT
BRANCH   2   5
HETATM    5  C   UNL     1       6.040  26.593  55.962  1.00  0.00     0.032 A 
HETATM    6  C   UNL     1       5.088  27.144  56.829  1.00  0.00     0.017 A 
HETATM    7  C   UNL     1       5.287  28.411  57.377  1.00  0.00     0.008 A 
HETATM    8  C   UNL     1       6.464  29.121  57.116  1.00  0.00    -0.057 A 
HETATM    9  C   UNL     1       7.432  28.545  56.278  1.00  0.00     0.008 A 
HETATM   10  C   UNL     1       7.224  27.287  55.703  1.00  0.00     0.017 A 
BRANCH   8  11
HETATM   11  C   UNL     1       6.714  30.472  57.754  1.00  0.00     0.053 C 
BRANCH  11  12
HETATM   12  C   UNL     1       7.611  30.474  59.002  1.00  0.00     0.091 C 
HETATM   13  C   UNL     1       7.549  31.796  59.726  1.00  0.00     0.229 C 
HETATM   14  O   UNL     1       6.548  32.287  60.223  1.00  0.00    -0.273 OA
HETATM   15  N   UNL     1       8.765  32.392  59.658  1.00  0.00    -0.297 N 
HETATM   16  C   UNL     1       9.671  31.667  58.955  1.00  0.00     0.225 C 
HETATM   17  H   UNL     1       8.932  33.337  59.965  1.00  0.00     0.171 HD
HETATM   18  O   UNL     1      10.767  32.056  58.589  1.00  0.00    -0.273 OA
HETATM   19  C   UNL     1       9.105  30.298  58.721  1.00  0.00     0.117 C 
ENDBRANCH  11  12
ENDBRANCH   8  11
ENDBRANCH   2   5
BRANCH   1  20
HETATM   20  C   UNL     1       4.758  26.039  53.241  1.00  0.00     0.133 A 
HETATM   21  C   UNL     1       5.407  26.130  52.022  1.00  0.00     0.018 A 
HETATM   22  C   UNL     1       4.745  27.223  51.344  1.00  0.00     0.097 A 
HETATM   23  N   UNL     1       3.814  27.766  52.151  1.00  0.00    -0.172 NA
HETATM   24  N   UNL     1       3.854  27.056  53.275  1.00  0.00    -0.261 N 
HETATM   25  H   UNL     1       3.229  27.327  54.027  1.00  0.00     0.191 HD
BRANCH  21  26
HETATM   26  C   UNL     1       6.467  25.197  51.534  1.00  0.00     0.040 C 
HETATM   27  C   UNL     1       7.795  25.398  52.249  1.00  0.00     0.010 C 
ENDBRANCH  21  26
BRANCH  22  28
HETATM   28  C   UNL     1       4.889  27.764  49.977  1.00  0.00    -0.002 A 
HETATM   29  C   UNL     1       4.659  26.921  48.879  1.00  0.00     0.033 A 
HETATM   30  C   UNL     1       4.818  27.410  47.593  1.00  0.00     0.117 A 
HETATM   31  N   UNL     1       5.194  28.675  47.321  1.00  0.00    -0.273 NA
HETATM   32  C   UNL     1       5.400  29.481  48.380  1.00  0.00     0.117 A 
HETATM   33  C   UNL     1       5.256  29.082  49.703  1.00  0.00     0.033 A 
ENDBRANCH  22  28
ENDBRANCH   1  20
TORSDOF 6
ENDMDL
MODEL 8
REMARK VINA RESULT:      -8.2     11.400     15.699
REMARK  6 active torsions:
REMARK  status: ('A' for Active; 'I' for Inactive)
REMARK    1  A    between atoms: C_2  and  C_3 
REMARK    2  A    between atoms: C_4  and  N_5 
REMARK       I    between atoms: N_5  and  C_6 
REMARK    3  A    between atoms: C_6  and  C_7 
REMARK    4  A    between atoms: C_10  and  C_11 
REMARK    5  A    between atoms: C_11  and  C_12 
REMARK    6  A    between atoms: C_25  and  C_26 
ROOT
HETATM    1  N   UNL     1       4.483  32.604  63.459  1.00  0.00    -0.307 N 
HETATM    2  C   UNL     1       4.472  33.751  64.312  1.00  0.00     0.257 C 
HETATM    3  O   UNL     1       4.280  33.539  65.496  1.00  0.00    -0.267 OA
HETATM    4  H   UNL     1       4.040  31.776  63.841  1.00  0.00     0.170 HD
ENDROOT
BRANCH   2   5
HETATM    5  C   UNL     1       4.603  35.118  63.754  1.00  0.00     0.032 A 
HETATM    6  C   UNL     1       5.836  35.782  63.757  1.00  0.00     0.017 A 
HETATM    7  C   UNL     1       5.939  37.073  63.239  1.00  0.00     0.008 A 
HETATM    8  C   UNL     1       4.828  37.697  62.660  1.00  0.00    -0.057 A 
HETATM    9  C   UNL     1       3.605  37.009  62.625  1.00  0.00     0.008 A 
HETATM   10  C   UNL     1       3.490  35.725  63.168  1.00  0.00     0.017 A 
BRANCH   8  11
HETATM   11  C   UNL     1       4.945  39.076  62.043  1.00  0.00     0.053 C 
BRANCH  11  12
HETATM   12  C   UNL     1       6.132  39.290  61.089  1.00  0.00     0.091 C 
HETATM   13  C   UNL     1       7.102  40.308  61.635  1.00  0.00     0.229 C 
HETATM   14  O   UNL     1       7.727  40.206  62.678  1.00  0.00    -0.273 OA
HETATM   15  N   UNL     1       7.103  41.394  60.822  1.00  0.00    -0.297 N 
HETATM   16  C   UNL     1       6.236  41.280  59.787  1.00  0.00     0.225 C 
HETATM   17  H   UNL     1       7.582  42.250  61.050  1.00  0.00     0.171 HD
HETATM   18  O   UNL     1       5.908  42.177  59.028  1.00  0.00    -0.273 OA
HETATM   19  C   UNL     1       5.761  39.859  59.719  1.00  0.00     0.117 C 
ENDBRANCH  11  12
ENDBRANCH   8  11
ENDBRANCH   2   5
BRANCH   1  20
HETATM   20  C   UNL     1       5.106  32.517  62.226  1.00  0.00     0.133 A 
HETATM   21  C   UNL     1       6.413  32.111  62.022  1.00  0.00     0.018 A 
HETATM   22  C   UNL     1       6.568  32.109  60.584  1.00  0.00     0.097 A 
HETATM   23  N   UNL     1       5.437  32.547  60.000  1.00  0.00    -0.172 NA
HETATM   24  N   UNL     1       4.592  32.798  60.997  1.00  0.00    -0.261 N 
HETATM   25  H   UNL     1       3.675  33.161  60.759  1.00  0.00     0.191 HD
BRANCH  21  26
HETATM   26  C   UNL     1       7.360  31.674  63.092  1.00  0.00     0.040 C 
HETATM   27  C   UNL     1       8.020  32.846  63.801  1.00  0.00     0.010 C 
ENDBRANCH  21  26
BRANCH  22  28
HETATM   28  C   UNL     1       7.684  31.680  59.715  1.00  0.00    -0.002 A 
HETATM   29  C   UNL     1       7.466  30.664  58.771  1.00  0.00     0.033 A 
HETATM   30  C   UNL     1       8.512  30.237  57.971  1.00  0.00     0.117 A 
HETATM   31  N   UNL     1       9.758  30.742  58.045  1.00  0.00    -0.273 NA
HETATM   32  C   UNL     1       9.955  31.726  58.943  1.00  0.00     0.117 A 
HETATM   33  C   UNL     1       8.966  32.225  59.781  1.00  0.00     0.033 A 
ENDBRANCH  22  28
ENDBRANCH   1  20
TORSDOF 6
ENDMDL
MODEL 9
REMARK VINA RESULT:      -7.9      8.621     11.631
REMARK  6 active torsions:
REMARK  status: ('A' for Active; 'I' for Inactive)
REMARK    1  A    between atoms: C_2  and  C_3 
REMARK    2  A    between atoms: C_4  and  N_5 
REMARK       I    between atoms: N_5  and  C_6 
REMARK    3  A    between atoms: C_6  and  C_7 
REMARK    4  A    between atoms: C_10  and  C_11 
REMARK    5  A    between atoms: C_11  and  C_12 
REMARK    6  A    between atoms: C_25  and  C_26 
ROOT
HETATM    1  N   UNL     1       3.054  33.246  59.515  1.00  0.00    -0.307 N 
HETATM    2  C   UNL     1       3.634  32.975  58.236  1.00  0.00     0.257 C 
HETATM    3  O   UNL     1       3.280  33.697  57.321  1.00  0.00    -0.267 OA
HETATM    4  H   UNL     1       2.197  33.788  59.495  1.00  0.00     0.170 HD
ENDROOT
BRANCH   2   5
HETATM    5  C   UNL     1       4.548  31.825  58.040  1.00  0.00     0.032 A 
HETATM    6  C   UNL     1       4.062  30.584  57.609  1.00  0.00     0.017 A 
HETATM    7  C   UNL     1       4.934  29.509  57.441  1.00  0.00     0.008 A 
HETATM    8  C   UNL     1       6.309  29.671  57.645  1.00  0.00    -0.057 A 
HETATM    9  C   UNL     1       6.793  30.928  58.038  1.00  0.00     0.008 A 
HETATM   10  C   UNL     1       5.919  32.003  58.235  1.00  0.00     0.017 A 
BRANCH   8  11
HETATM   11  C   UNL     1       7.270  28.523  57.408  1.00  0.00     0.053 C 
BRANCH  11  12
HETATM   12  C   UNL     1       6.631  27.162  57.087  1.00  0.00     0.091 C 
HETATM   13  C   UNL     1       7.554  26.022  57.436  1.00  0.00     0.229 C 
HETATM   14  O   UNL     1       7.974  25.765  58.553  1.00  0.00    -0.273 OA
HETATM   15  N   UNL     1       7.912  25.382  56.296  1.00  0.00    -0.297 N 
HETATM   16  C   UNL     1       7.377  25.943  55.184  1.00  0.00     0.225 C 
HETATM   17  H   UNL     1       8.619  24.664  56.268  1.00  0.00     0.171 HD
HETATM   18  O   UNL     1       7.686  25.682  54.033  1.00  0.00    -0.273 OA
HETATM   19  C   UNL     1       6.327  26.927  55.607  1.00  0.00     0.117 C 
ENDBRANCH  11  12
ENDBRANCH   8  11
ENDBRANCH   2   5
BRANCH   1  20
HETATM   20  C   UNL     1       3.599  32.905  60.740  1.00  0.00     0.133 A 
HETATM   21  C   UNL     1       4.382  33.736  61.521  1.00  0.00     0.018 A 
HETATM   22  C   UNL     1       4.635  32.968  62.721  1.00  0.00     0.097 A 
HETATM   23  N   UNL     1       4.082  31.746  62.608  1.00  0.00    -0.172 NA
HETATM   24  N   UNL     1       3.488  31.729  61.417  1.00  0.00    -0.261 N 
HETATM   25  H   UNL     1       3.023  30.873  61.134  1.00  0.00     0.191 HD
BRANCH  21  26
HETATM   26  C   UNL     1       4.747  35.146  61.187  1.00  0.00     0.040 C 
HETATM   27  C   UNL     1       4.465  36.108  62.331  1.00  0.00     0.010 C 
ENDBRANCH  21  26
BRANCH  22  28
HETATM   28  C   UNL     1       5.317  33.315  63.985  1.00  0.00    -0.002 A 
HETATM   29  C   UNL     1       6.718  33.258  64.045  1.00  0.00     0.033 A 
HETATM   30  C   UNL     1       7.366  33.555  65.232  1.00  0.00     0.117 A 
HETATM   31  N   UNL     1       6.722  33.898  66.363  1.00  0.00    -0.273 NA
HETATM   32  C   UNL     1       5.379  33.964  66.294  1.00  0.00     0.117 A 
HETATM   33  C   UNL     1       4.644  33.694  65.147  1.00  0.00     0.033 A 
ENDBRANCH  22  28
ENDBRANCH   1  20
TORSDOF 6
ENDMDL
MODEL 10
REMARK VINA RESULT:      -7.9     10.065     12.722
REMARK  6 active torsions:
REMARK  status: ('A' for Active; 'I' for Inactive)
REMARK    1  A    between atoms: C_2  and  C_3 
REMARK    2  A    between atoms: C_4  and  N_5 
REMARK       I    between atoms: N_5  and  C_6 
REMARK    3  A    between atoms: C_6  and  C_7 
REMARK    4  A    between atoms: C_10  and  C_11 
REMARK    5  A    between atoms: C_11  and  C_12 
REMARK    6  A    between atoms: C_25  and  C_26 
ROOT
HETATM    1  N   UNL     1       5.486  34.313  64.862  1.00  0.00    -0.307 N 
HETATM    2  C   UNL     1       6.591  33.454  64.571  1.00  0.00     0.257 C 
HETATM    3  O   UNL     1       7.332  33.196  65.503  1.00  0.00    -0.267 OA
HETATM    4  H   UNL     1       5.579  34.866  65.706  1.00  0.00     0.170 HD
ENDROOT
BRANCH   2   5
HETATM    5  C   UNL     1       6.850  32.984  63.189  1.00  0.00     0.032 A 
HETATM    6  C   UNL     1       8.143  33.003  62.652  1.00  0.00     0.017 A 
HETATM    7  C   UNL     1       8.367  32.568  61.346  1.00  0.00     0.008 A 
HETATM    8  C   UNL     1       7.316  32.055  60.578  1.00  0.00    -0.057 A 
HETATM    9  C   UNL     1       6.030  32.002  61.138  1.00  0.00     0.008 A 
HETATM   10  C   UNL     1       5.795  32.462  62.438  1.00  0.00     0.017 A 
BRANCH   8  11
HETATM   11  C   UNL     1       7.562  31.526  59.179  1.00  0.00     0.053 C 
BRANCH  11  12
HETATM   12  C   UNL     1       8.674  30.474  59.040  1.00  0.00     0.091 C 
HETATM   13  C   UNL     1       9.851  31.014  58.266  1.00  0.00     0.229 C 
HETATM   14  O   UNL     1      10.542  31.964  58.596  1.00  0.00    -0.273 OA
HETATM   15  N   UNL     1       9.963  30.327  57.102  1.00  0.00    -0.297 N 
HETATM   16  C   UNL     1       8.997  29.388  56.947  1.00  0.00     0.225 C 
HETATM   17  H   UNL     1      10.601  30.591  56.368  1.00  0.00     0.171 HD
HETATM   18  O   UNL     1       8.760  28.772  55.922  1.00  0.00    -0.273 OA
HETATM   19  C   UNL     1       8.281  29.222  58.254  1.00  0.00     0.117 C 
ENDBRANCH  11  12
ENDBRANCH   8  11
ENDBRANCH   2   5
BRANCH   1  20
HETATM   20  C   UNL     1       4.304  34.382  64.146  1.00  0.00     0.133 A 
HETATM   21  C   UNL     1       4.106  35.144  63.009  1.00  0.00     0.018 A 
HETATM   22  C   UNL     1       2.759  34.822  62.590  1.00  0.00     0.097 A 
HETATM   23  N   UNL     1       2.197  33.973  63.470  1.00  0.00    -0.172 NA
HETATM   24  N   UNL     1       3.128  33.741  64.392  1.00  0.00    -0.261 N 
HETATM   25  H   UNL     1       2.887  33.129  65.164  1.00  0.00     0.191 HD
BRANCH  21  26
HETATM   26  C   UNL     1       5.139  35.999  62.349  1.00  0.00     0.040 C 
HETATM   27  C   UNL     1       5.613  37.136  63.241  1.00  0.00     0.010 C 
ENDBRANCH  21  26
BRANCH  22  28
HETATM   28  C   UNL     1       1.978  35.216  61.399  1.00  0.00    -0.002 A 
HETATM   29  C   UNL     1       0.719  34.634  61.183  1.00  0.00     0.033 A 
HETATM   30  C   UNL     1      -0.009  34.976  60.056  1.00  0.00     0.117 A 
HETATM   31  N   UNL     1       0.425  35.850  59.128  1.00  0.00    -0.273 NA
HETATM   32  C   UNL     1       1.628  36.414  59.350  1.00  0.00     0.117 A 
HETATM   33  C   UNL     1       2.424  36.141  60.455  1.00  0.00     0.033 A 
ENDBRANCH  22  28
ENDBRANCH   1  20
TORSDOF 6
ENDMDL
