MODEL 1
REMARK VINA RESULT:      -8.8      0.000      0.000
REMARK  5 active torsions:
REMARK  status: ('A' for Active; 'I' for Inactive)
REMARK    1  A    between atoms: C_9  and  C_10 
REMARK    2  A    between atoms: C_11  and  O_12 
REMARK    3  A    between atoms: O_12  and  C_13 
REMARK    4  A    between atoms: C_20  and  C_21 
REMARK       I    between atoms: C_21  and  N_22 
REMARK    5  A    between atoms: N_22  and  C_23 
ROOT
HETATM    1  C   UNL     1       5.581  26.115  51.059  1.00  0.00     0.070 C 
HETATM    2  C   UNL     1       5.523  26.848  52.375  1.00  0.00     0.037 A 
HETATM    3  N   UNL     1       4.626  27.908  52.435  1.00  0.00    -0.192 N 
HETATM    4  C   UNL     1       4.341  28.574  53.571  1.00  0.00     0.725 A 
HETATM    5  N   UNL     1       5.023  28.268  54.719  1.00  0.00    -0.084 N 
HETATM    6  N   UNL     1       4.553  28.977  55.770  1.00  0.00    -0.149 NA
HETATM    7  C   UNL     1       3.617  29.719  55.168  1.00  0.00     0.275 A 
HETATM    8  N   UNL     1       3.461  29.509  53.822  1.00  0.00    -0.054 NA
HETATM    9  C   UNL     1       6.061  27.235  54.807  1.00  0.00     0.205 A 
HETATM   10  C   UNL     1       6.235  26.510  53.479  1.00  0.00     0.063 A 
HETATM   11  H   UNL     1       4.081  28.116  51.603  1.00  0.00     0.184 HD
ENDROOT
BRANCH   9  12
HETATM   12  C   UNL     1       7.361  27.831  55.353  1.00  0.00     0.005 A 
HETATM   13  C   UNL     1       7.793  27.636  56.682  1.00  0.00     0.083 A 
HETATM   14  C   UNL     1       8.992  28.214  57.114  1.00  0.00     0.037 A 
HETATM   15  C   UNL     1       9.773  28.966  56.235  1.00  0.00     0.003 A 
HETATM   16  C   UNL     1       9.358  29.160  54.923  1.00  0.00     0.001 A 
HETATM   17  C   UNL     1       8.159  28.600  54.485  1.00  0.00     0.012 A 
BRANCH  13  18
HETATM   18  O   UNL     1       6.958  26.924  57.499  1.00  0.00    -0.290 OA
BRANCH  18  19
HETATM   19  C   UNL     1       7.261  25.547  57.661  1.00  0.00     0.505 C 
HETATM   20  F   UNL     1       6.173  24.818  57.305  1.00  0.00    -0.184 F 
HETATM   21  F   UNL     1       8.231  25.243  56.761  1.00  0.00    -0.184 F 
ENDBRANCH  18  19
ENDBRANCH  13  18
ENDBRANCH   9  12
BRANCH  10  22
HETATM   22  C   UNL     1       7.178  25.366  53.540  1.00  0.00     0.256 C 
HETATM   23  N   UNL     1       6.605  24.220  54.045  1.00  0.00    -0.323 N 
HETATM   24  H   UNL     1       5.623  24.270  54.289  1.00  0.00     0.169 HD
HETATM   25  O   UNL     1       8.316  25.518  53.116  1.00  0.00    -0.267 OA
BRANCH  23  26
HETATM   26  C   UNL     1       7.227  22.973  54.253  1.00  0.00     0.035 A 
HETATM   27  C   UNL     1       7.446  22.411  55.513  1.00  0.00     0.029 A 
HETATM   28  C   UNL     1       8.063  21.162  55.635  1.00  0.00     0.002 A 
HETATM   29  C   UNL     1       8.459  20.461  54.500  1.00  0.00     0.000 A 
HETATM   30  C   UNL     1       8.245  21.011  53.240  1.00  0.00     0.002 A 
HETATM   31  C   UNL     1       7.636  22.263  53.117  1.00  0.00     0.029 A 
ENDBRANCH  23  26
ENDBRANCH  10  22
TORSDOF 5
ENDMDL
MODEL 2
REMARK VINA RESULT:      -7.9      2.617      3.325
REMARK  5 active torsions:
REMARK  status: ('A' for Active; 'I' for Inactive)
REMARK    1  A    between atoms: C_9  and  C_10 
REMARK    2  A    between atoms: C_11  and  O_12 
REMARK    3  A    between atoms: O_12  and  C_13 
REMARK    4  A    between atoms: C_20  and  C_21 
REMARK       I    between atoms: C_21  and  N_22 
REMARK    5  A    between atoms: N_22  and  C_23 
ROOT
HETATM    1  C   UNL     1       4.375  27.531  53.881  1.00  0.00     0.070 C 
HETATM    2  C   UNL     1       5.008  28.499  54.848  1.00  0.00     0.037 A 
HETATM    3  N   UNL     1       4.547  29.808  54.777  1.00  0.00    -0.192 N 
HETATM    4  C   UNL     1       4.895  30.764  55.660  1.00  0.00     0.725 A 
HETATM    5  N   UNL     1       5.816  30.479  56.633  1.00  0.00    -0.084 N 
HETATM    6  N   UNL     1       5.982  31.526  57.471  1.00  0.00    -0.149 NA
HETATM    7  C   UNL     1       5.158  32.421  56.914  1.00  0.00     0.275 A 
HETATM    8  N   UNL     1       4.480  31.997  55.801  1.00  0.00    -0.054 NA
HETATM    9  C   UNL     1       6.462  29.171  56.794  1.00  0.00     0.205 A 
HETATM   10  C   UNL     1       5.930  28.163  55.783  1.00  0.00     0.063 A 
HETATM   11  H   UNL     1       3.829  30.023  54.090  1.00  0.00     0.184 HD
ENDROOT
BRANCH   9  12
HETATM   12  C   UNL     1       7.985  29.322  56.764  1.00  0.00     0.005 A 
HETATM   13  C   UNL     1       8.765  29.444  57.932  1.00  0.00     0.083 A 
HETATM   14  C   UNL     1      10.154  29.582  57.830  1.00  0.00     0.037 A 
HETATM   15  C   UNL     1      10.775  29.580  56.579  1.00  0.00     0.003 A 
HETATM   16  C   UNL     1      10.015  29.457  55.422  1.00  0.00     0.001 A 
HETATM   17  C   UNL     1       8.630  29.332  55.512  1.00  0.00     0.012 A 
BRANCH  13  18
HETATM   18  O   UNL     1       8.087  29.478  59.120  1.00  0.00    -0.290 OA
BRANCH  18  19
HETATM   19  C   UNL     1       8.326  30.605  59.949  1.00  0.00     0.505 C 
HETATM   20  F   UNL     1       9.479  30.403  60.636  1.00  0.00    -0.184 F 
HETATM   21  F   UNL     1       8.556  31.662  59.129  1.00  0.00    -0.184 F 
ENDBRANCH  18  19
ENDBRANCH  13  18
ENDBRANCH   9  12
BRANCH  10  22
HETATM   22  C   UNL     1       6.450  26.787  55.981  1.00  0.00     0.256 C 
HETATM   23  N   UNL     1       7.075  26.280  54.863  1.00  0.00    -0.323 N 
HETATM   24  H   UNL     1       7.134  26.890  54.057  1.00  0.00     0.169 HD
HETATM   25  O   UNL     1       6.326  26.264  57.081  1.00  0.00    -0.267 OA
BRANCH  23  26
HETATM   26  C   UNL     1       7.653  25.004  54.713  1.00  0.00     0.035 A 
HETATM   27  C   UNL     1       8.358  24.343  55.721  1.00  0.00     0.029 A 
HETATM   28  C   UNL     1       8.894  23.071  55.495  1.00  0.00     0.002 A 
HETATM   29  C   UNL     1       8.724  22.446  54.263  1.00  0.00     0.000 A 
HETATM   30  C   UNL     1       8.022  23.095  53.251  1.00  0.00     0.002 A 
HETATM   31  C   UNL     1       7.493  24.369  53.474  1.00  0.00     0.029 A 
ENDBRANCH  23  26
ENDBRANCH  10  22
TORSDOF 5
ENDMDL
MODEL 3
REMARK VINA RESULT:      -7.8      2.379      5.549
REMARK  5 active torsions:
REMARK  status: ('A' for Active; 'I' for Inactive)
REMARK    1  A    between atoms: C_9  and  C_10 
REMARK    2  A    between atoms: C_11  and  O_12 
REMARK    3  A    between atoms: O_12  and  C_13 
REMARK    4  A    between atoms: C_20  and  C_21 
REMARK       I    between atoms: C_21  and  N_22 
REMARK    5  A    between atoms: N_22  and  C_23 
ROOT
HETATM    1  C   UNL     1       7.211  22.575  52.987  1.00  0.00     0.070 C 
HETATM    2  C   UNL     1       7.470  23.508  54.142  1.00  0.00     0.037 A 
HETATM    3  N   UNL     1       7.715  22.897  55.367  1.00  0.00    -0.192 N 
HETATM    4  C   UNL     1       8.107  23.571  56.465  1.00  0.00     0.725 A 
HETATM    5  N   UNL     1       8.191  24.937  56.422  1.00  0.00    -0.084 N 
HETATM    6  N   UNL     1       8.674  25.434  57.583  1.00  0.00    -0.149 NA
HETATM    7  C   UNL     1       8.818  24.308  58.292  1.00  0.00     0.275 A 
HETATM    8  N   UNL     1       8.475  23.148  57.648  1.00  0.00    -0.054 NA
HETATM    9  C   UNL     1       7.886  25.741  55.234  1.00  0.00     0.205 A 
HETATM   10  C   UNL     1       7.527  24.859  54.045  1.00  0.00     0.063 A 
HETATM   11  H   UNL     1       7.700  21.881  55.402  1.00  0.00     0.184 HD
ENDROOT
BRANCH   9  12
HETATM   12  C   UNL     1       6.821  26.791  55.560  1.00  0.00     0.005 A 
HETATM   13  C   UNL     1       7.023  28.173  55.365  1.00  0.00     0.083 A 
HETATM   14  C   UNL     1       6.005  29.077  55.689  1.00  0.00     0.037 A 
HETATM   15  C   UNL     1       4.783  28.620  56.185  1.00  0.00     0.003 A 
HETATM   16  C   UNL     1       4.572  27.259  56.376  1.00  0.00     0.001 A 
HETATM   17  C   UNL     1       5.584  26.351  56.070  1.00  0.00     0.012 A 
BRANCH  13  18
HETATM   18  O   UNL     1       8.258  28.553  54.915  1.00  0.00    -0.290 OA
BRANCH  18  19
HETATM   19  C   UNL     1       9.052  29.308  55.817  1.00  0.00     0.505 C 
HETATM   20  F   UNL     1       9.470  28.492  56.817  1.00  0.00    -0.184 F 
HETATM   21  F   UNL     1      10.169  29.686  55.145  1.00  0.00    -0.184 F 
ENDBRANCH  18  19
ENDBRANCH  13  18
ENDBRANCH   9  12
BRANCH  10  22
HETATM   22  C   UNL     1       7.336  25.610  52.779  1.00  0.00     0.256 C 
HETATM   23  N   UNL     1       6.024  25.963  52.553  1.00  0.00    -0.323 N 
HETATM   24  H   UNL     1       5.352  25.704  53.265  1.00  0.00     0.169 HD
HETATM   25  O   UNL     1       8.319  25.877  52.100  1.00  0.00    -0.267 OA
BRANCH  23  26
HETATM   26  C   UNL     1       5.505  26.657  51.441  1.00  0.00     0.035 A 
HETATM   27  C   UNL     1       4.936  26.033  50.329  1.00  0.00     0.029 A 
HETATM   28  C   UNL     1       4.433  26.795  49.269  1.00  0.00     0.002 A 
HETATM   29  C   UNL     1       4.489  28.185  49.315  1.00  0.00     0.000 A 
HETATM   30  C   UNL     1       5.053  28.817  50.420  1.00  0.00     0.002 A 
HETATM   31  C   UNL     1       5.562  28.056  51.475  1.00  0.00     0.029 A 
ENDBRANCH  23  26
ENDBRANCH  10  22
TORSDOF 5
ENDMDL
MODEL 4
REMARK VINA RESULT:      -7.7      5.134      8.610
REMARK  5 active torsions:
REMARK  status: ('A' for Active; 'I' for Inactive)
REMARK    1  A    between atoms: C_9  and  C_10 
REMARK    2  A    between atoms: C_11  and  O_12 
REMARK    3  A    between atoms: O_12  and  C_13 
REMARK    4  A    between atoms: C_20  and  C_21 
REMARK       I    between atoms: C_21  and  N_22 
REMARK    5  A    between atoms: N_22  and  C_23 
ROOT
HETATM    1  C   UNL     1      10.108  29.965  57.782  1.00  0.00     0.070 C 
HETATM    2  C   UNL     1       8.633  29.805  57.516  1.00  0.00     0.037 A 
HETATM    3  N   UNL     1       8.292  28.836  56.579  1.00  0.00    -0.192 N 
HETATM    4  C   UNL     1       7.022  28.462  56.330  1.00  0.00     0.725 A 
HETATM    5  N   UNL     1       5.993  29.116  56.955  1.00  0.00    -0.084 N 
HETATM    6  N   UNL     1       4.801  28.558  56.648  1.00  0.00    -0.149 NA
HETATM    7  C   UNL     1       5.189  27.599  55.799  1.00  0.00     0.275 A 
HETATM    8  N   UNL     1       6.538  27.512  55.572  1.00  0.00    -0.054 NA
HETATM    9  C   UNL     1       6.178  30.217  57.907  1.00  0.00     0.205 A 
HETATM   10  C   UNL     1       7.655  30.493  58.155  1.00  0.00     0.063 A 
HETATM   11  H   UNL     1       9.045  28.312  56.142  1.00  0.00     0.184 HD
ENDROOT
BRANCH   9  12
HETATM   12  C   UNL     1       5.393  31.450  57.454  1.00  0.00     0.005 A 
HETATM   13  C   UNL     1       4.577  32.201  58.326  1.00  0.00     0.083 A 
HETATM   14  C   UNL     1       3.885  33.317  57.841  1.00  0.00     0.037 A 
HETATM   15  C   UNL     1       4.012  33.705  56.506  1.00  0.00     0.003 A 
HETATM   16  C   UNL     1       4.817  32.974  55.640  1.00  0.00     0.001 A 
HETATM   17  C   UNL     1       5.500  31.853  56.109  1.00  0.00     0.012 A 
BRANCH  13  18
HETATM   18  O   UNL     1       4.467  31.741  59.610  1.00  0.00    -0.290 OA
BRANCH  18  19
HETATM   19  C   UNL     1       3.168  31.769  60.179  1.00  0.00     0.505 C 
HETATM   20  F   UNL     1       2.628  30.528  60.092  1.00  0.00    -0.184 F 
HETATM   21  F   UNL     1       3.319  32.023  61.504  1.00  0.00    -0.184 F 
ENDBRANCH  18  19
ENDBRANCH  13  18
ENDBRANCH   9  12
BRANCH  10  22
HETATM   22  C   UNL     1       7.905  31.507  59.209  1.00  0.00     0.256 C 
HETATM   23  N   UNL     1       7.247  31.235  60.388  1.00  0.00    -0.323 N 
HETATM   24  H   UNL     1       6.699  30.384  60.419  1.00  0.00     0.169 HD
HETATM   25  O   UNL     1       8.674  32.429  58.967  1.00  0.00    -0.267 OA
BRANCH  23  26
HETATM   26  C   UNL     1       7.256  32.005  61.569  1.00  0.00     0.035 A 
HETATM   27  C   UNL     1       7.986  31.672  62.712  1.00  0.00     0.029 A 
HETATM   28  C   UNL     1       7.949  32.496  63.842  1.00  0.00     0.002 A 
HETATM   29  C   UNL     1       7.189  33.661  63.836  1.00  0.00     0.000 A 
HETATM   30  C   UNL     1       6.458  34.003  62.702  1.00  0.00     0.002 A 
HETATM   31  C   UNL     1       6.489  33.177  61.576  1.00  0.00     0.029 A 
ENDBRANCH  23  26
ENDBRANCH  10  22
TORSDOF 5
ENDMDL
MODEL 5
REMARK VINA RESULT:      -7.6      8.204     11.523
REMARK  5 active torsions:
REMARK  status: ('A' for Active; 'I' for Inactive)
REMARK    1  A    between atoms: C_9  and  C_10 
REMARK    2  A    between atoms: C_11  and  O_12 
REMARK    3  A    between atoms: O_12  and  C_13 
REMARK    4  A    between atoms: C_20  and  C_21 
REMARK       I    between atoms: C_21  and  N_22 
REMARK    5  A    between atoms: N_22  and  C_23 
ROOT
HETATM    1  C   UNL     1       8.229  32.219  60.952  1.00  0.00     0.070 C 
HETATM    2  C   UNL     1       6.857  32.221  60.327  1.00  0.00     0.037 A 
HETATM    3  N   UNL     1       6.712  31.435  59.189  1.00  0.00    -0.192 N 
HETATM    4  C   UNL     1       5.526  31.207  58.593  1.00  0.00     0.725 A 
HETATM    5  N   UNL     1       4.405  31.841  59.060  1.00  0.00    -0.084 N 
HETATM    6  N   UNL     1       3.300  31.434  58.396  1.00  0.00    -0.149 NA
HETATM    7  C   UNL     1       3.842  30.585  57.515  1.00  0.00     0.275 A 
HETATM    8  N   UNL     1       5.200  30.424  57.597  1.00  0.00    -0.054 NA
HETATM    9  C   UNL     1       4.400  32.767  60.198  1.00  0.00     0.205 A 
HETATM   10  C   UNL     1       5.783  32.882  60.825  1.00  0.00     0.063 A 
HETATM   11  H   UNL     1       7.526  30.923  58.859  1.00  0.00     0.184 HD
ENDROOT
BRANCH   9  12
HETATM   12  C   UNL     1       3.802  34.115  59.785  1.00  0.00     0.005 A 
HETATM   13  C   UNL     1       2.684  34.685  60.428  1.00  0.00     0.083 A 
HETATM   14  C   UNL     1       2.189  35.921  59.995  1.00  0.00     0.037 A 
HETATM   15  C   UNL     1       2.806  36.602  58.943  1.00  0.00     0.003 A 
HETATM   16  C   UNL     1       3.911  36.049  58.307  1.00  0.00     0.001 A 
HETATM   17  C   UNL     1       4.404  34.814  58.721  1.00  0.00     0.012 A 
BRANCH  13  18
HETATM   18  O   UNL     1       2.106  33.944  61.422  1.00  0.00    -0.290 OA
BRANCH  18  19
HETATM   19  C   UNL     1       1.836  34.624  62.638  1.00  0.00     0.505 C 
HETATM   20  F   UNL     1       1.638  33.705  63.616  1.00  0.00    -0.184 F 
HETATM   21  F   UNL     1       2.965  35.298  62.977  1.00  0.00    -0.184 F 
ENDBRANCH  18  19
ENDBRANCH  13  18
ENDBRANCH   9  12
BRANCH  10  22
HETATM   22  C   UNL     1       5.813  33.703  62.061  1.00  0.00     0.256 C 
HETATM   23  N   UNL     1       5.689  32.954  63.211  1.00  0.00    -0.323 N 
HETATM   24  H   UNL     1       5.618  31.950  63.095  1.00  0.00     0.169 HD
HETATM   25  O   UNL     1       5.985  34.911  61.961  1.00  0.00    -0.267 OA
BRANCH  23  26
HETATM   26  C   UNL     1       5.659  33.425  64.538  1.00  0.00     0.035 A 
HETATM   27  C   UNL     1       4.484  33.685  65.247  1.00  0.00     0.029 A 
HETATM   28  C   UNL     1       4.539  34.141  66.568  1.00  0.00     0.002 A 
HETATM   29  C   UNL     1       5.767  34.335  67.193  1.00  0.00     0.000 A 
HETATM   30  C   UNL     1       6.944  34.078  66.497  1.00  0.00     0.002 A 
HETATM   31  C   UNL     1       6.890  33.629  65.175  1.00  0.00     0.029 A 
ENDBRANCH  23  26
ENDBRANCH  10  22
TORSDOF 5
ENDMDL
MODEL 6
REMARK VINA RESULT:      -7.5      6.562      9.976
REMARK  5 active torsions:
REMARK  status: ('A' for Active; 'I' for Inactive)
REMARK    1  A    between atoms: C_9  and  C_10 
REMARK    2  A    between atoms: C_11  and  O_12 
REMARK    3  A    between atoms: O_12  and  C_13 
REMARK    4  A    between atoms: C_20  and  C_21 
REMARK       I    between atoms: C_21  and  N_22 
REMARK    5  A    between atoms: N_22  and  C_23 
ROOT
HETATM    1  C   UNL     1       1.924  34.645  60.487  1.00  0.00     0.070 C 
HETATM    2  C   UNL     1       2.897  34.346  59.376  1.00  0.00     0.037 A 
HETATM    3  N   UNL     1       2.545  34.829  58.121  1.00  0.00    -0.192 N 
HETATM    4  C   UNL     1       3.363  34.781  57.052  1.00  0.00     0.725 A 
HETATM    5  N   UNL     1       4.574  34.148  57.159  1.00  0.00    -0.084 N 
HETATM    6  N   UNL     1       5.290  34.266  56.019  1.00  0.00    -0.149 NA
HETATM    7  C   UNL     1       4.427  34.947  55.256  1.00  0.00     0.275 A 
HETATM    8  N   UNL     1       3.235  35.274  55.847  1.00  0.00    -0.054 NA
HETATM    9  C   UNL     1       5.061  33.512  58.388  1.00  0.00     0.205 A 
HETATM   10  C   UNL     1       4.079  33.700  59.537  1.00  0.00     0.063 A 
HETATM   11  H   UNL     1       1.670  35.340  58.037  1.00  0.00     0.184 HD
ENDROOT
BRANCH   9  12
HETATM   12  C   UNL     1       5.419  32.047  58.124  1.00  0.00     0.005 A 
HETATM   13  C   UNL     1       6.694  31.510  58.399  1.00  0.00     0.083 A 
HETATM   14  C   UNL     1       6.952  30.161  58.128  1.00  0.00     0.037 A 
HETATM   15  C   UNL     1       5.951  29.339  57.606  1.00  0.00     0.003 A 
HETATM   16  C   UNL     1       4.691  29.859  57.336  1.00  0.00     0.001 A 
HETATM   17  C   UNL     1       4.427  31.203  57.589  1.00  0.00     0.012 A 
BRANCH  13  18
HETATM   18  O   UNL     1       7.637  32.381  58.870  1.00  0.00    -0.290 OA
BRANCH  18  19
HETATM   19  C   UNL     1       8.853  31.807  59.323  1.00  0.00     0.505 C 
HETATM   20  F   UNL     1       9.811  32.020  58.386  1.00  0.00    -0.184 F 
HETATM   21  F   UNL     1       9.239  32.505  60.422  1.00  0.00    -0.184 F 
ENDBRANCH  18  19
ENDBRANCH  13  18
ENDBRANCH   9  12
BRANCH  10  22
HETATM   22  C   UNL     1       4.576  33.191  60.840  1.00  0.00     0.256 C 
HETATM   23  N   UNL     1       5.334  34.115  61.526  1.00  0.00    -0.323 N 
HETATM   24  H   UNL     1       5.446  35.024  61.094  1.00  0.00     0.169 HD
HETATM   25  O   UNL     1       4.249  32.067  61.196  1.00  0.00    -0.267 OA
BRANCH  23  26
HETATM   26  C   UNL     1       5.967  33.943  62.773  1.00  0.00     0.035 A 
HETATM   27  C   UNL     1       5.501  34.496  63.968  1.00  0.00     0.029 A 
HETATM   28  C   UNL     1       6.182  34.270  65.168  1.00  0.00     0.002 A 
HETATM   29  C   UNL     1       7.331  33.484  65.185  1.00  0.00     0.000 A 
HETATM   30  C   UNL     1       7.804  32.927  64.000  1.00  0.00     0.002 A 
HETATM   31  C   UNL     1       7.128  33.159  62.800  1.00  0.00     0.029 A 
ENDBRANCH  23  26
ENDBRANCH  10  22
TORSDOF 5
ENDMDL
MODEL 7
REMARK VINA RESULT:      -7.3      9.401     12.593
REMARK  5 active torsions:
REMARK  status: ('A' for Active; 'I' for Inactive)
REMARK    1  A    between atoms: C_9  and  C_10 
REMARK    2  A    between atoms: C_11  and  O_12 
REMARK    3  A    between atoms: O_12  and  C_13 
REMARK    4  A    between atoms: C_20  and  C_21 
REMARK       I    between atoms: C_21  and  N_22 
REMARK    5  A    between atoms: N_22  and  C_23 
ROOT
HETATM    1  C   UNL     1       7.767  31.509  62.212  1.00  0.00     0.070 C 
HETATM    2  C   UNL     1       6.722  32.319  61.489  1.00  0.00     0.037 A 
HETATM    3  N   UNL     1       6.833  32.345  60.103  1.00  0.00    -0.192 N 
HETATM    4  C   UNL     1       5.905  32.895  59.297  1.00  0.00     0.725 A 
HETATM    5  N   UNL     1       4.834  33.546  59.849  1.00  0.00    -0.084 N 
HETATM    6  N   UNL     1       3.970  33.963  58.896  1.00  0.00    -0.149 NA
HETATM    7  C   UNL     1       4.611  33.563  57.792  1.00  0.00     0.275 A 
HETATM    8  N   UNL     1       5.801  32.914  57.993  1.00  0.00    -0.054 NA
HETATM    9  C   UNL     1       4.612  33.684  61.293  1.00  0.00     0.205 A 
HETATM   10  C   UNL     1       5.689  32.959  62.090  1.00  0.00     0.063 A 
HETATM   11  H   UNL     1       7.597  31.827  59.678  1.00  0.00     0.184 HD
ENDROOT
BRANCH   9  12
HETATM   12  C   UNL     1       4.462  35.160  61.671  1.00  0.00     0.005 A 
HETATM   13  C   UNL     1       3.301  35.679  62.281  1.00  0.00     0.083 A 
HETATM   14  C   UNL     1       3.231  37.041  62.596  1.00  0.00     0.037 A 
HETATM   15  C   UNL     1       4.310  37.886  62.328  1.00  0.00     0.003 A 
HETATM   16  C   UNL     1       5.460  37.382  61.732  1.00  0.00     0.001 A 
HETATM   17  C   UNL     1       5.535  36.031  61.402  1.00  0.00     0.012 A 
BRANCH  13  18
HETATM   18  O   UNL     1       2.268  34.803  62.476  1.00  0.00    -0.290 OA
BRANCH  18  19
HETATM   19  C   UNL     1       1.175  34.908  61.577  1.00  0.00     0.505 C 
HETATM   20  F   UNL     1       1.284  33.929  60.644  1.00  0.00    -0.184 F 
HETATM   21  F   UNL     1       0.049  34.633  62.284  1.00  0.00    -0.184 F 
ENDBRANCH  18  19
ENDBRANCH  13  18
ENDBRANCH   9  12
BRANCH  10  22
HETATM   22  C   UNL     1       5.446  32.951  63.555  1.00  0.00     0.256 C 
HETATM   23  N   UNL     1       5.935  34.072  64.189  1.00  0.00    -0.323 N 
HETATM   24  H   UNL     1       6.372  34.774  63.603  1.00  0.00     0.169 HD
HETATM   25  O   UNL     1       4.823  32.018  64.042  1.00  0.00    -0.267 OA
BRANCH  23  26
HETATM   26  C   UNL     1       5.888  34.363  65.567  1.00  0.00     0.035 A 
HETATM   27  C   UNL     1       6.869  33.970  66.481  1.00  0.00     0.029 A 
HETATM   28  C   UNL     1       6.754  34.308  67.833  1.00  0.00     0.002 A 
HETATM   29  C   UNL     1       5.663  35.045  68.282  1.00  0.00     0.000 A 
HETATM   30  C   UNL     1       4.680  35.443  67.381  1.00  0.00     0.002 A 
HETATM   31  C   UNL     1       4.791  35.099  66.030  1.00  0.00     0.029 A 
ENDBRANCH  23  26
ENDBRANCH  10  22
TORSDOF 5
ENDMDL
MODEL 8
REMARK VINA RESULT:      -7.2      4.228      6.416
REMARK  5 active torsions:
REMARK  status: ('A' for Active; 'I' for Inactive)
REMARK    1  A    between atoms: C_9  and  C_10 
REMARK    2  A    between atoms: C_11  and  O_12 
REMARK    3  A    between atoms: O_12  and  C_13 
REMARK    4  A    between atoms: C_20  and  C_21 
REMARK       I    between atoms: C_21  and  N_22 
REMARK    5  A    between atoms: N_22  and  C_23 
ROOT
HETATM    1  C   UNL     1       4.382  29.519  54.458  1.00  0.00     0.070 C 
HETATM    2  C   UNL     1       4.653  29.659  52.982  1.00  0.00     0.037 A 
HETATM    3  N   UNL     1       4.603  30.955  52.481  1.00  0.00    -0.192 N 
HETATM    4  C   UNL     1       4.961  31.276  51.223  1.00  0.00     0.725 A 
HETATM    5  N   UNL     1       5.313  30.283  50.348  1.00  0.00    -0.084 N 
HETATM    6  N   UNL     1       5.716  30.794  49.164  1.00  0.00    -0.149 NA
HETATM    7  C   UNL     1       5.540  32.101  49.387  1.00  0.00     0.275 A 
HETATM    8  N   UNL     1       5.072  32.438  50.630  1.00  0.00    -0.054 NA
HETATM    9  C   UNL     1       5.337  28.857  50.692  1.00  0.00     0.205 A 
HETATM   10  C   UNL     1       4.983  28.634  52.157  1.00  0.00     0.063 A 
HETATM   11  H   UNL     1       4.387  31.707  53.130  1.00  0.00     0.184 HD
ENDROOT
BRANCH   9  12
HETATM   12  C   UNL     1       4.459  28.060  49.724  1.00  0.00     0.005 A 
HETATM   13  C   UNL     1       3.067  28.256  49.614  1.00  0.00     0.083 A 
HETATM   14  C   UNL     1       2.326  27.489  48.708  1.00  0.00     0.037 A 
HETATM   15  C   UNL     1       2.958  26.544  47.898  1.00  0.00     0.003 A 
HETATM   16  C   UNL     1       4.331  26.346  47.995  1.00  0.00     0.001 A 
HETATM   17  C   UNL     1       5.076  27.095  48.903  1.00  0.00     0.012 A 
BRANCH  13  18
HETATM   18  O   UNL     1       2.508  29.169  50.467  1.00  0.00    -0.290 OA
BRANCH  18  19
HETATM   19  C   UNL     1       1.731  30.194  49.870  1.00  0.00     0.505 C 
HETATM   20  F   UNL     1       1.560  31.192  50.774  1.00  0.00    -0.184 F 
HETATM   21  F   UNL     1       2.471  30.721  48.862  1.00  0.00    -0.184 F 
ENDBRANCH  18  19
ENDBRANCH  13  18
ENDBRANCH   9  12
BRANCH  10  22
HETATM   22  C   UNL     1       5.118  27.224  52.598  1.00  0.00     0.256 C 
HETATM   23  N   UNL     1       6.426  26.849  52.814  1.00  0.00    -0.323 N 
HETATM   24  H   UNL     1       7.133  27.561  52.678  1.00  0.00     0.169 HD
HETATM   25  O   UNL     1       4.104  26.561  52.769  1.00  0.00    -0.267 OA
BRANCH  23  26
HETATM   26  C   UNL     1       6.897  25.582  53.215  1.00  0.00     0.035 A 
HETATM   27  C   UNL     1       6.731  25.059  54.499  1.00  0.00     0.029 A 
HETATM   28  C   UNL     1       7.219  23.787  54.814  1.00  0.00     0.002 A 
HETATM   29  C   UNL     1       7.871  23.025  53.849  1.00  0.00     0.000 A 
HETATM   30  C   UNL     1       8.041  23.537  52.566  1.00  0.00     0.002 A 
HETATM   31  C   UNL     1       7.560  24.811  52.252  1.00  0.00     0.029 A 
ENDBRANCH  23  26
ENDBRANCH  10  22
TORSDOF 5
ENDMDL
MODEL 9
REMARK VINA RESULT:      -7.1      2.643      5.933
REMARK  5 active torsions:
REMARK  status: ('A' for Active; 'I' for Inactive)
REMARK    1  A    between atoms: C_9  and  C_10 
REMARK    2  A    between atoms: C_11  and  O_12 
REMARK    3  A    between atoms: O_12  and  C_13 
REMARK    4  A    between atoms: C_20  and  C_21 
REMARK       I    between atoms: C_21  and  N_22 
REMARK    5  A    between atoms: N_22  and  C_23 
ROOT
HETATM    1  C   UNL     1       4.969  24.791  52.628  1.00  0.00     0.070 C 
HETATM    2  C   UNL     1       5.815  25.274  53.778  1.00  0.00     0.037 A 
HETATM    3  N   UNL     1       6.228  24.295  54.675  1.00  0.00    -0.192 N 
HETATM    4  C   UNL     1       7.105  24.526  55.671  1.00  0.00     0.725 A 
HETATM    5  N   UNL     1       7.559  25.800  55.886  1.00  0.00    -0.084 N 
HETATM    6  N   UNL     1       8.487  25.830  56.868  1.00  0.00    -0.149 NA
HETATM    7  C   UNL     1       8.507  24.541  57.226  1.00  0.00     0.275 A 
HETATM    8  N   UNL     1       7.671  23.712  56.524  1.00  0.00    -0.054 NA
HETATM    9  C   UNL     1       7.157  26.961  55.083  1.00  0.00     0.205 A 
HETATM   10  C   UNL     1       6.224  26.556  53.950  1.00  0.00     0.063 A 
HETATM   11  H   UNL     1       5.935  23.338  54.501  1.00  0.00     0.184 HD
ENDROOT
BRANCH   9  12
HETATM   12  C   UNL     1       6.584  28.058  55.984  1.00  0.00     0.005 A 
HETATM   13  C   UNL     1       7.267  29.263  56.252  1.00  0.00     0.083 A 
HETATM   14  C   UNL     1       6.683  30.222  57.088  1.00  0.00     0.037 A 
HETATM   15  C   UNL     1       5.422  30.002  57.644  1.00  0.00     0.003 A 
HETATM   16  C   UNL     1       4.739  28.820  57.383  1.00  0.00     0.001 A 
HETATM   17  C   UNL     1       5.317  27.853  56.562  1.00  0.00     0.012 A 
BRANCH  13  18
HETATM   18  O   UNL     1       8.515  29.393  55.707  1.00  0.00    -0.290 OA
BRANCH  18  19
HETATM   19  C   UNL     1       9.566  29.706  56.608  1.00  0.00     0.505 C 
HETATM   20  F   UNL     1       9.901  28.584  57.292  1.00  0.00    -0.184 F 
HETATM   21  F   UNL     1      10.650  30.031  55.859  1.00  0.00    -0.184 F 
ENDBRANCH  18  19
ENDBRANCH  13  18
ENDBRANCH   9  12
BRANCH  10  22
HETATM   22  C   UNL     1       5.888  27.666  53.025  1.00  0.00     0.256 C 
HETATM   23  N   UNL     1       4.538  27.935  52.972  1.00  0.00    -0.323 N 
HETATM   24  H   UNL     1       3.938  27.380  53.572  1.00  0.00     0.169 HD
HETATM   25  O   UNL     1       6.798  28.250  52.451  1.00  0.00    -0.267 OA
BRANCH  23  26
HETATM   26  C   UNL     1       3.890  28.906  52.182  1.00  0.00     0.035 A 
HETATM   27  C   UNL     1       3.518  30.169  52.648  1.00  0.00     0.029 A 
HETATM   28  C   UNL     1       2.887  31.081  51.796  1.00  0.00     0.002 A 
HETATM   29  C   UNL     1       2.629  30.741  50.471  1.00  0.00     0.000 A 
HETATM   30  C   UNL     1       2.996  29.486  49.997  1.00  0.00     0.002 A 
HETATM   31  C   UNL     1       3.619  28.571  50.850  1.00  0.00     0.029 A 
ENDBRANCH  23  26
ENDBRANCH  10  22
TORSDOF 5
ENDMDL
MODEL 10
REMARK VINA RESULT:      -6.9      7.654     10.713
REMARK  5 active torsions:
REMARK  status: ('A' for Active; 'I' for Inactive)
REMARK    1  A    between atoms: C_9  and  C_10 
REMARK    2  A    between atoms: C_11  and  O_12 
REMARK    3  A    between atoms: O_12  and  C_13 
REMARK    4  A    between atoms: C_20  and  C_21 
REMARK       I    between atoms: C_21  and  N_22 
REMARK    5  A    between atoms: N_22  and  C_23 
ROOT
HETATM    1  C   UNL     1       6.683  31.219  58.437  1.00  0.00     0.070 C 
HETATM    2  C   UNL     1       5.490  32.073  58.095  1.00  0.00     0.037 A 
HETATM    3  N   UNL     1       5.185  32.168  56.742  1.00  0.00    -0.192 N 
HETATM    4  C   UNL     1       4.073  32.766  56.273  1.00  0.00     0.725 A 
HETATM    5  N   UNL     1       3.229  33.397  57.148  1.00  0.00    -0.084 N 
HETATM    6  N   UNL     1       2.132  33.869  56.514  1.00  0.00    -0.149 NA
HETATM    7  C   UNL     1       2.407  33.520  55.252  1.00  0.00     0.275 A 
HETATM    8  N   UNL     1       3.588  32.852  55.061  1.00  0.00    -0.054 NA
HETATM    9  C   UNL     1       3.448  33.463  58.597  1.00  0.00     0.205 A 
HETATM   10  C   UNL     1       4.695  32.690  59.005  1.00  0.00     0.063 A 
HETATM   11  H   UNL     1       5.778  31.667  56.086  1.00  0.00     0.184 HD
ENDROOT
BRANCH   9  12
HETATM   12  C   UNL     1       3.449  34.919  59.070  1.00  0.00     0.005 A 
HETATM   13  C   UNL     1       2.722  35.359  60.195  1.00  0.00     0.083 A 
HETATM   14  C   UNL     1       2.767  36.707  60.569  1.00  0.00     0.037 A 
HETATM   15  C   UNL     1       3.543  37.616  59.847  1.00  0.00     0.003 A 
HETATM   16  C   UNL     1       4.267  37.191  58.739  1.00  0.00     0.001 A 
HETATM   17  C   UNL     1       4.218  35.854  58.351  1.00  0.00     0.012 A 
BRANCH  13  18
HETATM   18  O   UNL     1       1.951  34.423  60.830  1.00  0.00    -0.290 OA
BRANCH  18  19
HETATM   19  C   UNL     1       1.694  34.649  62.207  1.00  0.00     0.505 C 
HETATM   20  F   UNL     1       0.357  34.555  62.421  1.00  0.00    -0.184 F 
HETATM   21  F   UNL     1       2.259  33.623  62.893  1.00  0.00    -0.184 F 
ENDBRANCH  18  19
ENDBRANCH  13  18
ENDBRANCH   9  12
BRANCH  10  22
HETATM   22  C   UNL     1       4.897  32.610  60.473  1.00  0.00     0.256 C 
HETATM   23  N   UNL     1       5.957  33.370  60.915  1.00  0.00    -0.323 N 
HETATM   24  H   UNL     1       6.456  33.908  60.216  1.00  0.00     0.169 HD
HETATM   25  O   UNL     1       4.114  31.944  61.138  1.00  0.00    -0.267 OA
BRANCH  23  26
HETATM   26  C   UNL     1       6.425  33.496  62.238  1.00  0.00     0.035 A 
HETATM   27  C   UNL     1       7.476  32.743  62.768  1.00  0.00     0.029 A 
HETATM   28  C   UNL     1       7.889  32.936  64.090  1.00  0.00     0.002 A 
HETATM   29  C   UNL     1       7.261  33.885  64.891  1.00  0.00     0.000 A 
HETATM   30  C   UNL     1       6.214  34.642  64.373  1.00  0.00     0.002 A 
HETATM   31  C   UNL     1       5.796  34.445  63.054  1.00  0.00     0.029 A 
ENDBRANCH  23  26
ENDBRANCH  10  22
TORSDOF 5
ENDMDL
