MODEL 1
REMARK VINA RESULT:      -8.9      0.000      0.000
REMARK  5 active torsions:
REMARK  status: ('A' for Active; 'I' for Inactive)
REMARK    1  A    between atoms: C_2  and  N_3 
REMARK    2  A    between atoms: C_2  and  C_19 
REMARK       I    between atoms: N_3  and  C_4 
REMARK    3  A    between atoms: C_4  and  C_5 
REMARK    4  A    between atoms: C_7  and  O_8 
REMARK    5  A    between atoms: O_8  and  C_9 
ROOT
HETATM    1  C   UNL     1       5.795  27.096  55.483  1.00  0.00     0.146 A 
HETATM    2  O   UNL     1       6.891  27.118  56.309  1.00  0.00    -0.282 OA
HETATM    3  C   UNL     1       6.668  28.093  57.235  1.00  0.00     0.191 A 
HETATM    4  C   UNL     1       5.430  28.662  57.048  1.00  0.00     0.067 A 
HETATM    5  C   UNL     1       4.881  28.046  55.900  1.00  0.00     0.048 A 
ENDROOT
BRANCH   1   6
HETATM    6  C   UNL     1       5.747  26.161  54.378  1.00  0.00     0.276 C 
HETATM    7  N   UNL     1       6.816  25.297  54.325  1.00  0.00    -0.347 N 
HETATM    8  H   UNL     1       7.534  25.399  55.033  1.00  0.00     0.163 HD
HETATM    9  O   UNL     1       4.829  26.129  53.564  1.00  0.00    -0.265 OA
BRANCH   7  10
HETATM   10  C   UNL     1       6.977  24.316  53.271  1.00  0.00     0.114 C 
HETATM   11  C   UNL     1       7.929  24.835  52.192  1.00  0.00     0.037 C 
BRANCH  10  12
HETATM   12  C   UNL     1       7.420  22.990  53.856  1.00  0.00    -0.033 A 
HETATM   13  C   UNL     1       7.814  21.951  53.004  1.00  0.00     0.028 A 
HETATM   14  C   UNL     1       8.207  20.742  53.556  1.00  0.00     0.116 A 
HETATM   15  N   UNL     1       8.230  20.496  54.882  1.00  0.00    -0.273 NA
HETATM   16  C   UNL     1       7.835  21.501  55.690  1.00  0.00     0.116 A 
HETATM   17  C   UNL     1       7.427  22.746  55.234  1.00  0.00     0.028 A 
ENDBRANCH  10  12
ENDBRANCH   7  10
ENDBRANCH   1   6
BRANCH   3  18
HETATM   18  O   UNL     1       7.605  28.277  58.160  1.00  0.00    -0.286 OA
BRANCH  18  19
HETATM   19  C   UNL     1       8.710  29.066  57.927  1.00  0.00     0.100 A 
HETATM   20  C   UNL     1       8.821  30.273  58.627  1.00  0.00     0.068 A 
HETATM   21 CL   UNL     1       7.661  30.732  59.822  1.00  0.00    -0.081 Cl
HETATM   22  C   UNL     1       9.883  31.143  58.366  1.00  0.00     0.026 A 
HETATM   23  C   UNL     1      10.833  30.816  57.397  1.00  0.00     0.002 A 
HETATM   24  C   UNL     1      10.720  29.620  56.688  1.00  0.00     0.003 A 
HETATM   25  C   UNL     1       9.659  28.750  56.947  1.00  0.00     0.039 A 
ENDBRANCH  18  19
ENDBRANCH   3  18
TORSDOF 5
ENDMDL
MODEL 2
REMARK VINA RESULT:      -8.7      1.599      2.154
REMARK  5 active torsions:
REMARK  status: ('A' for Active; 'I' for Inactive)
REMARK    1  A    between atoms: C_2  and  N_3 
REMARK    2  A    between atoms: C_2  and  C_19 
REMARK       I    between atoms: N_3  and  C_4 
REMARK    3  A    between atoms: C_4  and  C_5 
REMARK    4  A    between atoms: C_7  and  O_8 
REMARK    5  A    between atoms: O_8  and  C_9 
ROOT
HETATM    1  C   UNL     1       7.055  26.550  56.053  1.00  0.00     0.146 A 
HETATM    2  O   UNL     1       7.330  27.850  55.706  1.00  0.00    -0.282 OA
HETATM    3  C   UNL     1       7.776  28.473  56.833  1.00  0.00     0.191 A 
HETATM    4  C   UNL     1       7.837  27.587  57.883  1.00  0.00     0.067 A 
HETATM    5  C   UNL     1       7.340  26.358  57.392  1.00  0.00     0.048 A 
ENDROOT
BRANCH   1   6
HETATM    6  C   UNL     1       6.543  25.634  55.055  1.00  0.00     0.276 C 
HETATM    7  N   UNL     1       7.475  24.743  54.577  1.00  0.00    -0.347 N 
HETATM    8  H   UNL     1       8.418  24.814  54.941  1.00  0.00     0.163 HD
HETATM    9  O   UNL     1       5.375  25.639  54.674  1.00  0.00    -0.265 OA
BRANCH   7  10
HETATM   10  C   UNL     1       7.172  23.774  53.543  1.00  0.00     0.114 C 
HETATM   11  C   UNL     1       7.708  24.245  52.190  1.00  0.00     0.037 C 
BRANCH  10  12
HETATM   12  C   UNL     1       7.697  22.409  53.939  1.00  0.00    -0.033 A 
HETATM   13  C   UNL     1       8.169  21.533  52.953  1.00  0.00     0.028 A 
HETATM   14  C   UNL     1       8.636  20.284  53.332  1.00  0.00     0.116 A 
HETATM   15  N   UNL     1       8.662  19.849  54.609  1.00  0.00    -0.273 NA
HETATM   16  C   UNL     1       8.192  20.698  55.546  1.00  0.00     0.116 A 
HETATM   17  C   UNL     1       7.706  21.966  55.267  1.00  0.00     0.028 A 
ENDBRANCH  10  12
ENDBRANCH   7  10
ENDBRANCH   1   6
BRANCH   3  18
HETATM   18  O   UNL     1       8.125  29.752  56.721  1.00  0.00    -0.286 OA
BRANCH  18  19
HETATM   19  C   UNL     1       8.247  30.569  57.823  1.00  0.00     0.100 A 
HETATM   20  C   UNL     1       9.533  30.859  58.295  1.00  0.00     0.068 A 
HETATM   21 CL   UNL     1      10.942  30.289  57.474  1.00  0.00    -0.081 Cl
HETATM   22  C   UNL     1       9.703  31.619  59.454  1.00  0.00     0.026 A 
HETATM   23  C   UNL     1       8.589  32.086  60.154  1.00  0.00     0.002 A 
HETATM   24  C   UNL     1       7.305  31.791  59.695  1.00  0.00     0.003 A 
HETATM   25  C   UNL     1       7.133  31.029  58.537  1.00  0.00     0.039 A 
ENDBRANCH  18  19
ENDBRANCH   3  18
TORSDOF 5
ENDMDL
MODEL 3
REMARK VINA RESULT:      -8.6      3.411      7.479
REMARK  5 active torsions:
REMARK  status: ('A' for Active; 'I' for Inactive)
REMARK    1  A    between atoms: C_2  and  N_3 
REMARK    2  A    between atoms: C_2  and  C_19 
REMARK       I    between atoms: N_3  and  C_4 
REMARK    3  A    between atoms: C_4  and  C_5 
REMARK    4  A    between atoms: C_7  and  O_8 
REMARK    5  A    between atoms: O_8  and  C_9 
ROOT
HETATM    1  C   UNL     1       6.254  26.313  53.837  1.00  0.00     0.146 A 
HETATM    2  O   UNL     1       7.401  25.607  54.100  1.00  0.00    -0.282 OA
HETATM    3  C   UNL     1       7.260  24.389  53.503  1.00  0.00     0.191 A 
HETATM    4  C   UNL     1       6.067  24.320  52.823  1.00  0.00     0.067 A 
HETATM    5  C   UNL     1       5.402  25.544  53.066  1.00  0.00     0.048 A 
ENDROOT
BRANCH   1   6
HETATM    6  C   UNL     1       6.101  27.655  54.361  1.00  0.00     0.276 C 
HETATM    7  N   UNL     1       6.799  27.889  55.522  1.00  0.00    -0.347 N 
HETATM    8  H   UNL     1       7.331  27.119  55.911  1.00  0.00     0.163 HD
HETATM    9  O   UNL     1       5.419  28.517  53.813  1.00  0.00    -0.265 OA
BRANCH   7  10
HETATM   10  C   UNL     1       6.742  29.154  56.227  1.00  0.00     0.114 C 
HETATM   11  C   UNL     1       5.723  29.091  57.366  1.00  0.00     0.037 C 
BRANCH  10  12
HETATM   12  C   UNL     1       8.126  29.549  56.700  1.00  0.00    -0.033 A 
HETATM   13  C   UNL     1       9.232  29.345  55.864  1.00  0.00     0.028 A 
HETATM   14  C   UNL     1      10.492  29.704  56.317  1.00  0.00     0.116 A 
HETATM   15  N   UNL     1      10.727  30.241  57.532  1.00  0.00    -0.273 NA
HETATM   16  C   UNL     1       9.655  30.420  58.331  1.00  0.00     0.116 A 
HETATM   17  C   UNL     1       8.356  30.095  57.968  1.00  0.00     0.028 A 
ENDBRANCH  10  12
ENDBRANCH   7  10
ENDBRANCH   1   6
BRANCH   3  18
HETATM   18  O   UNL     1       8.277  23.539  53.613  1.00  0.00    -0.286 OA
BRANCH  18  19
HETATM   19  C   UNL     1       8.351  22.627  54.643  1.00  0.00     0.100 A 
HETATM   20  C   UNL     1       8.261  21.266  54.331  1.00  0.00     0.068 A 
HETATM   21 CL   UNL     1       8.151  20.723  52.695  1.00  0.00    -0.081 Cl
HETATM   22  C   UNL     1       8.252  20.309  55.349  1.00  0.00     0.026 A 
HETATM   23  C   UNL     1       8.324  20.708  56.684  1.00  0.00     0.002 A 
HETATM   24  C   UNL     1       8.402  22.064  57.002  1.00  0.00     0.003 A 
HETATM   25  C   UNL     1       8.409  23.022  55.986  1.00  0.00     0.039 A 
ENDBRANCH  18  19
ENDBRANCH   3  18
TORSDOF 5
ENDMDL
MODEL 4
REMARK VINA RESULT:      -8.6      5.362      8.029
REMARK  5 active torsions:
REMARK  status: ('A' for Active; 'I' for Inactive)
REMARK    1  A    between atoms: C_2  and  N_3 
REMARK    2  A    between atoms: C_2  and  C_19 
REMARK       I    between atoms: N_3  and  C_4 
REMARK    3  A    between atoms: C_4  and  C_5 
REMARK    4  A    between atoms: C_7  and  O_8 
REMARK    5  A    between atoms: O_8  and  C_9 
ROOT
HETATM    1  C   UNL     1       5.775  26.086  51.848  1.00  0.00     0.146 A 
HETATM    2  O   UNL     1       7.053  25.591  51.915  1.00  0.00    -0.282 OA
HETATM    3  C   UNL     1       7.061  24.649  52.900  1.00  0.00     0.191 A 
HETATM    4  C   UNL     1       5.803  24.497  53.432  1.00  0.00     0.067 A 
HETATM    5  C   UNL     1       4.981  25.446  52.781  1.00  0.00     0.048 A 
ENDROOT
BRANCH   1   6
HETATM    6  C   UNL     1       5.457  27.127  50.892  1.00  0.00     0.276 C 
HETATM    7  N   UNL     1       5.106  26.659  49.647  1.00  0.00    -0.347 N 
HETATM    8  H   UNL     1       5.118  25.656  49.504  1.00  0.00     0.163 HD
HETATM    9  O   UNL     1       5.483  28.323  51.168  1.00  0.00    -0.265 OA
BRANCH   7  10
HETATM   10  C   UNL     1       4.795  27.542  48.541  1.00  0.00     0.114 C 
HETATM   11  C   UNL     1       5.712  27.257  47.350  1.00  0.00     0.037 C 
BRANCH  10  12
HETATM   12  C   UNL     1       3.325  27.436  48.187  1.00  0.00    -0.033 A 
HETATM   13  C   UNL     1       2.918  26.582  47.154  1.00  0.00     0.028 A 
HETATM   14  C   UNL     1       1.571  26.505  46.838  1.00  0.00     0.116 A 
HETATM   15  N   UNL     1       0.611  27.214  47.467  1.00  0.00    -0.273 NA
HETATM   16  C   UNL     1       1.019  28.042  48.451  1.00  0.00     0.116 A 
HETATM   17  C   UNL     1       2.342  28.187  48.842  1.00  0.00     0.028 A 
ENDBRANCH  10  12
ENDBRANCH   7  10
ENDBRANCH   1   6
BRANCH   3  18
HETATM   18  O   UNL     1       8.209  24.017  53.126  1.00  0.00    -0.286 OA
BRANCH  18  19
HETATM   19  C   UNL     1       8.246  22.739  53.639  1.00  0.00     0.100 A 
HETATM   20  C   UNL     1       8.599  22.574  54.983  1.00  0.00     0.068 A 
HETATM   21 CL   UNL     1       8.897  23.931  56.009  1.00  0.00    -0.081 Cl
HETATM   22  C   UNL     1       8.726  21.292  55.525  1.00  0.00     0.026 A 
HETATM   23  C   UNL     1       8.508  20.170  54.725  1.00  0.00     0.002 A 
HETATM   24  C   UNL     1       8.167  20.328  53.382  1.00  0.00     0.003 A 
HETATM   25  C   UNL     1       8.042  21.608  52.837  1.00  0.00     0.039 A 
ENDBRANCH  18  19
ENDBRANCH   3  18
TORSDOF 5
ENDMDL
MODEL 5
REMARK VINA RESULT:      -8.5      3.439      8.360
REMARK  5 active torsions:
REMARK  status: ('A' for Active; 'I' for Inactive)
REMARK    1  A    between atoms: C_2  and  N_3 
REMARK    2  A    between atoms: C_2  and  C_19 
REMARK       I    between atoms: N_3  and  C_4 
REMARK    3  A    between atoms: C_4  and  C_5 
REMARK    4  A    between atoms: C_7  and  O_8 
REMARK    5  A    between atoms: O_8  and  C_9 
ROOT
HETATM    1  C   UNL     1       7.608  26.667  56.450  1.00  0.00     0.146 A 
HETATM    2  O   UNL     1       6.911  25.766  55.684  1.00  0.00    -0.282 OA
HETATM    3  C   UNL     1       7.320  24.523  56.067  1.00  0.00     0.191 A 
HETATM    4  C   UNL     1       8.228  24.609  57.096  1.00  0.00     0.067 A 
HETATM    5  C   UNL     1       8.441  25.989  57.320  1.00  0.00     0.048 A 
ENDROOT
BRANCH   1   6
HETATM    6  C   UNL     1       7.396  28.087  56.258  1.00  0.00     0.276 C 
HETATM    7  N   UNL     1       7.023  28.760  57.399  1.00  0.00    -0.347 N 
HETATM    8  H   UNL     1       6.912  28.216  58.247  1.00  0.00     0.163 HD
HETATM    9  O   UNL     1       7.548  28.649  55.178  1.00  0.00    -0.265 OA
BRANCH   7  10
HETATM   10  C   UNL     1       6.721  30.177  57.406  1.00  0.00     0.114 C 
HETATM   11  C   UNL     1       5.255  30.414  57.772  1.00  0.00     0.037 C 
BRANCH  10  12
HETATM   12  C   UNL     1       7.680  30.908  58.323  1.00  0.00    -0.033 A 
HETATM   13  C   UNL     1       7.180  31.724  59.346  1.00  0.00     0.028 A 
HETATM   14  C   UNL     1       8.071  32.393  60.170  1.00  0.00     0.116 A 
HETATM   15  N   UNL     1       9.412  32.313  60.044  1.00  0.00    -0.273 NA
HETATM   16  C   UNL     1       9.880  31.534  59.047  1.00  0.00     0.116 A 
HETATM   17  C   UNL     1       9.070  30.825  58.173  1.00  0.00     0.028 A 
ENDBRANCH  10  12
ENDBRANCH   7  10
ENDBRANCH   1   6
BRANCH   3  18
HETATM   18  O   UNL     1       6.752  23.484  55.461  1.00  0.00    -0.286 OA
BRANCH  18  19
HETATM   19  C   UNL     1       7.489  22.402  55.032  1.00  0.00     0.100 A 
HETATM   20  C   UNL     1       7.908  22.373  53.697  1.00  0.00     0.068 A 
HETATM   21 CL   UNL     1       7.596  23.692  52.627  1.00  0.00    -0.081 Cl
HETATM   22  C   UNL     1       8.590  21.261  53.197  1.00  0.00     0.026 A 
HETATM   23  C   UNL     1       8.848  20.168  54.027  1.00  0.00     0.002 A 
HETATM   24  C   UNL     1       8.423  20.187  55.355  1.00  0.00     0.003 A 
HETATM   25  C   UNL     1       7.739  21.297  55.856  1.00  0.00     0.039 A 
ENDBRANCH  18  19
ENDBRANCH   3  18
TORSDOF 5
ENDMDL
MODEL 6
REMARK VINA RESULT:      -8.5      3.618      8.226
REMARK  5 active torsions:
REMARK  status: ('A' for Active; 'I' for Inactive)
REMARK    1  A    between atoms: C_2  and  N_3 
REMARK    2  A    between atoms: C_2  and  C_19 
REMARK       I    between atoms: N_3  and  C_4 
REMARK    3  A    between atoms: C_4  and  C_5 
REMARK    4  A    between atoms: C_7  and  O_8 
REMARK    5  A    between atoms: O_8  and  C_9 
ROOT
HETATM    1  C   UNL     1       6.815  27.207  56.841  1.00  0.00     0.146 A 
HETATM    2  O   UNL     1       7.779  26.243  56.676  1.00  0.00    -0.282 OA
HETATM    3  C   UNL     1       7.144  25.037  56.736  1.00  0.00     0.191 A 
HETATM    4  C   UNL     1       5.789  25.212  56.888  1.00  0.00     0.067 A 
HETATM    5  C   UNL     1       5.580  26.607  56.991  1.00  0.00     0.048 A 
ENDROOT
BRANCH   1   6
HETATM    6  C   UNL     1       7.193  28.606  56.838  1.00  0.00     0.276 C 
HETATM    7  N   UNL     1       6.637  29.340  57.860  1.00  0.00    -0.347 N 
HETATM    8  H   UNL     1       6.013  28.858  58.497  1.00  0.00     0.163 HD
HETATM    9  O   UNL     1       7.953  29.095  56.008  1.00  0.00    -0.265 OA
BRANCH   7  10
HETATM   10  C   UNL     1       6.855  30.765  58.005  1.00  0.00     0.114 C 
HETATM   11  C   UNL     1       5.556  31.537  57.769  1.00  0.00     0.037 C 
BRANCH  10  12
HETATM   12  C   UNL     1       7.475  31.061  59.356  1.00  0.00    -0.033 A 
HETATM   13  C   UNL     1       8.603  30.344  59.776  1.00  0.00     0.028 A 
HETATM   14  C   UNL     1       9.152  30.621  61.018  1.00  0.00     0.116 A 
HETATM   15  N   UNL     1       8.659  31.549  61.865  1.00  0.00    -0.273 NA
HETATM   16  C   UNL     1       7.565  32.222  61.453  1.00  0.00     0.116 A 
HETATM   17  C   UNL     1       6.946  32.018  60.229  1.00  0.00     0.028 A 
ENDBRANCH  10  12
ENDBRANCH   7  10
ENDBRANCH   1   6
BRANCH   3  18
HETATM   18  O   UNL     1       7.893  23.950  56.577  1.00  0.00    -0.286 OA
BRANCH  18  19
HETATM   19  C   UNL     1       7.832  23.188  55.431  1.00  0.00     0.100 A 
HETATM   20  C   UNL     1       8.050  21.809  55.539  1.00  0.00     0.068 A 
HETATM   21 CL   UNL     1       8.299  21.055  57.073  1.00  0.00    -0.081 Cl
HETATM   22  C   UNL     1       8.075  21.008  54.395  1.00  0.00     0.026 A 
HETATM   23  C   UNL     1       7.893  21.583  53.136  1.00  0.00     0.002 A 
HETATM   24  C   UNL     1       7.687  22.957  53.021  1.00  0.00     0.003 A 
HETATM   25  C   UNL     1       7.663  23.760  54.164  1.00  0.00     0.039 A 
ENDBRANCH  18  19
ENDBRANCH   3  18
TORSDOF 5
ENDMDL
MODEL 7
REMARK VINA RESULT:      -8.5      2.809      7.415
REMARK  5 active torsions:
REMARK  status: ('A' for Active; 'I' for Inactive)
REMARK    1  A    between atoms: C_2  and  N_3 
REMARK    2  A    between atoms: C_2  and  C_19 
REMARK       I    between atoms: N_3  and  C_4 
REMARK    3  A    between atoms: C_4  and  C_5 
REMARK    4  A    between atoms: C_7  and  O_8 
REMARK    5  A    between atoms: O_8  and  C_9 
ROOT
HETATM    1  C   UNL     1       6.084  26.584  53.908  1.00  0.00     0.146 A 
HETATM    2  O   UNL     1       7.304  25.954  53.929  1.00  0.00    -0.282 OA
HETATM    3  C   UNL     1       7.134  24.745  53.320  1.00  0.00     0.191 A 
HETATM    4  C   UNL     1       5.843  24.610  52.869  1.00  0.00     0.067 A 
HETATM    5  C   UNL     1       5.156  25.777  53.277  1.00  0.00     0.048 A 
ENDROOT
BRANCH   1   6
HETATM    6  C   UNL     1       5.945  27.897  54.503  1.00  0.00     0.276 C 
HETATM    7  N   UNL     1       6.765  28.115  55.585  1.00  0.00    -0.347 N 
HETATM    8  H   UNL     1       7.366  27.353  55.876  1.00  0.00     0.163 HD
HETATM    9  O   UNL     1       5.173  28.750  54.074  1.00  0.00    -0.265 OA
BRANCH   7  10
HETATM   10  C   UNL     1       6.744  29.349  56.345  1.00  0.00     0.114 C 
HETATM   11  C   UNL     1       5.755  29.250  57.507  1.00  0.00     0.037 C 
BRANCH  10  12
HETATM   12  C   UNL     1       8.146  29.705  56.797  1.00  0.00    -0.033 A 
HETATM   13  C   UNL     1       9.238  29.422  55.967  1.00  0.00     0.028 A 
HETATM   14  C   UNL     1      10.514  29.747  56.401  1.00  0.00     0.116 A 
HETATM   15  N   UNL     1      10.777  30.322  57.592  1.00  0.00    -0.273 NA
HETATM   16  C   UNL     1       9.716  30.577  58.387  1.00  0.00     0.116 A 
HETATM   17  C   UNL     1       8.404  30.292  58.042  1.00  0.00     0.028 A 
ENDBRANCH  10  12
ENDBRANCH   7  10
ENDBRANCH   1   6
BRANCH   3  18
HETATM   18  O   UNL     1       8.206  23.967  53.210  1.00  0.00    -0.286 OA
BRANCH  18  19
HETATM   19  C   UNL     1       8.235  22.693  53.733  1.00  0.00     0.100 A 
HETATM   20  C   UNL     1       8.621  22.533  55.069  1.00  0.00     0.068 A 
HETATM   21 CL   UNL     1       8.968  23.894  56.075  1.00  0.00    -0.081 Cl
HETATM   22  C   UNL     1       8.740  21.255  55.620  1.00  0.00     0.026 A 
HETATM   23  C   UNL     1       8.483  20.129  54.836  1.00  0.00     0.002 A 
HETATM   24  C   UNL     1       8.109  20.282  53.501  1.00  0.00     0.003 A 
HETATM   25  C   UNL     1       7.991  21.559  52.948  1.00  0.00     0.039 A 
ENDBRANCH  18  19
ENDBRANCH   3  18
TORSDOF 5
ENDMDL
MODEL 8
REMARK VINA RESULT:      -8.4      5.051      7.648
REMARK  5 active torsions:
REMARK  status: ('A' for Active; 'I' for Inactive)
REMARK    1  A    between atoms: C_2  and  N_3 
REMARK    2  A    between atoms: C_2  and  C_19 
REMARK       I    between atoms: N_3  and  C_4 
REMARK    3  A    between atoms: C_4  and  C_5 
REMARK    4  A    between atoms: C_7  and  O_8 
REMARK    5  A    between atoms: O_8  and  C_9 
ROOT
HETATM    1  C   UNL     1       8.929  31.680  60.335  1.00  0.00     0.146 A 
HETATM    2  O   UNL     1       8.032  32.695  60.562  1.00  0.00    -0.282 OA
HETATM    3  C   UNL     1       7.681  32.623  61.878  1.00  0.00     0.191 A 
HETATM    4  C   UNL     1       8.371  31.614  62.507  1.00  0.00     0.067 A 
HETATM    5  C   UNL     1       9.148  30.983  61.508  1.00  0.00     0.048 A 
ENDROOT
BRANCH   1   6
HETATM    6  C   UNL     1       9.476  31.491  59.007  1.00  0.00     0.276 C 
HETATM    7  N   UNL     1       9.090  30.318  58.400  1.00  0.00    -0.347 N 
HETATM    8  H   UNL     1       8.488  29.696  58.928  1.00  0.00     0.163 HD
HETATM    9  O   UNL     1      10.211  32.309  58.459  1.00  0.00    -0.265 OA
BRANCH   7  10
HETATM   10  C   UNL     1       9.564  29.923  57.090  1.00  0.00     0.114 C 
HETATM   11  C   UNL     1      11.051  29.569  57.139  1.00  0.00     0.037 C 
BRANCH  10  12
HETATM   12  C   UNL     1       8.711  28.796  56.545  1.00  0.00    -0.033 A 
HETATM   13  C   UNL     1       8.370  28.775  55.186  1.00  0.00     0.028 A 
HETATM   14  C   UNL     1       7.581  27.742  54.707  1.00  0.00     0.116 A 
HETATM   15  N   UNL     1       7.107  26.741  55.477  1.00  0.00    -0.273 NA
HETATM   16  C   UNL     1       7.432  26.781  56.786  1.00  0.00     0.116 A 
HETATM   17  C   UNL     1       8.216  27.771  57.359  1.00  0.00     0.028 A 
ENDBRANCH  10  12
ENDBRANCH   7  10
ENDBRANCH   1   6
BRANCH   3  18
HETATM   18  O   UNL     1       6.826  33.536  62.327  1.00  0.00    -0.286 OA
BRANCH  18  19
HETATM   19  C   UNL     1       6.461  33.598  63.654  1.00  0.00     0.100 A 
HETATM   20  C   UNL     1       5.099  33.530  63.971  1.00  0.00     0.068 A 
HETATM   21 CL   UNL     1       3.902  33.285  62.751  1.00  0.00    -0.081 Cl
HETATM   22  C   UNL     1       4.677  33.667  65.296  1.00  0.00     0.026 A 
HETATM   23  C   UNL     1       5.613  33.882  66.309  1.00  0.00     0.002 A 
HETATM   24  C   UNL     1       6.969  33.961  65.998  1.00  0.00     0.003 A 
HETATM   25  C   UNL     1       7.393  33.827  64.674  1.00  0.00     0.039 A 
ENDBRANCH  18  19
ENDBRANCH   3  18
TORSDOF 5
ENDMDL
MODEL 9
REMARK VINA RESULT:      -8.2      4.637      7.396
REMARK  5 active torsions:
REMARK  status: ('A' for Active; 'I' for Inactive)
REMARK    1  A    between atoms: C_2  and  N_3 
REMARK    2  A    between atoms: C_2  and  C_19 
REMARK       I    between atoms: N_3  and  C_4 
REMARK    3  A    between atoms: C_4  and  C_5 
REMARK    4  A    between atoms: C_7  and  O_8 
REMARK    5  A    between atoms: O_8  and  C_9 
ROOT
HETATM    1  C   UNL     1       5.394  26.371  53.561  1.00  0.00     0.146 A 
HETATM    2  O   UNL     1       6.519  25.790  53.033  1.00  0.00    -0.282 OA
HETATM    3  C   UNL     1       7.024  24.963  53.993  1.00  0.00     0.191 A 
HETATM    4  C   UNL     1       6.217  24.968  55.106  1.00  0.00     0.067 A 
HETATM    5  C   UNL     1       5.187  25.900  54.844  1.00  0.00     0.048 A 
ENDROOT
BRANCH   1   6
HETATM    6  C   UNL     1       4.640  27.322  52.770  1.00  0.00     0.276 C 
HETATM    7  N   UNL     1       5.130  27.513  51.500  1.00  0.00    -0.347 N 
HETATM    8  H   UNL     1       5.965  27.000  51.240  1.00  0.00     0.163 HD
HETATM    9  O   UNL     1       3.641  27.901  53.188  1.00  0.00    -0.265 OA
BRANCH   7  10
HETATM   10  C   UNL     1       4.544  28.456  50.569  1.00  0.00     0.114 C 
HETATM   11  C   UNL     1       5.520  29.594  50.268  1.00  0.00     0.037 C 
BRANCH  10  12
HETATM   12  C   UNL     1       4.081  27.735  49.319  1.00  0.00    -0.033 A 
HETATM   13  C   UNL     1       3.388  28.438  48.326  1.00  0.00     0.028 A 
HETATM   14  C   UNL     1       2.963  27.761  47.194  1.00  0.00     0.116 A 
HETATM   15  N   UNL     1       3.173  26.445  46.986  1.00  0.00    -0.273 NA
HETATM   16  C   UNL     1       3.830  25.777  47.956  1.00  0.00     0.116 A 
HETATM   17  C   UNL     1       4.296  26.366  49.122  1.00  0.00     0.028 A 
ENDBRANCH  10  12
ENDBRANCH   7  10
ENDBRANCH   1   6
BRANCH   3  18
HETATM   18  O   UNL     1       8.118  24.273  53.685  1.00  0.00    -0.286 OA
BRANCH  18  19
HETATM   19  C   UNL     1       8.212  22.919  53.922  1.00  0.00     0.100 A 
HETATM   20  C   UNL     1       8.780  22.495  55.130  1.00  0.00     0.068 A 
HETATM   21 CL   UNL     1       9.270  23.626  56.340  1.00  0.00    -0.081 Cl
HETATM   22  C   UNL     1       8.968  21.134  55.380  1.00  0.00     0.026 A 
HETATM   23  C   UNL     1       8.599  20.189  54.421  1.00  0.00     0.002 A 
HETATM   24  C   UNL     1       8.043  20.606  53.212  1.00  0.00     0.003 A 
HETATM   25  C   UNL     1       7.856  21.967  52.959  1.00  0.00     0.039 A 
ENDBRANCH  18  19
ENDBRANCH   3  18
TORSDOF 5
ENDMDL
MODEL 10
REMARK VINA RESULT:      -8.1      4.991      7.686
REMARK  5 active torsions:
REMARK  status: ('A' for Active; 'I' for Inactive)
REMARK    1  A    between atoms: C_2  and  N_3 
REMARK    2  A    between atoms: C_2  and  C_19 
REMARK       I    between atoms: N_3  and  C_4 
REMARK    3  A    between atoms: C_4  and  C_5 
REMARK    4  A    between atoms: C_7  and  O_8 
REMARK    5  A    between atoms: O_8  and  C_9 
ROOT
HETATM    1  C   UNL     1       5.994  26.414  52.580  1.00  0.00     0.146 A 
HETATM    2  O   UNL     1       6.090  26.051  51.260  1.00  0.00    -0.282 OA
HETATM    3  C   UNL     1       5.023  26.607  50.618  1.00  0.00     0.191 A 
HETATM    4  C   UNL     1       4.273  27.358  51.492  1.00  0.00     0.067 A 
HETATM    5  C   UNL     1       4.876  27.206  52.762  1.00  0.00     0.048 A 
ENDROOT
BRANCH   1   6
HETATM    6  C   UNL     1       6.991  25.955  53.525  1.00  0.00     0.276 C 
HETATM    7  N   UNL     1       6.873  24.628  53.868  1.00  0.00    -0.347 N 
HETATM    8  H   UNL     1       6.108  24.106  53.455  1.00  0.00     0.163 HD
HETATM    9  O   UNL     1       7.875  26.678  53.974  1.00  0.00    -0.265 OA
BRANCH   7  10
HETATM   10  C   UNL     1       7.745  23.989  54.832  1.00  0.00     0.114 C 
HETATM   11  C   UNL     1       7.173  24.115  56.244  1.00  0.00     0.037 C 
BRANCH  10  12
HETATM   12  C   UNL     1       8.002  22.551  54.429  1.00  0.00    -0.033 A 
HETATM   13  C   UNL     1       8.402  21.619  55.395  1.00  0.00     0.028 A 
HETATM   14  C   UNL     1       8.641  20.310  55.008  1.00  0.00     0.116 A 
HETATM   15  N   UNL     1       8.516  19.869  53.739  1.00  0.00    -0.273 NA
HETATM   16  C   UNL     1       8.142  20.780  52.817  1.00  0.00     0.116 A 
HETATM   17  C   UNL     1       7.879  22.110  53.106  1.00  0.00     0.028 A 
ENDBRANCH  10  12
ENDBRANCH   7  10
ENDBRANCH   1   6
BRANCH   3  18
HETATM   18  O   UNL     1       4.927  26.399  49.309  1.00  0.00    -0.286 OA
BRANCH  18  19
HETATM   19  C   UNL     1       3.905  26.942  48.561  1.00  0.00     0.100 A 
HETATM   20  C   UNL     1       2.961  26.075  47.999  1.00  0.00     0.068 A 
HETATM   21 CL   UNL     1       3.008  24.375  48.301  1.00  0.00    -0.081 Cl
HETATM   22  C   UNL     1       1.954  26.573  47.169  1.00  0.00     0.026 A 
HETATM   23  C   UNL     1       1.891  27.939  46.888  1.00  0.00     0.002 A 
HETATM   24  C   UNL     1       2.836  28.806  47.436  1.00  0.00     0.003 A 
HETATM   25  C   UNL     1       3.845  28.310  48.264  1.00  0.00     0.039 A 
ENDBRANCH  18  19
ENDBRANCH   3  18
TORSDOF 5
ENDMDL
