MODEL 1
REMARK VINA RESULT:      -9.6      0.000      0.000
REMARK  9 active torsions:
REMARK  status: ('A' for Active; 'I' for Inactive)
REMARK    1  A    between atoms: C_6  and  C_7 
REMARK    2  A    between atoms: C_7  and  C_8 
REMARK       I    between atoms: C_8  and  N_9 
REMARK    3  A    between atoms: N_9  and  C_10 
REMARK    4  A    between atoms: C_10  and  C_11 
REMARK    5  A    between atoms: C_11  and  N_12 
REMARK    6  A    between atoms: C_17  and  C_18 
REMARK    7  A    between atoms: C_21  and  C_22 
REMARK    8  A    between atoms: C_29  and  C_30 
REMARK       I    between atoms: C_30  and  N_31 
REMARK    9  A    between atoms: N_31  and  C_32 
ROOT
HETATM    1  C   UNL     1       4.718  24.773  57.042  1.00  0.00     0.071 C 
HETATM    2  C   UNL     1       5.616  25.903  56.596  1.00  0.00     0.047 C 
HETATM    3  N   UNL     1       5.038  27.152  56.777  1.00  0.00    -0.229 NA
HETATM    4  C   UNL     1       5.802  28.181  56.650  1.00  0.00     0.170 C 
HETATM    5  N   UNL     1       7.255  28.138  56.104  1.00  0.00    -0.319 N 
HETATM    6  C   UNL     1       7.893  29.235  56.347  1.00  0.00     0.011 C 
HETATM    7  C   UNL     1       7.501  26.910  55.315  1.00  0.00     0.165 C 
HETATM    8  S   UNL     1       5.371  29.774  57.170  1.00  0.00    -0.086 SA
HETATM    9  C   UNL     1       7.122  30.273  57.133  1.00  0.00     0.135 C 
HETATM   10  C   UNL     1       6.860  25.759  56.077  1.00  0.00     0.062 C 
ENDROOT
BRANCH   6  11
HETATM   11  C   UNL     1       9.283  29.491  55.842  1.00  0.00     0.156 C 
BRANCH  11  12
HETATM   12  C   UNL     1      10.263  29.992  56.884  1.00  0.00     0.223 C 
HETATM   13  N   UNL     1       9.711  30.827  57.821  1.00  0.00    -0.359 N 
HETATM   14  H   UNL     1       8.737  31.095  57.694  1.00  0.00     0.162 HD
HETATM   15  O   UNL     1      11.452  29.693  56.852  1.00  0.00    -0.273 OA
BRANCH  13  16
HETATM   16  C   UNL     1      10.423  31.673  58.785  1.00  0.00     0.150 C 
BRANCH  16  17
HETATM   17  C   UNL     1       9.735  32.027  60.121  1.00  0.00     0.253 C 
BRANCH  17  18
HETATM   18  N   UNL     1       8.809  30.943  60.631  1.00  0.00    -0.077 N 
HETATM   19  H   UNL     1       8.834  30.188  59.917  1.00  0.00     0.279 HD
HETATM   20  C   UNL     1       9.217  30.341  61.949  1.00  0.00     0.269 C 
HETATM   21  C   UNL     1       7.382  31.424  60.686  1.00  0.00     0.269 C 
ENDBRANCH  17  18
ENDBRANCH  16  17
ENDBRANCH  13  16
ENDBRANCH  11  12
ENDBRANCH   6  11
BRANCH   7  22
HETATM   22  C   UNL     1       6.949  27.144  53.890  1.00  0.00    -0.030 A 
HETATM   23  C   UNL     1       6.486  28.418  53.507  1.00  0.00     0.010 A 
HETATM   24  C   UNL     1       5.775  28.612  52.316  1.00  0.00     0.008 A 
HETATM   25  C   UNL     1       5.529  27.546  51.448  1.00  0.00    -0.055 A 
HETATM   26  C   UNL     1       6.083  26.301  51.761  1.00  0.00     0.008 A 
HETATM   27  C   UNL     1       6.784  26.104  52.957  1.00  0.00     0.010 A 
BRANCH  25  28
HETATM   28  C   UNL     1       4.671  27.751  50.209  1.00  0.00     0.010 C 
HETATM   29  C   UNL     1       5.185  28.901  49.344  1.00  0.00     0.015 C 
HETATM   30  C   UNL     1       4.556  26.460  49.391  1.00  0.00     0.015 C 
ENDBRANCH  25  28
ENDBRANCH   7  22
BRANCH  10  31
HETATM   31  C   UNL     1       7.800  24.611  56.310  1.00  0.00     0.256 C 
HETATM   32  N   UNL     1       7.982  23.801  55.211  1.00  0.00    -0.323 N 
HETATM   33  H   UNL     1       7.770  24.160  54.293  1.00  0.00     0.169 HD
HETATM   34  O   UNL     1       8.127  24.363  57.464  1.00  0.00    -0.267 OA
BRANCH  32  35
HETATM   35  C   UNL     1       8.341  22.436  55.184  1.00  0.00     0.035 A 
HETATM   36  C   UNL     1       8.439  21.629  56.316  1.00  0.00     0.029 A 
HETATM   37  C   UNL     1       8.678  20.256  56.178  1.00  0.00     0.002 A 
HETATM   38  C   UNL     1       8.836  19.689  54.914  1.00  0.00     0.000 A 
HETATM   39  C   UNL     1       8.767  20.494  53.782  1.00  0.00     0.002 A 
HETATM   40  C   UNL     1       8.516  21.859  53.916  1.00  0.00     0.029 A 
ENDBRANCH  32  35
ENDBRANCH  10  31
TORSDOF 9
ENDMDL
MODEL 2
REMARK VINA RESULT:      -8.7      2.910      5.527
REMARK  9 active torsions:
REMARK  status: ('A' for Active; 'I' for Inactive)
REMARK    1  A    between atoms: C_6  and  C_7 
REMARK    2  A    between atoms: C_7  and  C_8 
REMARK       I    between atoms: C_8  and  N_9 
REMARK    3  A    between atoms: N_9  and  C_10 
REMARK    4  A    between atoms: C_10  and  C_11 
REMARK    5  A    between atoms: C_11  and  N_12 
REMARK    6  A    between atoms: C_17  and  C_18 
REMARK    7  A    between atoms: C_21  and  C_22 
REMARK    8  A    between atoms: C_29  and  C_30 
REMARK       I    between atoms: C_30  and  N_31 
REMARK    9  A    between atoms: N_31  and  C_32 
ROOT
HETATM    1  C   UNL     1       4.442  24.821  53.562  1.00  0.00     0.071 C 
HETATM    2  C   UNL     1       5.333  25.885  54.159  1.00  0.00     0.047 C 
HETATM    3  N   UNL     1       5.525  25.721  55.523  1.00  0.00    -0.229 NA
HETATM    4  C   UNL     1       6.446  26.429  56.080  1.00  0.00     0.170 C 
HETATM    5  N   UNL     1       7.202  27.594  55.386  1.00  0.00    -0.319 N 
HETATM    6  C   UNL     1       8.257  27.943  56.045  1.00  0.00     0.011 C 
HETATM    7  C   UNL     1       6.448  28.113  54.223  1.00  0.00     0.165 C 
HETATM    8  S   UNL     1       7.072  26.126  57.665  1.00  0.00    -0.086 SA
HETATM    9  C   UNL     1       8.545  27.128  57.288  1.00  0.00     0.135 C 
HETATM   10  C   UNL     1       5.908  26.903  53.473  1.00  0.00     0.062 C 
ENDROOT
BRANCH   6  11
HETATM   11  C   UNL     1       9.113  29.109  55.643  1.00  0.00     0.156 C 
BRANCH  11  12
HETATM   12  C   UNL     1       9.811  29.817  56.787  1.00  0.00     0.223 C 
HETATM   13  N   UNL     1       8.962  30.338  57.729  1.00  0.00    -0.359 N 
HETATM   14  H   UNL     1       7.963  30.276  57.546  1.00  0.00     0.162 HD
HETATM   15  O   UNL     1      11.032  29.935  56.828  1.00  0.00    -0.273 OA
BRANCH  13  16
HETATM   16  C   UNL     1       9.296  31.287  58.797  1.00  0.00     0.150 C 
BRANCH  16  17
HETATM   17  C   UNL     1       9.237  30.815  60.264  1.00  0.00     0.253 C 
BRANCH  17  18
HETATM   18  N   UNL     1       7.854  30.906  60.875  1.00  0.00    -0.077 N 
HETATM   19  H   UNL     1       7.382  30.009  60.647  1.00  0.00     0.279 HD
HETATM   20  C   UNL     1       7.840  31.063  62.372  1.00  0.00     0.269 C 
HETATM   21  C   UNL     1       7.038  31.991  60.220  1.00  0.00     0.269 C 
ENDBRANCH  17  18
ENDBRANCH  16  17
ENDBRANCH  13  16
ENDBRANCH  11  12
ENDBRANCH   6  11
BRANCH   7  22
HETATM   22  C   UNL     1       5.376  29.093  54.751  1.00  0.00    -0.030 A 
HETATM   23  C   UNL     1       4.227  29.371  53.984  1.00  0.00     0.010 A 
HETATM   24  C   UNL     1       3.358  30.416  54.320  1.00  0.00     0.008 A 
HETATM   25  C   UNL     1       3.586  31.201  55.452  1.00  0.00    -0.055 A 
HETATM   26  C   UNL     1       4.657  30.861  56.283  1.00  0.00     0.008 A 
HETATM   27  C   UNL     1       5.533  29.824  55.943  1.00  0.00     0.010 A 
BRANCH  25  28
HETATM   28  C   UNL     1       2.690  32.394  55.749  1.00  0.00     0.010 C 
HETATM   29  C   UNL     1       3.491  33.603  56.229  1.00  0.00     0.015 C 
HETATM   30  C   UNL     1       1.825  32.756  54.536  1.00  0.00     0.015 C 
ENDBRANCH  25  28
ENDBRANCH   7  22
BRANCH  10  31
HETATM   31  C   UNL     1       6.245  26.919  52.009  1.00  0.00     0.256 C 
HETATM   32  N   UNL     1       5.402  27.697  51.246  1.00  0.00    -0.323 N 
HETATM   33  H   UNL     1       4.859  28.420  51.693  1.00  0.00     0.169 HD
HETATM   34  O   UNL     1       7.052  26.096  51.598  1.00  0.00    -0.267 OA
BRANCH  32  35
HETATM   35  C   UNL     1       5.092  27.561  49.876  1.00  0.00     0.035 A 
HETATM   36  C   UNL     1       4.431  26.463  49.328  1.00  0.00     0.029 A 
HETATM   37  C   UNL     1       4.054  26.475  47.980  1.00  0.00     0.002 A 
HETATM   38  C   UNL     1       4.349  27.573  47.172  1.00  0.00     0.000 A 
HETATM   39  C   UNL     1       5.032  28.660  47.706  1.00  0.00     0.002 A 
HETATM   40  C   UNL     1       5.398  28.655  49.052  1.00  0.00     0.029 A 
ENDBRANCH  32  35
ENDBRANCH  10  31
TORSDOF 9
ENDMDL
MODEL 3
REMARK VINA RESULT:      -8.5      4.663      8.067
REMARK  9 active torsions:
REMARK  status: ('A' for Active; 'I' for Inactive)
REMARK    1  A    between atoms: C_6  and  C_7 
REMARK    2  A    between atoms: C_7  and  C_8 
REMARK       I    between atoms: C_8  and  N_9 
REMARK    3  A    between atoms: N_9  and  C_10 
REMARK    4  A    between atoms: C_10  and  C_11 
REMARK    5  A    between atoms: C_11  and  N_12 
REMARK    6  A    between atoms: C_17  and  C_18 
REMARK    7  A    between atoms: C_21  and  C_22 
REMARK    8  A    between atoms: C_29  and  C_30 
REMARK       I    between atoms: C_30  and  N_31 
REMARK    9  A    between atoms: N_31  and  C_32 
ROOT
HETATM    1  C   UNL     1       4.025  28.495  55.064  1.00  0.00     0.071 C 
HETATM    2  C   UNL     1       4.295  29.157  53.732  1.00  0.00     0.047 C 
HETATM    3  N   UNL     1       3.567  30.325  53.556  1.00  0.00    -0.229 NA
HETATM    4  C   UNL     1       3.895  31.082  52.567  1.00  0.00     0.170 C 
HETATM    5  N   UNL     1       4.891  30.684  51.444  1.00  0.00    -0.319 N 
HETATM    6  C   UNL     1       5.264  31.705  50.747  1.00  0.00     0.011 C 
HETATM    7  C   UNL     1       5.051  29.215  51.358  1.00  0.00     0.165 C 
HETATM    8  S   UNL     1       3.360  32.718  52.383  1.00  0.00    -0.086 SA
HETATM    9  C   UNL     1       4.704  33.038  51.197  1.00  0.00     0.135 C 
HETATM   10  C   UNL     1       5.151  28.698  52.787  1.00  0.00     0.062 C 
ENDROOT
BRANCH   6  11
HETATM   11  C   UNL     1       6.149  31.582  49.540  1.00  0.00     0.156 C 
BRANCH  11  12
HETATM   12  C   UNL     1       5.447  31.757  48.209  1.00  0.00     0.223 C 
HETATM   13  N   UNL     1       4.557  30.759  47.905  1.00  0.00    -0.359 N 
HETATM   14  H   UNL     1       4.505  29.967  48.543  1.00  0.00     0.162 HD
HETATM   15  O   UNL     1       5.694  32.701  47.465  1.00  0.00    -0.273 OA
BRANCH  13  16
HETATM   16  C   UNL     1       3.926  30.498  46.606  1.00  0.00     0.150 C 
BRANCH  16  17
HETATM   17  C   UNL     1       2.726  31.364  46.170  1.00  0.00     0.253 C 
BRANCH  17  18
HETATM   18  N   UNL     1       3.021  32.253  44.980  1.00  0.00    -0.077 N 
HETATM   19  H   UNL     1       2.215  32.140  44.333  1.00  0.00     0.279 HD
HETATM   20  C   UNL     1       3.144  33.717  45.307  1.00  0.00     0.269 C 
HETATM   21  C   UNL     1       4.236  31.774  44.228  1.00  0.00     0.269 C 
ENDBRANCH  17  18
ENDBRANCH  16  17
ENDBRANCH  13  16
ENDBRANCH  11  12
ENDBRANCH   6  11
BRANCH   7  22
HETATM   22  C   UNL     1       3.867  28.656  50.537  1.00  0.00    -0.030 A 
HETATM   23  C   UNL     1       4.063  27.577  49.651  1.00  0.00     0.010 A 
HETATM   24  C   UNL     1       3.078  27.198  48.731  1.00  0.00     0.008 A 
HETATM   25  C   UNL     1       1.850  27.860  48.683  1.00  0.00    -0.055 A 
HETATM   26  C   UNL     1       1.601  28.855  49.633  1.00  0.00     0.008 A 
HETATM   27  C   UNL     1       2.588  29.242  50.546  1.00  0.00     0.010 A 
BRANCH  25  28
HETATM   28  C   UNL     1       0.830  27.502  47.613  1.00  0.00     0.010 C 
HETATM   29  C   UNL     1       0.303  28.742  46.890  1.00  0.00     0.015 C 
HETATM   30  C   UNL     1       1.401  26.489  46.615  1.00  0.00     0.015 C 
ENDBRANCH  25  28
ENDBRANCH   7  22
BRANCH  10  31
HETATM   31  C   UNL     1       6.351  27.823  53.014  1.00  0.00     0.256 C 
HETATM   32  N   UNL     1       6.144  26.495  52.716  1.00  0.00    -0.323 N 
HETATM   33  H   UNL     1       5.387  26.240  52.100  1.00  0.00     0.169 HD
HETATM   34  O   UNL     1       7.293  28.295  53.637  1.00  0.00    -0.267 OA
BRANCH  32  35
HETATM   35  C   UNL     1       6.804  25.369  53.252  1.00  0.00     0.035 A 
HETATM   36  C   UNL     1       6.679  24.942  54.573  1.00  0.00     0.029 A 
HETATM   37  C   UNL     1       7.271  23.740  54.979  1.00  0.00     0.002 A 
HETATM   38  C   UNL     1       8.002  22.970  54.075  1.00  0.00     0.000 A 
HETATM   39  C   UNL     1       8.153  23.403  52.762  1.00  0.00     0.002 A 
HETATM   40  C   UNL     1       7.553  24.594  52.352  1.00  0.00     0.029 A 
ENDBRANCH  32  35
ENDBRANCH  10  31
TORSDOF 9
ENDMDL
MODEL 4
REMARK VINA RESULT:      -8.5      5.884     11.074
REMARK  9 active torsions:
REMARK  status: ('A' for Active; 'I' for Inactive)
REMARK    1  A    between atoms: C_6  and  C_7 
REMARK    2  A    between atoms: C_7  and  C_8 
REMARK       I    between atoms: C_8  and  N_9 
REMARK    3  A    between atoms: N_9  and  C_10 
REMARK    4  A    between atoms: C_10  and  C_11 
REMARK    5  A    between atoms: C_11  and  N_12 
REMARK    6  A    between atoms: C_17  and  C_18 
REMARK    7  A    between atoms: C_21  and  C_22 
REMARK    8  A    between atoms: C_29  and  C_30 
REMARK       I    between atoms: C_30  and  N_31 
REMARK    9  A    between atoms: N_31  and  C_32 
ROOT
HETATM    1  C   UNL     1       0.772  34.633  61.885  1.00  0.00     0.071 C 
HETATM    2  C   UNL     1       2.248  34.574  62.203  1.00  0.00     0.047 C 
HETATM    3  N   UNL     1       2.513  34.744  63.554  1.00  0.00    -0.229 NA
HETATM    4  C   UNL     1       3.707  34.481  63.960  1.00  0.00     0.170 C 
HETATM    5  N   UNL     1       4.913  34.197  63.024  1.00  0.00    -0.319 N 
HETATM    6  C   UNL     1       5.910  33.683  63.666  1.00  0.00     0.011 C 
HETATM    7  C   UNL     1       4.675  34.720  61.660  1.00  0.00     0.165 C 
HETATM    8  S   UNL     1       4.143  34.292  65.624  1.00  0.00    -0.086 SA
HETATM    9  C   UNL     1       5.672  33.431  65.139  1.00  0.00     0.135 C 
HETATM   10  C   UNL     1       3.238  34.373  61.299  1.00  0.00     0.062 C 
ENDROOT
BRANCH   6  11
HETATM   11  C   UNL     1       7.233  33.403  63.016  1.00  0.00     0.156 C 
BRANCH  11  12
HETATM   12  C   UNL     1       7.413  31.986  62.510  1.00  0.00     0.223 C 
HETATM   13  N   UNL     1       8.658  31.723  61.998  1.00  0.00    -0.359 N 
HETATM   14  H   UNL     1       9.311  32.502  61.930  1.00  0.00     0.162 HD
HETATM   15  O   UNL     1       6.498  31.168  62.532  1.00  0.00    -0.273 OA
BRANCH  13  16
HETATM   16  C   UNL     1       9.064  30.557  61.206  1.00  0.00     0.150 C 
BRANCH  16  17
HETATM   17  C   UNL     1       8.499  30.389  59.779  1.00  0.00     0.253 C 
BRANCH  17  18
HETATM   18  N   UNL     1       9.568  30.190  58.724  1.00  0.00    -0.077 N 
HETATM   19  H   UNL     1      10.329  29.655  59.188  1.00  0.00     0.279 HD
HETATM   20  C   UNL     1       9.121  29.403  57.522  1.00  0.00     0.269 C 
HETATM   21  C   UNL     1      10.172  31.506  58.304  1.00  0.00     0.269 C 
ENDBRANCH  17  18
ENDBRANCH  16  17
ENDBRANCH  13  16
ENDBRANCH  11  12
ENDBRANCH   6  11
BRANCH   7  22
HETATM   22  C   UNL     1       5.008  36.229  61.666  1.00  0.00    -0.030 A 
HETATM   23  C   UNL     1       5.773  36.785  62.710  1.00  0.00     0.010 A 
HETATM   24  C   UNL     1       5.898  38.170  62.870  1.00  0.00     0.008 A 
HETATM   25  C   UNL     1       5.290  39.052  61.973  1.00  0.00    -0.055 A 
HETATM   26  C   UNL     1       4.625  38.511  60.868  1.00  0.00     0.008 A 
HETATM   27  C   UNL     1       4.490  37.126  60.714  1.00  0.00     0.010 A 
BRANCH  25  28
HETATM   28  C   UNL     1       5.351  40.552  62.214  1.00  0.00     0.010 C 
HETATM   29  C   UNL     1       6.537  41.197  61.498  1.00  0.00     0.015 C 
HETATM   30  C   UNL     1       4.037  41.234  61.821  1.00  0.00     0.015 C 
ENDBRANCH  25  28
ENDBRANCH   7  22
BRANCH  10  31
HETATM   31  C   UNL     1       3.116  33.664  59.980  1.00  0.00     0.256 C 
HETATM   32  N   UNL     1       3.679  32.407  59.964  1.00  0.00    -0.323 N 
HETATM   33  H   UNL     1       3.832  31.924  60.836  1.00  0.00     0.169 HD
HETATM   34  O   UNL     1       2.757  34.317  59.010  1.00  0.00    -0.267 OA
BRANCH  32  35
HETATM   35  C   UNL     1       4.194  31.697  58.859  1.00  0.00     0.035 A 
HETATM   36  C   UNL     1       3.492  30.717  58.160  1.00  0.00     0.029 A 
HETATM   37  C   UNL     1       4.038  30.158  56.998  1.00  0.00     0.002 A 
HETATM   38  C   UNL     1       5.292  30.563  56.541  1.00  0.00     0.000 A 
HETATM   39  C   UNL     1       6.010  31.521  57.248  1.00  0.00     0.002 A 
HETATM   40  C   UNL     1       5.462  32.088  58.399  1.00  0.00     0.029 A 
ENDBRANCH  32  35
ENDBRANCH  10  31
TORSDOF 9
ENDMDL
MODEL 5
REMARK VINA RESULT:      -8.4      5.106      7.864
REMARK  9 active torsions:
REMARK  status: ('A' for Active; 'I' for Inactive)
REMARK    1  A    between atoms: C_6  and  C_7 
REMARK    2  A    between atoms: C_7  and  C_8 
REMARK       I    between atoms: C_8  and  N_9 
REMARK    3  A    between atoms: N_9  and  C_10 
REMARK    4  A    between atoms: C_10  and  C_11 
REMARK    5  A    between atoms: C_11  and  N_12 
REMARK    6  A    between atoms: C_17  and  C_18 
REMARK    7  A    between atoms: C_21  and  C_22 
REMARK    8  A    between atoms: C_29  and  C_30 
REMARK       I    between atoms: C_30  and  N_31 
REMARK    9  A    between atoms: N_31  and  C_32 
ROOT
HETATM    1  C   UNL     1       3.944  28.445  54.967  1.00  0.00     0.071 C 
HETATM    2  C   UNL     1       4.220  29.149  53.658  1.00  0.00     0.047 C 
HETATM    3  N   UNL     1       3.530  30.347  53.537  1.00  0.00    -0.229 NA
HETATM    4  C   UNL     1       3.872  31.131  52.574  1.00  0.00     0.170 C 
HETATM    5  N   UNL     1       4.839  30.743  51.423  1.00  0.00    -0.319 N 
HETATM    6  C   UNL     1       5.239  31.778  50.761  1.00  0.00     0.011 C 
HETATM    7  C   UNL     1       4.947  29.274  51.278  1.00  0.00     0.165 C 
HETATM    8  S   UNL     1       3.390  32.789  52.461  1.00  0.00    -0.086 SA
HETATM    9  C   UNL     1       4.730  33.110  51.269  1.00  0.00     0.135 C 
HETATM   10  C   UNL     1       5.048  28.698  52.684  1.00  0.00     0.062 C 
ENDROOT
BRANCH   6  11
HETATM   11  C   UNL     1       6.103  31.672  49.538  1.00  0.00     0.156 C 
BRANCH  11  12
HETATM   12  C   UNL     1       5.473  32.185  48.259  1.00  0.00     0.223 C 
HETATM   13  N   UNL     1       6.268  33.042  47.543  1.00  0.00    -0.359 N 
HETATM   14  H   UNL     1       7.156  33.315  47.958  1.00  0.00     0.162 HD
HETATM   15  O   UNL     1       4.332  31.876  47.930  1.00  0.00    -0.273 OA
BRANCH  13  16
HETATM   16  C   UNL     1       5.865  33.900  46.423  1.00  0.00     0.150 C 
BRANCH  16  17
HETATM   17  C   UNL     1       6.450  35.325  46.324  1.00  0.00     0.253 C 
BRANCH  17  18
HETATM   18  N   UNL     1       7.938  35.350  46.044  1.00  0.00    -0.077 N 
HETATM   19  H   UNL     1       8.192  34.381  45.767  1.00  0.00     0.279 HD
HETATM   20  C   UNL     1       8.349  36.268  44.925  1.00  0.00     0.269 C 
HETATM   21  C   UNL     1       8.725  35.652  47.294  1.00  0.00     0.269 C 
ENDBRANCH  17  18
ENDBRANCH  16  17
ENDBRANCH  13  16
ENDBRANCH  11  12
ENDBRANCH   6  11
BRANCH   7  22
HETATM   22  C   UNL     1       3.735  28.788  50.452  1.00  0.00    -0.030 A 
HETATM   23  C   UNL     1       3.856  27.669  49.604  1.00  0.00     0.010 A 
HETATM   24  C   UNL     1       2.859  27.342  48.677  1.00  0.00     0.008 A 
HETATM   25  C   UNL     1       1.690  28.101  48.585  1.00  0.00    -0.055 A 
HETATM   26  C   UNL     1       1.509  29.142  49.500  1.00  0.00     0.008 A 
HETATM   27  C   UNL     1       2.509  29.477  50.420  1.00  0.00     0.010 A 
BRANCH  25  28
HETATM   28  C   UNL     1       0.662  27.794  47.508  1.00  0.00     0.010 C 
HETATM   29  C   UNL     1       0.249  29.049  46.739  1.00  0.00     0.015 C 
HETATM   30  C   UNL     1       1.163  26.706  46.552  1.00  0.00     0.015 C 
ENDBRANCH  25  28
ENDBRANCH   7  22
BRANCH  10  31
HETATM   31  C   UNL     1       6.220  27.776  52.861  1.00  0.00     0.256 C 
HETATM   32  N   UNL     1       5.970  26.472  52.496  1.00  0.00    -0.323 N 
HETATM   33  H   UNL     1       5.204  26.273  51.871  1.00  0.00     0.169 HD
HETATM   34  O   UNL     1       7.178  28.185  53.504  1.00  0.00    -0.267 OA
BRANCH  32  35
HETATM   35  C   UNL     1       6.595  25.299  52.971  1.00  0.00     0.035 A 
HETATM   36  C   UNL     1       7.575  24.596  52.273  1.00  0.00     0.029 A 
HETATM   37  C   UNL     1       8.228  23.516  52.880  1.00  0.00     0.002 A 
HETATM   38  C   UNL     1       7.893  23.125  54.176  1.00  0.00     0.000 A 
HETATM   39  C   UNL     1       6.896  23.805  54.867  1.00  0.00     0.002 A 
HETATM   40  C   UNL     1       6.254  24.889  54.269  1.00  0.00     0.029 A 
ENDBRANCH  32  35
ENDBRANCH  10  31
TORSDOF 9
ENDMDL
MODEL 6
REMARK VINA RESULT:      -8.3      4.546      7.512
REMARK  9 active torsions:
REMARK  status: ('A' for Active; 'I' for Inactive)
REMARK    1  A    between atoms: C_6  and  C_7 
REMARK    2  A    between atoms: C_7  and  C_8 
REMARK       I    between atoms: C_8  and  N_9 
REMARK    3  A    between atoms: N_9  and  C_10 
REMARK    4  A    between atoms: C_10  and  C_11 
REMARK    5  A    between atoms: C_11  and  N_12 
REMARK    6  A    between atoms: C_17  and  C_18 
REMARK    7  A    between atoms: C_21  and  C_22 
REMARK    8  A    between atoms: C_29  and  C_30 
REMARK       I    between atoms: C_30  and  N_31 
REMARK    9  A    between atoms: N_31  and  C_32 
ROOT
HETATM    1  C   UNL     1       1.650  27.088  47.487  1.00  0.00     0.071 C 
HETATM    2  C   UNL     1       2.231  28.205  48.325  1.00  0.00     0.047 C 
HETATM    3  N   UNL     1       1.377  29.293  48.434  1.00  0.00    -0.229 NA
HETATM    4  C   UNL     1       1.674  30.191  49.308  1.00  0.00     0.170 C 
HETATM    5  N   UNL     1       3.015  30.252  50.089  1.00  0.00    -0.319 N 
HETATM    6  C   UNL     1       2.949  31.058  51.096  1.00  0.00     0.011 C 
HETATM    7  C   UNL     1       4.077  29.485  49.401  1.00  0.00     0.165 C 
HETATM    8  S   UNL     1       0.580  31.422  49.838  1.00  0.00    -0.086 SA
HETATM    9  C   UNL     1       1.602  31.711  51.318  1.00  0.00     0.135 C 
HETATM   10  C   UNL     1       3.445  28.184  48.926  1.00  0.00     0.062 C 
ENDROOT
BRANCH   6  11
HETATM   11  C   UNL     1       4.136  31.374  51.959  1.00  0.00     0.156 C 
BRANCH  11  12
HETATM   12  C   UNL     1       4.168  30.658  53.294  1.00  0.00     0.223 C 
HETATM   13  N   UNL     1       4.490  29.328  53.213  1.00  0.00    -0.359 N 
HETATM   14  H   UNL     1       4.599  28.927  52.284  1.00  0.00     0.162 HD
HETATM   15  O   UNL     1       3.890  31.230  54.344  1.00  0.00    -0.273 OA
BRANCH  13  16
HETATM   16  C   UNL     1       4.352  28.315  54.266  1.00  0.00     0.150 C 
BRANCH  16  17
HETATM   17  C   UNL     1       5.595  27.915  55.087  1.00  0.00     0.253 C 
BRANCH  17  18
HETATM   18  N   UNL     1       6.693  28.958  55.071  1.00  0.00    -0.077 N 
HETATM   19  H   UNL     1       6.427  29.640  54.333  1.00  0.00     0.279 HD
HETATM   20  C   UNL     1       6.854  29.717  56.360  1.00  0.00     0.269 C 
HETATM   21  C   UNL     1       8.008  28.361  54.638  1.00  0.00     0.269 C 
ENDBRANCH  17  18
ENDBRANCH  16  17
ENDBRANCH  13  16
ENDBRANCH  11  12
ENDBRANCH   6  11
BRANCH   7  22
HETATM   22  C   UNL     1       4.662  30.379  48.285  1.00  0.00    -0.030 A 
HETATM   23  C   UNL     1       5.298  31.595  48.608  1.00  0.00     0.010 A 
HETATM   24  C   UNL     1       5.631  32.531  47.622  1.00  0.00     0.008 A 
HETATM   25  C   UNL     1       5.372  32.274  46.274  1.00  0.00    -0.055 A 
HETATM   26  C   UNL     1       4.848  31.024  45.931  1.00  0.00     0.008 A 
HETATM   27  C   UNL     1       4.504  30.092  46.917  1.00  0.00     0.010 A 
BRANCH  25  28
HETATM   28  C   UNL     1       5.649  33.340  45.225  1.00  0.00     0.010 C 
HETATM   29  C   UNL     1       4.755  34.566  45.409  1.00  0.00     0.015 C 
HETATM   30  C   UNL     1       7.128  33.739  45.212  1.00  0.00     0.015 C 
ENDBRANCH  25  28
ENDBRANCH   7  22
BRANCH  10  31
HETATM   31  C   UNL     1       4.212  26.965  49.353  1.00  0.00     0.256 C 
HETATM   32  N   UNL     1       4.199  26.739  50.712  1.00  0.00    -0.323 N 
HETATM   33  H   UNL     1       3.473  27.157  51.274  1.00  0.00     0.169 HD
HETATM   34  O   UNL     1       4.946  26.433  48.531  1.00  0.00    -0.267 OA
BRANCH  32  35
HETATM   35  C   UNL     1       5.158  26.059  51.492  1.00  0.00     0.035 A 
HETATM   36  C   UNL     1       6.527  26.316  51.451  1.00  0.00     0.029 A 
HETATM   37  C   UNL     1       7.386  25.679  52.354  1.00  0.00     0.002 A 
HETATM   38  C   UNL     1       6.885  24.773  53.289  1.00  0.00     0.000 A 
HETATM   39  C   UNL     1       5.524  24.492  53.317  1.00  0.00     0.002 A 
HETATM   40  C   UNL     1       4.664  25.135  52.426  1.00  0.00     0.029 A 
ENDBRANCH  32  35
ENDBRANCH  10  31
TORSDOF 9
ENDMDL
MODEL 7
REMARK VINA RESULT:      -8.1      6.182     11.664
REMARK  9 active torsions:
REMARK  status: ('A' for Active; 'I' for Inactive)
REMARK    1  A    between atoms: C_6  and  C_7 
REMARK    2  A    between atoms: C_7  and  C_8 
REMARK       I    between atoms: C_8  and  N_9 
REMARK    3  A    between atoms: N_9  and  C_10 
REMARK    4  A    between atoms: C_10  and  C_11 
REMARK    5  A    between atoms: C_11  and  N_12 
REMARK    6  A    between atoms: C_17  and  C_18 
REMARK    7  A    between atoms: C_21  and  C_22 
REMARK    8  A    between atoms: C_29  and  C_30 
REMARK       I    between atoms: C_30  and  N_31 
REMARK    9  A    between atoms: N_31  and  C_32 
ROOT
HETATM    1  C   UNL     1       0.910  34.641  61.066  1.00  0.00     0.071 C 
HETATM    2  C   UNL     1       2.304  34.611  61.648  1.00  0.00     0.047 C 
HETATM    3  N   UNL     1       2.314  34.784  63.025  1.00  0.00    -0.229 NA
HETATM    4  C   UNL     1       3.419  34.544  63.642  1.00  0.00     0.170 C 
HETATM    5  N   UNL     1       4.781  34.285  62.944  1.00  0.00    -0.319 N 
HETATM    6  C   UNL     1       5.653  33.790  63.758  1.00  0.00     0.011 C 
HETATM    7  C   UNL     1       4.787  34.806  61.558  1.00  0.00     0.165 C 
HETATM    8  S   UNL     1       3.546  34.361  65.358  1.00  0.00    -0.086 SA
HETATM    9  C   UNL     1       5.155  33.531  65.163  1.00  0.00     0.135 C 
HETATM   10  C   UNL     1       3.447  34.431  60.941  1.00  0.00     0.062 C 
ENDROOT
BRANCH   6  11
HETATM   11  C   UNL     1       7.079  33.538  63.361  1.00  0.00     0.156 C 
BRANCH  11  12
HETATM   12  C   UNL     1       7.279  32.408  62.371  1.00  0.00     0.223 C 
HETATM   13  N   UNL     1       7.875  32.787  61.196  1.00  0.00    -0.359 N 
HETATM   14  H   UNL     1       8.055  33.780  61.061  1.00  0.00     0.162 HD
HETATM   15  O   UNL     1       6.900  31.265  62.607  1.00  0.00    -0.273 OA
BRANCH  13  16
HETATM   16  C   UNL     1       7.969  32.008  59.957  1.00  0.00     0.150 C 
BRANCH  16  17
HETATM   17  C   UNL     1       6.703  31.817  59.095  1.00  0.00     0.253 C 
BRANCH  17  18
HETATM   18  N   UNL     1       6.559  30.419  58.531  1.00  0.00    -0.077 N 
HETATM   19  H   UNL     1       5.959  29.901  59.205  1.00  0.00     0.279 HD
HETATM   20  C   UNL     1       5.894  30.353  57.183  1.00  0.00     0.269 C 
HETATM   21  C   UNL     1       7.883  29.700  58.507  1.00  0.00     0.269 C 
ENDBRANCH  17  18
ENDBRANCH  16  17
ENDBRANCH  13  16
ENDBRANCH  11  12
ENDBRANCH   6  11
BRANCH   7  22
HETATM   22  C   UNL     1       5.082  36.321  61.622  1.00  0.00    -0.030 A 
HETATM   23  C   UNL     1       5.938  36.838  62.614  1.00  0.00     0.010 A 
HETATM   24  C   UNL     1       6.046  38.215  62.844  1.00  0.00     0.008 A 
HETATM   25  C   UNL     1       5.329  39.129  62.069  1.00  0.00    -0.055 A 
HETATM   26  C   UNL     1       4.566  38.634  61.007  1.00  0.00     0.008 A 
HETATM   27  C   UNL     1       4.448  37.257  60.784  1.00  0.00     0.010 A 
BRANCH  25  28
HETATM   28  C   UNL     1       5.380  40.613  62.394  1.00  0.00     0.010 C 
HETATM   29  C   UNL     1       6.643  40.984  63.170  1.00  0.00     0.015 C 
HETATM   30  C   UNL     1       5.245  41.466  61.128  1.00  0.00     0.015 C 
ENDBRANCH  25  28
ENDBRANCH   7  22
BRANCH  10  31
HETATM   31  C   UNL     1       3.582  33.722  59.623  1.00  0.00     0.256 C 
HETATM   32  N   UNL     1       4.078  34.510  58.609  1.00  0.00    -0.323 N 
HETATM   33  H   UNL     1       4.597  35.343  58.840  1.00  0.00     0.169 HD
HETATM   34  O   UNL     1       3.047  32.627  59.505  1.00  0.00    -0.267 OA
BRANCH  32  35
HETATM   35  C   UNL     1       3.871  34.374  57.220  1.00  0.00     0.035 A 
HETATM   36  C   UNL     1       4.777  33.775  56.347  1.00  0.00     0.029 A 
HETATM   37  C   UNL     1       4.429  33.571  55.006  1.00  0.00     0.002 A 
HETATM   38  C   UNL     1       3.184  33.981  54.529  1.00  0.00     0.000 A 
HETATM   39  C   UNL     1       2.286  34.604  55.388  1.00  0.00     0.002 A 
HETATM   40  C   UNL     1       2.626  34.796  56.727  1.00  0.00     0.029 A 
ENDBRANCH  32  35
ENDBRANCH  10  31
TORSDOF 9
ENDMDL
MODEL 8
REMARK VINA RESULT:      -8.0      4.530      6.749
REMARK  9 active torsions:
REMARK  status: ('A' for Active; 'I' for Inactive)
REMARK    1  A    between atoms: C_6  and  C_7 
REMARK    2  A    between atoms: C_7  and  C_8 
REMARK       I    between atoms: C_8  and  N_9 
REMARK    3  A    between atoms: N_9  and  C_10 
REMARK    4  A    between atoms: C_10  and  C_11 
REMARK    5  A    between atoms: C_11  and  N_12 
REMARK    6  A    between atoms: C_17  and  C_18 
REMARK    7  A    between atoms: C_21  and  C_22 
REMARK    8  A    between atoms: C_29  and  C_30 
REMARK       I    between atoms: C_30  and  N_31 
REMARK    9  A    between atoms: N_31  and  C_32 
ROOT
HETATM    1  C   UNL     1       2.402  29.362  48.626  1.00  0.00     0.071 C 
HETATM    2  C   UNL     1       2.917  30.169  49.796  1.00  0.00     0.047 C 
HETATM    3  N   UNL     1       2.121  31.269  50.082  1.00  0.00    -0.229 NA
HETATM    4  C   UNL     1       2.337  31.882  51.193  1.00  0.00     0.170 C 
HETATM    5  N   UNL     1       3.550  31.616  52.125  1.00  0.00    -0.319 N 
HETATM    6  C   UNL     1       3.384  32.142  53.293  1.00  0.00     0.011 C 
HETATM    7  C   UNL     1       4.656  30.954  51.399  1.00  0.00     0.165 C 
HETATM    8  S   UNL     1       1.249  33.035  51.888  1.00  0.00    -0.086 SA
HETATM    9  C   UNL     1       2.058  32.840  53.508  1.00  0.00     0.135 C 
HETATM   10  C   UNL     1       4.027  29.882  50.519  1.00  0.00     0.062 C 
ENDROOT
BRANCH   6  11
HETATM   11  C   UNL     1       4.448  32.115  54.352  1.00  0.00     0.156 C 
BRANCH  11  12
HETATM   12  C   UNL     1       4.699  30.757  54.975  1.00  0.00     0.223 C 
HETATM   13  N   UNL     1       5.753  30.725  55.851  1.00  0.00    -0.359 N 
HETATM   14  H   UNL     1       6.310  31.571  55.946  1.00  0.00     0.162 HD
HETATM   15  O   UNL     1       4.027  29.773  54.679  1.00  0.00    -0.273 OA
BRANCH  13  16
HETATM   16  C   UNL     1       6.409  29.536  56.408  1.00  0.00     0.150 C 
BRANCH  16  17
HETATM   17  C   UNL     1       7.891  29.272  56.071  1.00  0.00     0.253 C 
BRANCH  17  18
HETATM   18  N   UNL     1       8.765  29.078  57.294  1.00  0.00    -0.077 N 
HETATM   19  H   UNL     1       8.849  28.050  57.423  1.00  0.00     0.279 HD
HETATM   20  C   UNL     1      10.155  29.639  57.165  1.00  0.00     0.269 C 
HETATM   21  C   UNL     1       8.092  29.606  58.536  1.00  0.00     0.269 C 
ENDBRANCH  17  18
ENDBRANCH  16  17
ENDBRANCH  13  16
ENDBRANCH  11  12
ENDBRANCH   6  11
BRANCH   7  22
HETATM   22  C   UNL     1       5.449  32.044  50.643  1.00  0.00    -0.030 A 
HETATM   23  C   UNL     1       5.528  33.353  51.160  1.00  0.00     0.010 A 
HETATM   24  C   UNL     1       6.036  34.412  50.398  1.00  0.00     0.008 A 
HETATM   25  C   UNL     1       6.514  34.198  49.103  1.00  0.00    -0.055 A 
HETATM   26  C   UNL     1       6.546  32.885  48.623  1.00  0.00     0.008 A 
HETATM   27  C   UNL     1       6.029  31.827  49.380  1.00  0.00     0.010 A 
BRANCH  25  28
HETATM   28  C   UNL     1       6.970  35.373  48.252  1.00  0.00     0.010 C 
HETATM   29  C   UNL     1       8.493  35.454  48.162  1.00  0.00     0.015 C 
HETATM   30  C   UNL     1       6.340  35.327  46.856  1.00  0.00     0.015 C 
ENDBRANCH  25  28
ENDBRANCH   7  22
BRANCH  10  31
HETATM   31  C   UNL     1       4.653  28.528  50.702  1.00  0.00     0.256 C 
HETATM   32  N   UNL     1       4.507  28.008  51.968  1.00  0.00    -0.323 N 
HETATM   33  H   UNL     1       3.774  28.359  52.565  1.00  0.00     0.169 HD
HETATM   34  O   UNL     1       5.406  28.123  49.826  1.00  0.00    -0.267 OA
BRANCH  32  35
HETATM   35  C   UNL     1       5.338  27.078  52.629  1.00  0.00     0.035 A 
HETATM   36  C   UNL     1       6.566  27.396  53.207  1.00  0.00     0.029 A 
HETATM   37  C   UNL     1       7.259  26.435  53.952  1.00  0.00     0.002 A 
HETATM   38  C   UNL     1       6.739  25.151  54.108  1.00  0.00     0.000 A 
HETATM   39  C   UNL     1       5.528  24.818  53.511  1.00  0.00     0.002 A 
HETATM   40  C   UNL     1       4.829  25.778  52.779  1.00  0.00     0.029 A 
ENDBRANCH  32  35
ENDBRANCH  10  31
TORSDOF 9
ENDMDL
MODEL 9
REMARK VINA RESULT:      -7.8      4.649      7.223
REMARK  9 active torsions:
REMARK  status: ('A' for Active; 'I' for Inactive)
REMARK    1  A    between atoms: C_6  and  C_7 
REMARK    2  A    between atoms: C_7  and  C_8 
REMARK       I    between atoms: C_8  and  N_9 
REMARK    3  A    between atoms: N_9  and  C_10 
REMARK    4  A    between atoms: C_10  and  C_11 
REMARK    5  A    between atoms: C_11  and  N_12 
REMARK    6  A    between atoms: C_17  and  C_18 
REMARK    7  A    between atoms: C_21  and  C_22 
REMARK    8  A    between atoms: C_29  and  C_30 
REMARK       I    between atoms: C_30  and  N_31 
REMARK    9  A    between atoms: N_31  and  C_32 
ROOT
HETATM    1  C   UNL     1       1.627  27.186  48.018  1.00  0.00     0.071 C 
HETATM    2  C   UNL     1       2.204  28.376  48.750  1.00  0.00     0.047 C 
HETATM    3  N   UNL     1       1.347  29.467  48.760  1.00  0.00    -0.229 NA
HETATM    4  C   UNL     1       1.641  30.441  49.550  1.00  0.00     0.170 C 
HETATM    5  N   UNL     1       2.981  30.577  50.322  1.00  0.00    -0.319 N 
HETATM    6  C   UNL     1       2.913  31.471  51.252  1.00  0.00     0.011 C 
HETATM    7  C   UNL     1       4.046  29.754  49.707  1.00  0.00     0.165 C 
HETATM    8  S   UNL     1       0.543  31.712  49.966  1.00  0.00    -0.086 SA
HETATM    9  C   UNL     1       1.563  32.137  51.414  1.00  0.00     0.135 C 
HETATM   10  C   UNL     1       3.419  28.413  49.351  1.00  0.00     0.062 C 
ENDROOT
BRANCH   6  11
HETATM   11  C   UNL     1       4.099  31.867  52.083  1.00  0.00     0.156 C 
BRANCH  11  12
HETATM   12  C   UNL     1       4.178  31.208  53.445  1.00  0.00     0.223 C 
HETATM   13  N   UNL     1       4.579  32.044  54.454  1.00  0.00    -0.359 N 
HETATM   14  H   UNL     1       4.858  32.989  54.197  1.00  0.00     0.162 HD
HETATM   15  O   UNL     1       3.934  30.015  53.603  1.00  0.00    -0.273 OA
BRANCH  13  16
HETATM   16  C   UNL     1       5.001  31.665  55.807  1.00  0.00     0.150 C 
BRANCH  16  17
HETATM   17  C   UNL     1       3.928  31.465  56.898  1.00  0.00     0.253 C 
BRANCH  17  18
HETATM   18  N   UNL     1       4.496  31.050  58.239  1.00  0.00    -0.077 N 
HETATM   19  H   UNL     1       4.489  30.010  58.241  1.00  0.00     0.279 HD
HETATM   20  C   UNL     1       5.911  31.499  58.484  1.00  0.00     0.269 C 
HETATM   21  C   UNL     1       3.598  31.481  59.370  1.00  0.00     0.269 C 
ENDBRANCH  17  18
ENDBRANCH  16  17
ENDBRANCH  13  16
ENDBRANCH  11  12
ENDBRANCH   6  11
BRANCH   7  22
HETATM   22  C   UNL     1       4.629  30.545  48.514  1.00  0.00    -0.030 A 
HETATM   23  C   UNL     1       5.309  31.760  48.731  1.00  0.00     0.010 A 
HETATM   24  C   UNL     1       5.645  32.611  47.671  1.00  0.00     0.008 A 
HETATM   25  C   UNL     1       5.343  32.265  46.352  1.00  0.00    -0.055 A 
HETATM   26  C   UNL     1       4.772  31.011  46.115  1.00  0.00     0.008 A 
HETATM   27  C   UNL     1       4.426  30.164  47.175  1.00  0.00     0.010 A 
BRANCH  25  28
HETATM   28  C   UNL     1       5.624  33.242  45.222  1.00  0.00     0.010 C 
HETATM   29  C   UNL     1       4.645  34.416  45.226  1.00  0.00     0.015 C 
HETATM   30  C   UNL     1       7.073  33.739  45.262  1.00  0.00     0.015 C 
ENDBRANCH  25  28
ENDBRANCH   7  22
BRANCH  10  31
HETATM   31  C   UNL     1       4.190  27.240  49.887  1.00  0.00     0.256 C 
HETATM   32  N   UNL     1       4.127  27.105  51.256  1.00  0.00    -0.323 N 
HETATM   33  H   UNL     1       3.373  27.544  51.761  1.00  0.00     0.169 HD
HETATM   34  O   UNL     1       4.964  26.670  49.130  1.00  0.00    -0.267 OA
BRANCH  32  35
HETATM   35  C   UNL     1       5.067  26.497  52.115  1.00  0.00     0.035 A 
HETATM   36  C   UNL     1       5.070  25.141  52.440  1.00  0.00     0.029 A 
HETATM   37  C   UNL     1       6.118  24.605  53.198  1.00  0.00     0.002 A 
HETATM   38  C   UNL     1       7.155  25.422  53.649  1.00  0.00     0.000 A 
HETATM   39  C   UNL     1       7.144  26.781  53.352  1.00  0.00     0.002 A 
HETATM   40  C   UNL     1       6.107  27.314  52.585  1.00  0.00     0.029 A 
ENDBRANCH  32  35
ENDBRANCH  10  31
TORSDOF 9
ENDMDL
MODEL 10
REMARK VINA RESULT:      -7.7      3.333      9.278
REMARK  9 active torsions:
REMARK  status: ('A' for Active; 'I' for Inactive)
REMARK    1  A    between atoms: C_6  and  C_7 
REMARK    2  A    between atoms: C_7  and  C_8 
REMARK       I    between atoms: C_8  and  N_9 
REMARK    3  A    between atoms: N_9  and  C_10 
REMARK    4  A    between atoms: C_10  and  C_11 
REMARK    5  A    between atoms: C_11  and  N_12 
REMARK    6  A    between atoms: C_17  and  C_18 
REMARK    7  A    between atoms: C_21  and  C_22 
REMARK    8  A    between atoms: C_29  and  C_30 
REMARK       I    between atoms: C_30  and  N_31 
REMARK    9  A    between atoms: N_31  and  C_32 
ROOT
HETATM    1  C   UNL     1       9.962  32.615  60.122  1.00  0.00     0.071 C 
HETATM    2  C   UNL     1       9.031  31.665  59.403  1.00  0.00     0.047 C 
HETATM    3  N   UNL     1       9.555  31.206  58.204  1.00  0.00    -0.229 NA
HETATM    4  C   UNL     1       8.951  30.221  57.634  1.00  0.00     0.170 C 
HETATM    5  N   UNL     1       7.573  29.658  58.075  1.00  0.00    -0.319 N 
HETATM    6  C   UNL     1       7.328  28.509  57.538  1.00  0.00     0.011 C 
HETATM    7  C   UNL     1       6.820  30.643  58.883  1.00  0.00     0.165 C 
HETATM    8  S   UNL     1       9.629  29.289  56.343  1.00  0.00    -0.086 SA
HETATM    9  C   UNL     1       8.430  27.955  56.660  1.00  0.00     0.135 C 
HETATM   10  C   UNL     1       7.813  31.273  59.850  1.00  0.00     0.062 C 
ENDROOT
BRANCH   6  11
HETATM   11  C   UNL     1       6.023  27.791  57.722  1.00  0.00     0.156 C 
BRANCH  11  12
HETATM   12  C   UNL     1       5.449  27.169  56.466  1.00  0.00     0.223 C 
HETATM   13  N   UNL     1       5.653  25.817  56.362  1.00  0.00    -0.359 N 
HETATM   14  H   UNL     1       6.225  25.373  57.078  1.00  0.00     0.162 HD
HETATM   15  O   UNL     1       4.885  27.842  55.608  1.00  0.00    -0.273 OA
BRANCH  13  16
HETATM   16  C   UNL     1       5.461  24.979  55.173  1.00  0.00     0.150 C 
BRANCH  16  17
HETATM   17  C   UNL     1       6.644  24.769  54.206  1.00  0.00     0.253 C 
BRANCH  17  18
HETATM   18  N   UNL     1       7.236  23.376  54.266  1.00  0.00    -0.077 N 
HETATM   19  H   UNL     1       6.445  22.740  54.491  1.00  0.00     0.279 HD
HETATM   20  C   UNL     1       7.852  22.901  52.978  1.00  0.00     0.269 C 
HETATM   21  C   UNL     1       8.218  23.247  55.403  1.00  0.00     0.269 C 
ENDBRANCH  17  18
ENDBRANCH  16  17
ENDBRANCH  13  16
ENDBRANCH  11  12
ENDBRANCH   6  11
BRANCH   7  22
HETATM   22  C   UNL     1       6.131  31.627  57.912  1.00  0.00    -0.030 A 
HETATM   23  C   UNL     1       5.722  32.900  58.359  1.00  0.00     0.010 A 
HETATM   24  C   UNL     1       4.898  33.721  57.580  1.00  0.00     0.008 A 
HETATM   25  C   UNL     1       4.478  33.315  56.311  1.00  0.00    -0.055 A 
HETATM   26  C   UNL     1       4.970  32.106  55.810  1.00  0.00     0.008 A 
HETATM   27  C   UNL     1       5.785  31.280  56.593  1.00  0.00     0.010 A 
BRANCH  25  28
HETATM   28  C   UNL     1       3.504  34.172  55.518  1.00  0.00     0.010 C 
HETATM   29  C   UNL     1       4.091  35.544  55.185  1.00  0.00     0.015 C 
HETATM   30  C   UNL     1       3.036  33.455  54.247  1.00  0.00     0.015 C 
ENDBRANCH  25  28
ENDBRANCH   7  22
BRANCH  10  31
HETATM   31  C   UNL     1       7.354  31.227  61.279  1.00  0.00     0.256 C 
HETATM   32  N   UNL     1       6.539  32.277  61.643  1.00  0.00    -0.323 N 
HETATM   33  H   UNL     1       6.055  32.795  60.926  1.00  0.00     0.169 HD
HETATM   34  O   UNL     1       7.904  30.434  62.032  1.00  0.00    -0.267 OA
BRANCH  32  35
HETATM   35  C   UNL     1       6.350  32.829  62.927  1.00  0.00     0.035 A 
HETATM   36  C   UNL     1       5.112  32.951  63.554  1.00  0.00     0.029 A 
HETATM   37  C   UNL     1       5.038  33.394  64.880  1.00  0.00     0.002 A 
HETATM   38  C   UNL     1       6.197  33.733  65.577  1.00  0.00     0.000 A 
HETATM   39  C   UNL     1       7.434  33.640  64.950  1.00  0.00     0.002 A 
HETATM   40  C   UNL     1       7.510  33.186  63.633  1.00  0.00     0.029 A 
ENDBRANCH  32  35
ENDBRANCH  10  31
TORSDOF 9
ENDMDL
