MODEL 1
REMARK VINA RESULT:     -10.1      0.000      0.000
REMARK  7 active torsions:
REMARK  status: ('A' for Active; 'I' for Inactive)
REMARK    1  A    between atoms: C_6  and  N_7 
REMARK       I    between atoms: N_7  and  C_8 
REMARK       I    between atoms: C_8  and  N_9 
REMARK    2  A    between atoms: N_9  and  C_10 
REMARK    3  A    between atoms: C_10  and  C_11 
REMARK    4  A    between atoms: C_11  and  C_12 
REMARK    5  A    between atoms: C_12  and  C_13 
REMARK    6  A    between atoms: C_13  and  O_14 
REMARK    7  A    between atoms: O_14  and  C_15 
ROOT
HETATM    1  C   UNL     1       8.254  28.289  57.259  1.00  0.00     0.219 C 
ENDROOT
BRANCH   1   2
HETATM    2  N   UNL     1       7.117  27.406  57.349  1.00  0.00    -0.332 N 
HETATM    3  C   UNL     1       6.871  26.182  56.812  1.00  0.00     0.321 C 
HETATM    4  N   UNL     1       7.807  25.696  55.944  1.00  0.00    -0.309 N 
HETATM    5  O   UNL     1       5.839  25.619  57.162  1.00  0.00    -0.247 OA
HETATM    6  H   UNL     1       8.517  26.338  55.638  1.00  0.00     0.170 HD
HETATM    7  H   UNL     1       6.364  27.700  57.958  1.00  0.00     0.165 HD
BRANCH   4   8
HETATM    8  C   UNL     1       7.827  24.436  55.307  1.00  0.00     0.036 A 
HETATM    9  C   UNL     1       7.853  23.214  55.981  1.00  0.00     0.037 A 
HETATM   10  C   UNL     1       7.865  21.991  55.281  1.00  0.00    -0.054 A 
HETATM   11  C   UNL     1       7.839  21.996  53.874  1.00  0.00    -0.056 A 
HETATM   12  C   UNL     1       7.851  20.706  56.066  1.00  0.00     0.049 C 
HETATM   13  C   UNL     1       7.840  20.720  53.080  1.00  0.00     0.049 C 
HETATM   14  C   UNL     1       7.832  23.225  53.201  1.00  0.00     0.009 A 
HETATM   15  C   UNL     1       7.822  24.429  53.909  1.00  0.00     0.030 A 
ENDBRANCH   4   8
ENDBRANCH   1   2
BRANCH   1  16
HETATM   16  C   UNL     1       7.992  29.517  58.115  1.00  0.00    -0.085 C 
BRANCH  16  17
HETATM   17  C   UNL     1       7.766  30.571  58.849  1.00  0.00    -0.078 C 
BRANCH  17  18
HETATM   18  C   UNL     1       7.502  31.799  59.705  1.00  0.00     0.269 C 
BRANCH  18  19
HETATM   19  O   UNL     1       6.543  31.489  60.710  1.00  0.00    -0.339 OA
BRANCH  19  20
HETATM   20  C   UNL     1       6.753  32.061  61.938  1.00  0.00     0.072 A 
HETATM   21  C   UNL     1       5.592  32.367  62.654  1.00  0.00     0.069 A 
HETATM   22  C   UNL     1       5.636  32.945  63.917  1.00  0.00     0.069 A 
HETATM   23  C   UNL     1       6.899  33.208  64.487  1.00  0.00    -0.007 A 
HETATM   24  N   UNL     1       4.488  33.240  64.555  1.00  0.00    -0.260 NA
HETATM   25  C   UNL     1       8.069  32.888  63.784  1.00  0.00     0.016 A 
HETATM   26  C   UNL     1       6.942  33.787  65.761  1.00  0.00     0.015 A 
HETATM   27  C   UNL     1       7.996  32.318  62.512  1.00  0.00     0.038 A 
HETATM   28  C   UNL     1       5.758  34.091  66.421  1.00  0.00     0.020 A 
HETATM   29  C   UNL     1       4.569  33.803  65.781  1.00  0.00     0.117 A 
ENDBRANCH  19  20
ENDBRANCH  18  19
ENDBRANCH  17  18
ENDBRANCH  16  17
ENDBRANCH   1  16
TORSDOF 7
ENDMDL
MODEL 2
REMARK VINA RESULT:      -9.9      1.369      1.745
REMARK  7 active torsions:
REMARK  status: ('A' for Active; 'I' for Inactive)
REMARK    1  A    between atoms: C_6  and  N_7 
REMARK       I    between atoms: N_7  and  C_8 
REMARK       I    between atoms: C_8  and  N_9 
REMARK    2  A    between atoms: N_9  and  C_10 
REMARK    3  A    between atoms: C_10  and  C_11 
REMARK    4  A    between atoms: C_11  and  C_12 
REMARK    5  A    between atoms: C_12  and  C_13 
REMARK    6  A    between atoms: C_13  and  O_14 
REMARK    7  A    between atoms: O_14  and  C_15 
ROOT
HETATM    1  C   UNL     1       5.829  27.634  56.795  1.00  0.00     0.219 C 
ENDROOT
BRANCH   1   2
HETATM    2  N   UNL     1       7.004  26.904  57.204  1.00  0.00    -0.332 N 
HETATM    3  C   UNL     1       7.566  25.753  56.748  1.00  0.00     0.321 C 
HETATM    4  N   UNL     1       6.874  25.077  55.784  1.00  0.00    -0.309 N 
HETATM    5  O   UNL     1       8.646  25.433  57.232  1.00  0.00    -0.247 OA
HETATM    6  H   UNL     1       5.933  25.381  55.604  1.00  0.00     0.170 HD
HETATM    7  H   UNL     1       7.568  27.326  57.931  1.00  0.00     0.165 HD
BRANCH   4   8
HETATM    8  C   UNL     1       7.263  23.904  55.100  1.00  0.00     0.036 A 
HETATM    9  C   UNL     1       7.506  22.677  55.719  1.00  0.00     0.037 A 
HETATM   10  C   UNL     1       7.886  21.543  54.974  1.00  0.00    -0.054 A 
HETATM   11  C   UNL     1       8.015  21.642  53.577  1.00  0.00    -0.056 A 
HETATM   12  C   UNL     1       8.093  20.237  55.695  1.00  0.00     0.049 C 
HETATM   13  C   UNL     1       8.408  20.460  52.734  1.00  0.00     0.049 C 
HETATM   14  C   UNL     1       7.789  22.880  52.961  1.00  0.00     0.009 A 
HETATM   15  C   UNL     1       7.415  23.995  53.714  1.00  0.00     0.030 A 
ENDBRANCH   4   8
ENDBRANCH   1   2
BRANCH   1  16
HETATM   16  C   UNL     1       5.933  29.060  57.308  1.00  0.00    -0.085 C 
BRANCH  16  17
HETATM   17  C   UNL     1       6.022  30.285  57.748  1.00  0.00    -0.078 C 
BRANCH  17  18
HETATM   18  C   UNL     1       6.128  31.712  58.260  1.00  0.00     0.269 C 
BRANCH  18  19
HETATM   19  O   UNL     1       7.470  31.987  58.648  1.00  0.00    -0.339 OA
BRANCH  19  20
HETATM   20  C   UNL     1       7.677  32.195  59.986  1.00  0.00     0.072 A 
HETATM   21  C   UNL     1       6.551  32.618  60.700  1.00  0.00     0.069 A 
HETATM   22  C   UNL     1       6.595  32.866  62.066  1.00  0.00     0.069 A 
HETATM   23  C   UNL     1       7.815  32.663  62.743  1.00  0.00    -0.007 A 
HETATM   24  N   UNL     1       5.488  33.293  62.702  1.00  0.00    -0.260 NA
HETATM   25  C   UNL     1       8.945  32.222  62.039  1.00  0.00     0.016 A 
HETATM   26  C   UNL     1       7.858  32.910  64.120  1.00  0.00     0.015 A 
HETATM   27  C   UNL     1       8.876  31.991  60.664  1.00  0.00     0.038 A 
HETATM   28  C   UNL     1       6.716  33.349  64.777  1.00  0.00     0.020 A 
HETATM   29  C   UNL     1       5.568  33.525  64.031  1.00  0.00     0.117 A 
ENDBRANCH  19  20
ENDBRANCH  18  19
ENDBRANCH  17  18
ENDBRANCH  16  17
ENDBRANCH   1  16
TORSDOF 7
ENDMDL
MODEL 3
REMARK VINA RESULT:      -9.9      2.116     12.018
REMARK  7 active torsions:
REMARK  status: ('A' for Active; 'I' for Inactive)
REMARK    1  A    between atoms: C_6  and  N_7 
REMARK       I    between atoms: N_7  and  C_8 
REMARK       I    between atoms: C_8  and  N_9 
REMARK    2  A    between atoms: N_9  and  C_10 
REMARK    3  A    between atoms: C_10  and  C_11 
REMARK    4  A    between atoms: C_11  and  C_12 
REMARK    5  A    between atoms: C_12  and  C_13 
REMARK    6  A    between atoms: C_13  and  O_14 
REMARK    7  A    between atoms: O_14  and  C_15 
ROOT
HETATM    1  C   UNL     1       8.216  28.977  58.048  1.00  0.00     0.219 C 
ENDROOT
BRANCH   1   2
HETATM    2  N   UNL     1       8.780  30.301  58.140  1.00  0.00    -0.332 N 
HETATM    3  C   UNL     1       8.664  31.277  59.080  1.00  0.00     0.321 C 
HETATM    4  N   UNL     1       7.790  31.039  60.102  1.00  0.00    -0.309 N 
HETATM    5  O   UNL     1       9.363  32.275  58.934  1.00  0.00    -0.247 OA
HETATM    6  H   UNL     1       7.177  30.250  59.999  1.00  0.00     0.170 HD
HETATM    7  H   UNL     1       9.427  30.569  57.409  1.00  0.00     0.165 HD
BRANCH   4   8
HETATM    8  C   UNL     1       7.535  31.850  61.229  1.00  0.00     0.036 A 
HETATM    9  C   UNL     1       6.658  32.937  61.235  1.00  0.00     0.037 A 
HETATM   10  C   UNL     1       6.445  33.701  62.399  1.00  0.00    -0.054 A 
HETATM   11  C   UNL     1       7.120  33.359  63.586  1.00  0.00    -0.056 A 
HETATM   12  C   UNL     1       5.456  34.835  62.353  1.00  0.00     0.049 C 
HETATM   13  C   UNL     1       6.921  34.135  64.859  1.00  0.00     0.049 C 
HETATM   14  C   UNL     1       8.013  32.280  63.572  1.00  0.00     0.009 A 
HETATM   15  C   UNL     1       8.214  31.533  62.409  1.00  0.00     0.030 A 
ENDBRANCH   4   8
ENDBRANCH   1   2
BRANCH   1  16
HETATM   16  C   UNL     1       7.977  28.645  56.584  1.00  0.00    -0.085 C 
BRANCH  16  17
HETATM   17  C   UNL     1       7.773  28.361  55.328  1.00  0.00    -0.078 C 
BRANCH  17  18
HETATM   18  C   UNL     1       7.533  28.030  53.864  1.00  0.00     0.269 C 
BRANCH  18  19
HETATM   19  O   UNL     1       6.524  27.032  53.755  1.00  0.00    -0.339 OA
BRANCH  19  20
HETATM   20  C   UNL     1       6.963  25.758  53.507  1.00  0.00     0.072 A 
HETATM   21  C   UNL     1       6.923  24.894  54.606  1.00  0.00     0.069 A 
HETATM   22  C   UNL     1       7.328  23.569  54.517  1.00  0.00     0.069 A 
HETATM   23  C   UNL     1       7.775  23.089  53.268  1.00  0.00    -0.007 A 
HETATM   24  N   UNL     1       7.290  22.785  55.611  1.00  0.00    -0.260 NA
HETATM   25  C   UNL     1       7.802  23.943  52.156  1.00  0.00     0.016 A 
HETATM   26  C   UNL     1       8.180  21.752  53.178  1.00  0.00     0.015 A 
HETATM   27  C   UNL     1       7.400  25.274  52.276  1.00  0.00     0.038 A 
HETATM   28  C   UNL     1       8.140  20.943  54.306  1.00  0.00     0.020 A 
HETATM   29  C   UNL     1       7.693  21.501  55.487  1.00  0.00     0.117 A 
ENDBRANCH  19  20
ENDBRANCH  18  19
ENDBRANCH  17  18
ENDBRANCH  16  17
ENDBRANCH   1  16
TORSDOF 7
ENDMDL
MODEL 4
REMARK VINA RESULT:      -9.6      1.637      2.620
REMARK  7 active torsions:
REMARK  status: ('A' for Active; 'I' for Inactive)
REMARK    1  A    between atoms: C_6  and  N_7 
REMARK       I    between atoms: N_7  and  C_8 
REMARK       I    between atoms: C_8  and  N_9 
REMARK    2  A    between atoms: N_9  and  C_10 
REMARK    3  A    between atoms: C_10  and  C_11 
REMARK    4  A    between atoms: C_11  and  C_12 
REMARK    5  A    between atoms: C_12  and  C_13 
REMARK    6  A    between atoms: C_13  and  O_14 
REMARK    7  A    between atoms: O_14  and  C_15 
ROOT
HETATM    1  C   UNL     1       7.770  28.368  54.159  1.00  0.00     0.219 C 
ENDROOT
BRANCH   1   2
HETATM    2  N   UNL     1       6.660  27.462  53.997  1.00  0.00    -0.332 N 
HETATM    3  C   UNL     1       6.555  26.115  54.145  1.00  0.00     0.321 C 
HETATM    4  N   UNL     1       7.712  25.438  54.407  1.00  0.00    -0.309 N 
HETATM    5  O   UNL     1       5.432  25.631  54.043  1.00  0.00    -0.247 OA
HETATM    6  H   UNL     1       8.569  25.951  54.305  1.00  0.00     0.170 HD
HETATM    7  H   UNL     1       5.764  27.880  53.780  1.00  0.00     0.165 HD
BRANCH   4   8
HETATM    8  C   UNL     1       7.868  24.059  54.668  1.00  0.00     0.036 A 
HETATM    9  C   UNL     1       7.865  23.067  53.685  1.00  0.00     0.037 A 
HETATM   10  C   UNL     1       8.033  21.708  54.015  1.00  0.00    -0.054 A 
HETATM   11  C   UNL     1       8.217  21.338  55.360  1.00  0.00    -0.056 A 
HETATM   12  C   UNL     1       8.063  20.690  52.906  1.00  0.00     0.049 C 
HETATM   13  C   UNL     1       8.410  19.903  55.765  1.00  0.00     0.049 C 
HETATM   14  C   UNL     1       8.200  22.334  56.346  1.00  0.00     0.009 A 
HETATM   15  C   UNL     1       8.030  23.677  56.002  1.00  0.00     0.030 A 
ENDBRANCH   4   8
ENDBRANCH   1   2
BRANCH   1  16
HETATM   16  C   UNL     1       7.890  28.741  55.628  1.00  0.00    -0.085 C 
BRANCH  16  17
HETATM   17  C   UNL     1       7.993  29.062  56.888  1.00  0.00    -0.078 C 
BRANCH  17  18
HETATM   18  C   UNL     1       8.114  29.435  58.356  1.00  0.00     0.269 C 
BRANCH  18  19
HETATM   19  O   UNL     1       8.187  30.850  58.489  1.00  0.00    -0.339 OA
BRANCH  19  20
HETATM   20  C   UNL     1       8.258  31.330  59.770  1.00  0.00     0.072 A 
HETATM   21  C   UNL     1       7.025  31.632  60.358  1.00  0.00     0.069 A 
HETATM   22  C   UNL     1       6.927  32.122  61.654  1.00  0.00     0.069 A 
HETATM   23  C   UNL     1       8.115  32.296  62.394  1.00  0.00    -0.007 A 
HETATM   24  N   UNL     1       5.717  32.418  62.165  1.00  0.00    -0.260 NA
HETATM   25  C   UNL     1       9.355  31.979  61.820  1.00  0.00     0.016 A 
HETATM   26  C   UNL     1       8.015  32.786  63.702  1.00  0.00     0.015 A 
HETATM   27  C   UNL     1       9.425  31.499  60.510  1.00  0.00     0.038 A 
HETATM   28  C   UNL     1       6.767  33.091  64.230  1.00  0.00     0.020 A 
HETATM   29  C   UNL     1       5.660  32.893  63.429  1.00  0.00     0.117 A 
ENDBRANCH  19  20
ENDBRANCH  18  19
ENDBRANCH  17  18
ENDBRANCH  16  17
ENDBRANCH   1  16
TORSDOF 7
ENDMDL
MODEL 5
REMARK VINA RESULT:      -9.2      4.710      6.112
REMARK  7 active torsions:
REMARK  status: ('A' for Active; 'I' for Inactive)
REMARK    1  A    between atoms: C_6  and  N_7 
REMARK       I    between atoms: N_7  and  C_8 
REMARK       I    between atoms: C_8  and  N_9 
REMARK    2  A    between atoms: N_9  and  C_10 
REMARK    3  A    between atoms: C_10  and  C_11 
REMARK    4  A    between atoms: C_11  and  C_12 
REMARK    5  A    between atoms: C_12  and  C_13 
REMARK    6  A    between atoms: C_13  and  O_14 
REMARK    7  A    between atoms: O_14  and  C_15 
ROOT
HETATM    1  C   UNL     1       4.955  27.063  52.256  1.00  0.00     0.219 C 
ENDROOT
BRANCH   1   2
HETATM    2  N   UNL     1       6.361  26.774  52.118  1.00  0.00    -0.332 N 
HETATM    3  C   UNL     1       7.127  25.742  52.562  1.00  0.00     0.321 C 
HETATM    4  N   UNL     1       6.512  24.831  53.372  1.00  0.00    -0.309 N 
HETATM    5  O   UNL     1       8.294  25.715  52.187  1.00  0.00    -0.247 OA
HETATM    6  H   UNL     1       5.600  25.073  53.716  1.00  0.00     0.170 HD
HETATM    7  H   UNL     1       6.900  27.414  51.547  1.00  0.00     0.165 HD
BRANCH   4   8
HETATM    8  C   UNL     1       7.056  23.644  53.909  1.00  0.00     0.036 A 
HETATM    9  C   UNL     1       7.491  22.561  53.143  1.00  0.00     0.037 A 
HETATM   10  C   UNL     1       8.031  21.407  53.744  1.00  0.00    -0.054 A 
HETATM   11  C   UNL     1       8.145  21.343  55.145  1.00  0.00    -0.056 A 
HETATM   12  C   UNL     1       8.521  20.290  52.861  1.00  0.00     0.049 C 
HETATM   13  C   UNL     1       8.723  20.140  55.837  1.00  0.00     0.049 C 
HETATM   14  C   UNL     1       7.690  22.424  55.913  1.00  0.00     0.009 A 
HETATM   15  C   UNL     1       7.156  23.560  55.301  1.00  0.00     0.030 A 
ENDBRANCH   4   8
ENDBRANCH   1   2
BRANCH   1  16
HETATM   16  C   UNL     1       4.709  27.659  53.633  1.00  0.00    -0.085 C 
BRANCH  16  17
HETATM   17  C   UNL     1       4.498  28.171  54.813  1.00  0.00    -0.078 C 
BRANCH  17  18
HETATM   18  C   UNL     1       4.253  28.769  56.189  1.00  0.00     0.269 C 
BRANCH  18  19
HETATM   19  O   UNL     1       5.067  28.108  57.153  1.00  0.00    -0.339 OA
BRANCH  19  20
HETATM   20  C   UNL     1       6.413  28.347  57.066  1.00  0.00     0.072 A 
HETATM   21  C   UNL     1       6.854  29.496  57.730  1.00  0.00     0.069 A 
HETATM   22  C   UNL     1       8.191  29.874  57.743  1.00  0.00     0.069 A 
HETATM   23  C   UNL     1       9.123  29.052  57.076  1.00  0.00    -0.007 A 
HETATM   24  N   UNL     1       8.559  31.001  58.378  1.00  0.00    -0.260 NA
HETATM   25  C   UNL     1       8.693  27.887  56.423  1.00  0.00     0.016 A 
HETATM   26  C   UNL     1      10.471  29.431  57.092  1.00  0.00     0.015 A 
HETATM   27  C   UNL     1       7.342  27.538  56.416  1.00  0.00     0.038 A 
HETATM   28  C   UNL     1      10.852  30.594  57.748  1.00  0.00     0.020 A 
HETATM   29  C   UNL     1       9.868  31.338  58.369  1.00  0.00     0.117 A 
ENDBRANCH  19  20
ENDBRANCH  18  19
ENDBRANCH  17  18
ENDBRANCH  16  17
ENDBRANCH   1  16
TORSDOF 7
ENDMDL
MODEL 6
REMARK VINA RESULT:      -9.2      1.554      2.131
REMARK  7 active torsions:
REMARK  status: ('A' for Active; 'I' for Inactive)
REMARK    1  A    between atoms: C_6  and  N_7 
REMARK       I    between atoms: N_7  and  C_8 
REMARK       I    between atoms: C_8  and  N_9 
REMARK    2  A    between atoms: N_9  and  C_10 
REMARK    3  A    between atoms: C_10  and  C_11 
REMARK    4  A    between atoms: C_11  and  C_12 
REMARK    5  A    between atoms: C_12  and  C_13 
REMARK    6  A    between atoms: C_13  and  O_14 
REMARK    7  A    between atoms: O_14  and  C_15 
ROOT
HETATM    1  C   UNL     1       5.824  29.715  56.519  1.00  0.00     0.219 C 
ENDROOT
BRANCH   1   2
HETATM    2  N   UNL     1       6.829  29.454  55.518  1.00  0.00    -0.332 N 
HETATM    3  C   UNL     1       7.449  28.309  55.128  1.00  0.00     0.321 C 
HETATM    4  N   UNL     1       7.168  27.185  55.852  1.00  0.00    -0.309 N 
HETATM    5  O   UNL     1       8.194  28.384  54.156  1.00  0.00    -0.247 OA
HETATM    6  H   UNL     1       6.664  27.315  56.711  1.00  0.00     0.170 HD
HETATM    7  H   UNL     1       7.112  30.239  54.946  1.00  0.00     0.165 HD
BRANCH   4   8
HETATM    8  C   UNL     1       7.621  25.869  55.618  1.00  0.00     0.036 A 
HETATM    9  C   UNL     1       7.494  25.197  54.401  1.00  0.00     0.037 A 
HETATM   10  C   UNL     1       7.974  23.884  54.234  1.00  0.00    -0.054 A 
HETATM   11  C   UNL     1       8.605  23.234  55.311  1.00  0.00    -0.056 A 
HETATM   12  C   UNL     1       7.845  23.229  52.884  1.00  0.00     0.049 C 
HETATM   13  C   UNL     1       9.145  21.836  55.183  1.00  0.00     0.049 C 
HETATM   14  C   UNL     1       8.714  23.903  56.537  1.00  0.00     0.009 A 
HETATM   15  C   UNL     1       8.231  25.205  56.687  1.00  0.00     0.030 A 
ENDBRANCH   4   8
ENDBRANCH   1   2
BRANCH   1  16
HETATM   16  C   UNL     1       6.463  30.479  57.668  1.00  0.00    -0.085 C 
BRANCH  16  17
HETATM   17  C   UNL     1       7.011  31.134  58.654  1.00  0.00    -0.078 C 
BRANCH  17  18
HETATM   18  C   UNL     1       7.650  31.898  59.802  1.00  0.00     0.269 C 
BRANCH  18  19
HETATM   19  O   UNL     1       7.523  31.150  61.007  1.00  0.00    -0.339 OA
BRANCH  19  20
HETATM   20  C   UNL     1       7.296  31.880  62.144  1.00  0.00     0.072 A 
HETATM   21  C   UNL     1       5.955  32.189  62.391  1.00  0.00     0.069 A 
HETATM   22  C   UNL     1       5.558  32.916  63.505  1.00  0.00     0.069 A 
HETATM   23  C   UNL     1       6.550  33.333  64.418  1.00  0.00    -0.007 A 
HETATM   24  N   UNL     1       4.256  33.206  63.685  1.00  0.00    -0.260 NA
HETATM   25  C   UNL     1       7.896  33.013  64.189  1.00  0.00     0.016 A 
HETATM   26  C   UNL     1       6.150  34.064  65.543  1.00  0.00     0.015 A 
HETATM   27  C   UNL     1       8.268  32.290  63.054  1.00  0.00     0.038 A 
HETATM   28  C   UNL     1       4.806  34.362  65.729  1.00  0.00     0.020 A 
HETATM   29  C   UNL     1       3.907  33.916  64.780  1.00  0.00     0.117 A 
ENDBRANCH  19  20
ENDBRANCH  18  19
ENDBRANCH  17  18
ENDBRANCH  16  17
ENDBRANCH   1  16
TORSDOF 7
ENDMDL
MODEL 7
REMARK VINA RESULT:      -9.1      1.926     12.298
REMARK  7 active torsions:
REMARK  status: ('A' for Active; 'I' for Inactive)
REMARK    1  A    between atoms: C_6  and  N_7 
REMARK       I    between atoms: N_7  and  C_8 
REMARK       I    between atoms: C_8  and  N_9 
REMARK    2  A    between atoms: N_9  and  C_10 
REMARK    3  A    between atoms: C_10  and  C_11 
REMARK    4  A    between atoms: C_11  and  C_12 
REMARK    5  A    between atoms: C_12  and  C_13 
REMARK    6  A    between atoms: C_13  and  O_14 
REMARK    7  A    between atoms: O_14  and  C_15 
ROOT
HETATM    1  C   UNL     1       8.455  30.821  59.422  1.00  0.00     0.219 C 
ENDROOT
BRANCH   1   2
HETATM    2  N   UNL     1       8.727  30.424  60.782  1.00  0.00    -0.332 N 
HETATM    3  C   UNL     1       8.299  30.915  61.975  1.00  0.00     0.321 C 
HETATM    4  N   UNL     1       7.543  32.051  61.933  1.00  0.00    -0.309 N 
HETATM    5  O   UNL     1       8.620  30.288  62.980  1.00  0.00    -0.247 OA
HETATM    6  H   UNL     1       7.498  32.532  61.052  1.00  0.00     0.170 HD
HETATM    7  H   UNL     1       9.299  29.599  60.906  1.00  0.00     0.165 HD
BRANCH   4   8
HETATM    8  C   UNL     1       6.924  32.721  63.011  1.00  0.00     0.036 A 
HETATM    9  C   UNL     1       5.574  33.073  63.049  1.00  0.00     0.037 A 
HETATM   10  C   UNL     1       5.019  33.736  64.161  1.00  0.00    -0.054 A 
HETATM   11  C   UNL     1       5.837  34.043  65.264  1.00  0.00    -0.056 A 
HETATM   12  C   UNL     1       3.547  34.051  64.159  1.00  0.00     0.049 C 
HETATM   13  C   UNL     1       5.293  34.740  66.480  1.00  0.00     0.049 C 
HETATM   14  C   UNL     1       7.196  33.705  65.216  1.00  0.00     0.009 A 
HETATM   15  C   UNL     1       7.731  33.050  64.104  1.00  0.00     0.030 A 
ENDBRANCH   4   8
ENDBRANCH   1   2
BRANCH   1  16
HETATM   16  C   UNL     1       8.032  29.596  58.628  1.00  0.00    -0.085 C 
BRANCH  16  17
HETATM   17  C   UNL     1       7.667  28.546  57.946  1.00  0.00    -0.078 C 
BRANCH  17  18
HETATM   18  C   UNL     1       7.244  27.321  57.151  1.00  0.00     0.269 C 
BRANCH  18  19
HETATM   19  O   UNL     1       8.271  26.336  57.200  1.00  0.00    -0.339 OA
BRANCH  19  20
HETATM   20  C   UNL     1       8.097  25.248  56.386  1.00  0.00     0.072 A 
HETATM   21  C   UNL     1       8.363  24.013  56.985  1.00  0.00     0.069 A 
HETATM   22  C   UNL     1       8.229  22.814  56.296  1.00  0.00     0.069 A 
HETATM   23  C   UNL     1       7.791  22.861  54.956  1.00  0.00    -0.007 A 
HETATM   24  N   UNL     1       8.519  21.654  56.913  1.00  0.00    -0.260 NA
HETATM   25  C   UNL     1       7.503  24.093  54.352  1.00  0.00     0.016 A 
HETATM   26  C   UNL     1       7.651  21.653  54.262  1.00  0.00     0.015 A 
HETATM   27  C   UNL     1       7.659  25.284  55.065  1.00  0.00     0.038 A 
HETATM   28  C   UNL     1       7.950  20.454  54.899  1.00  0.00     0.020 A 
HETATM   29  C   UNL     1       8.377  20.508  56.211  1.00  0.00     0.117 A 
ENDBRANCH  19  20
ENDBRANCH  18  19
ENDBRANCH  17  18
ENDBRANCH  16  17
ENDBRANCH   1  16
TORSDOF 7
ENDMDL
MODEL 8
REMARK VINA RESULT:      -9.0      3.085      4.561
REMARK  7 active torsions:
REMARK  status: ('A' for Active; 'I' for Inactive)
REMARK    1  A    between atoms: C_6  and  N_7 
REMARK       I    between atoms: N_7  and  C_8 
REMARK       I    between atoms: C_8  and  N_9 
REMARK    2  A    between atoms: N_9  and  C_10 
REMARK    3  A    between atoms: C_10  and  C_11 
REMARK    4  A    between atoms: C_11  and  C_12 
REMARK    5  A    between atoms: C_12  and  C_13 
REMARK    6  A    between atoms: C_13  and  O_14 
REMARK    7  A    between atoms: O_14  and  C_15 
ROOT
HETATM    1  C   UNL     1       4.946  27.116  52.619  1.00  0.00     0.219 C 
ENDROOT
BRANCH   1   2
HETATM    2  N   UNL     1       6.282  26.720  52.242  1.00  0.00    -0.332 N 
HETATM    3  C   UNL     1       7.044  25.648  52.584  1.00  0.00     0.321 C 
HETATM    4  N   UNL     1       6.527  24.807  53.528  1.00  0.00    -0.309 N 
HETATM    5  O   UNL     1       8.119  25.525  52.007  1.00  0.00    -0.247 OA
HETATM    6  H   UNL     1       5.711  25.126  54.019  1.00  0.00     0.170 HD
HETATM    7  H   UNL     1       6.749  27.302  51.559  1.00  0.00     0.165 HD
BRANCH   4   8
HETATM    8  C   UNL     1       7.078  23.599  54.007  1.00  0.00     0.036 A 
HETATM    9  C   UNL     1       7.473  22.537  53.192  1.00  0.00     0.037 A 
HETATM   10  C   UNL     1       8.023  21.359  53.736  1.00  0.00    -0.054 A 
HETATM   11  C   UNL     1       8.189  21.251  55.129  1.00  0.00    -0.056 A 
HETATM   12  C   UNL     1       8.468  20.266  52.801  1.00  0.00     0.049 C 
HETATM   13  C   UNL     1       8.780  20.021  55.760  1.00  0.00     0.049 C 
HETATM   14  C   UNL     1       7.774  22.311  55.946  1.00  0.00     0.009 A 
HETATM   15  C   UNL     1       7.229  23.471  55.391  1.00  0.00     0.030 A 
ENDBRANCH   4   8
ENDBRANCH   1   2
BRANCH   1  16
HETATM   16  C   UNL     1       5.017  27.917  53.909  1.00  0.00    -0.085 C 
BRANCH  16  17
HETATM   17  C   UNL     1       5.077  28.605  55.015  1.00  0.00    -0.078 C 
BRANCH  17  18
HETATM   18  C   UNL     1       5.147  29.408  56.303  1.00  0.00     0.269 C 
BRANCH  18  19
HETATM   19  O   UNL     1       6.503  29.726  56.599  1.00  0.00    -0.339 OA
BRANCH  19  20
HETATM   20  C   UNL     1       6.713  30.464  57.734  1.00  0.00     0.072 A 
HETATM   21  C   UNL     1       7.755  30.012  58.549  1.00  0.00     0.069 A 
HETATM   22  C   UNL     1       8.098  30.654  59.732  1.00  0.00     0.069 A 
HETATM   23  C   UNL     1       7.374  31.807  60.100  1.00  0.00    -0.007 A 
HETATM   24  N   UNL     1       9.096  30.165  60.492  1.00  0.00    -0.260 NA
HETATM   25  C   UNL     1       6.339  32.279  59.280  1.00  0.00     0.016 A 
HETATM   26  C   UNL     1       7.722  32.457  61.290  1.00  0.00     0.015 A 
HETATM   27  C   UNL     1       6.008  31.607  58.102  1.00  0.00     0.038 A 
HETATM   28  C   UNL     1       8.753  31.953  62.074  1.00  0.00     0.020 A 
HETATM   29  C   UNL     1       9.401  30.815  61.637  1.00  0.00     0.117 A 
ENDBRANCH  19  20
ENDBRANCH  18  19
ENDBRANCH  17  18
ENDBRANCH  16  17
ENDBRANCH   1  16
TORSDOF 7
ENDMDL
MODEL 9
REMARK VINA RESULT:      -8.7      2.379      2.782
REMARK  7 active torsions:
REMARK  status: ('A' for Active; 'I' for Inactive)
REMARK    1  A    between atoms: C_6  and  N_7 
REMARK       I    between atoms: N_7  and  C_8 
REMARK       I    between atoms: C_8  and  N_9 
REMARK    2  A    between atoms: N_9  and  C_10 
REMARK    3  A    between atoms: C_10  and  C_11 
REMARK    4  A    between atoms: C_11  and  C_12 
REMARK    5  A    between atoms: C_12  and  C_13 
REMARK    6  A    between atoms: C_13  and  O_14 
REMARK    7  A    between atoms: O_14  and  C_15 
ROOT
HETATM    1  C   UNL     1       4.252  29.654  55.142  1.00  0.00     0.219 C 
ENDROOT
BRANCH   1   2
HETATM    2  N   UNL     1       5.293  29.472  54.160  1.00  0.00    -0.332 N 
HETATM    3  C   UNL     1       6.021  28.383  53.798  1.00  0.00     0.321 C 
HETATM    4  N   UNL     1       5.832  27.249  54.535  1.00  0.00    -0.309 N 
HETATM    5  O   UNL     1       6.773  28.512  52.837  1.00  0.00    -0.247 OA
HETATM    6  H   UNL     1       5.304  27.344  55.384  1.00  0.00     0.170 HD
HETATM    7  H   UNL     1       5.513  30.272  53.580  1.00  0.00     0.165 HD
BRANCH   4   8
HETATM    8  C   UNL     1       6.407  25.976  54.329  1.00  0.00     0.036 A 
HETATM    9  C   UNL     1       7.379  25.409  55.156  1.00  0.00     0.037 A 
HETATM   10  C   UNL     1       7.907  24.129  54.895  1.00  0.00    -0.054 A 
HETATM   11  C   UNL     1       7.441  23.399  53.786  1.00  0.00    -0.056 A 
HETATM   12  C   UNL     1       8.922  23.554  55.848  1.00  0.00     0.049 C 
HETATM   13  C   UNL     1       7.964  22.025  53.469  1.00  0.00     0.049 C 
HETATM   14  C   UNL     1       6.480  23.979  52.948  1.00  0.00     0.009 A 
HETATM   15  C   UNL     1       5.968  25.250  53.219  1.00  0.00     0.030 A 
ENDBRANCH   4   8
ENDBRANCH   1   2
BRANCH   1  16
HETATM   16  C   UNL     1       4.753  30.602  56.219  1.00  0.00    -0.085 C 
BRANCH  16  17
HETATM   17  C   UNL     1       5.183  31.415  57.144  1.00  0.00    -0.078 C 
BRANCH  17  18
HETATM   18  C   UNL     1       5.685  32.361  58.222  1.00  0.00     0.269 C 
BRANCH  18  19
HETATM   19  O   UNL     1       7.023  32.024  58.573  1.00  0.00    -0.339 OA
BRANCH  19  20
HETATM   20  C   UNL     1       7.360  32.202  59.889  1.00  0.00     0.072 A 
HETATM   21  C   UNL     1       6.330  32.680  60.705  1.00  0.00     0.069 A 
HETATM   22  C   UNL     1       6.510  32.907  62.064  1.00  0.00     0.069 A 
HETATM   23  C   UNL     1       7.772  32.624  62.626  1.00  0.00    -0.007 A 
HETATM   24  N   UNL     1       5.491  33.388  62.800  1.00  0.00    -0.260 NA
HETATM   25  C   UNL     1       8.807  32.128  61.820  1.00  0.00     0.016 A 
HETATM   26  C   UNL     1       7.952  32.850  63.996  1.00  0.00     0.015 A 
HETATM   27  C   UNL     1       8.602  31.920  60.455  1.00  0.00     0.038 A 
HETATM   28  C   UNL     1       6.901  33.346  64.757  1.00  0.00     0.020 A 
HETATM   29  C   UNL     1       5.703  33.598  64.118  1.00  0.00     0.117 A 
ENDBRANCH  19  20
ENDBRANCH  18  19
ENDBRANCH  17  18
ENDBRANCH  16  17
ENDBRANCH   1  16
TORSDOF 7
ENDMDL
MODEL 10
REMARK VINA RESULT:      -8.5      6.753     10.710
REMARK  7 active torsions:
REMARK  status: ('A' for Active; 'I' for Inactive)
REMARK    1  A    between atoms: C_6  and  N_7 
REMARK       I    between atoms: N_7  and  C_8 
REMARK       I    between atoms: C_8  and  N_9 
REMARK    2  A    between atoms: N_9  and  C_10 
REMARK    3  A    between atoms: C_10  and  C_11 
REMARK    4  A    between atoms: C_11  and  C_12 
REMARK    5  A    between atoms: C_12  and  C_13 
REMARK    6  A    between atoms: C_13  and  O_14 
REMARK    7  A    between atoms: O_14  and  C_15 
ROOT
HETATM    1  C   UNL     1       4.498  28.000  55.623  1.00  0.00     0.219 C 
ENDROOT
BRANCH   1   2
HETATM    2  N   UNL     1       5.931  27.838  55.662  1.00  0.00    -0.332 N 
HETATM    3  C   UNL     1       6.737  26.784  55.365  1.00  0.00     0.321 C 
HETATM    4  N   UNL     1       6.114  25.609  55.055  1.00  0.00    -0.309 N 
HETATM    5  O   UNL     1       7.947  26.985  55.391  1.00  0.00    -0.247 OA
HETATM    6  H   UNL     1       5.127  25.559  55.230  1.00  0.00     0.170 HD
HETATM    7  H   UNL     1       6.472  28.658  55.904  1.00  0.00     0.165 HD
BRANCH   4   8
HETATM    8  C   UNL     1       6.710  24.395  54.648  1.00  0.00     0.036 A 
HETATM    9  C   UNL     1       7.053  23.356  55.516  1.00  0.00     0.037 A 
HETATM   10  C   UNL     1       7.639  22.167  55.041  1.00  0.00    -0.054 A 
HETATM   11  C   UNL     1       7.878  22.013  53.663  1.00  0.00    -0.056 A 
HETATM   12  C   UNL     1       7.947  21.067  56.023  1.00  0.00     0.049 C 
HETATM   13  C   UNL     1       8.492  20.760  53.104  1.00  0.00     0.049 C 
HETATM   14  C   UNL     1       7.550  23.064  52.797  1.00  0.00     0.009 A 
HETATM   15  C   UNL     1       6.971  24.238  53.284  1.00  0.00     0.030 A 
ENDBRANCH   4   8
ENDBRANCH   1   2
BRANCH   1  16
HETATM   16  C   UNL     1       4.150  29.042  54.573  1.00  0.00    -0.085 C 
BRANCH  16  17
HETATM   17  C   UNL     1       3.850  29.937  53.673  1.00  0.00    -0.078 C 
BRANCH  17  18
HETATM   18  C   UNL     1       3.500  30.980  52.624  1.00  0.00     0.269 C 
BRANCH  18  19
HETATM   19  O   UNL     1       4.146  30.662  51.395  1.00  0.00    -0.339 OA
BRANCH  19  20
HETATM   20  C   UNL     1       3.467  29.811  50.564  1.00  0.00     0.072 A 
HETATM   21  C   UNL     1       4.246  28.807  49.980  1.00  0.00     0.069 A 
HETATM   22  C   UNL     1       3.705  27.861  49.118  1.00  0.00     0.069 A 
HETATM   23  C   UNL     1       2.322  27.917  48.848  1.00  0.00    -0.007 A 
HETATM   24  N   UNL     1       4.504  26.929  48.565  1.00  0.00    -0.260 NA
HETATM   25  C   UNL     1       1.529  28.909  49.443  1.00  0.00     0.016 A 
HETATM   26  C   UNL     1       1.777  26.962  47.982  1.00  0.00     0.015 A 
HETATM   27  C   UNL     1       2.100  29.854  50.296  1.00  0.00     0.038 A 
HETATM   28  C   UNL     1       2.600  25.999  47.412  1.00  0.00     0.020 A 
HETATM   29  C   UNL     1       3.943  26.026  47.731  1.00  0.00     0.117 A 
ENDBRANCH  19  20
ENDBRANCH  18  19
ENDBRANCH  17  18
ENDBRANCH  16  17
ENDBRANCH   1  16
TORSDOF 7
ENDMDL
