MODEL 1
REMARK VINA RESULT:      -9.0      0.000      0.000
REMARK  8 active torsions:
REMARK  status: ('A' for Active; 'I' for Inactive)
REMARK    1  A    between atoms: C_3  and  C_4 
REMARK    2  A    between atoms: C_4  and  C_5 
REMARK       I    between atoms: C_5  and  N_6 
REMARK    3  A    between atoms: N_6  and  C_7 
REMARK    4  A    between atoms: C_14  and  N_15 
REMARK       I    between atoms: N_15  and  C_16 
REMARK    5  A    between atoms: C_16  and  C_17 
REMARK    6  A    between atoms: C_26  and  C_27 
REMARK    7  A    between atoms: C_27  and  O_28 
REMARK    8  A    between atoms: C_30  and  O_31 
ROOT
HETATM    1  C   UNL     1       4.625  26.501  50.151  1.00  0.00     0.216 C 
HETATM    2  C   UNL     1       4.857  27.321  48.891  1.00  0.00    -0.098 C 
HETATM    3  C   UNL     1       5.057  28.024  47.812  1.00  0.00     0.014 C 
ENDROOT
BRANCH   1   4
HETATM    4  N   UNL     1       5.852  26.002  50.724  1.00  0.00    -0.351 N 
HETATM    5  C   UNL     1       6.314  26.527  51.917  1.00  0.00     0.219 C 
HETATM    6  O   UNL     1       5.618  27.247  52.626  1.00  0.00    -0.274 OA
HETATM    7  H   UNL     1       6.473  25.463  50.136  1.00  0.00     0.163 HD
BRANCH   5   8
HETATM    8  C   UNL     1       7.718  26.094  52.297  1.00  0.00     0.114 C 
BRANCH   8   9
HETATM    9  C   UNL     1       7.836  25.356  53.665  1.00  0.00     0.056 C 
HETATM   10  C   UNL     1       7.077  23.941  53.776  1.00  0.00    -0.030 C 
HETATM   11  C   UNL     1       5.683  24.047  53.085  1.00  0.00     0.016 C 
HETATM   12  C   UNL     1       6.842  23.516  55.298  1.00  0.00     0.012 C 
HETATM   13  C   UNL     1       7.830  22.791  53.034  1.00  0.00     0.013 C 
HETATM   14  C   UNL     1       5.972  24.560  56.042  1.00  0.00     0.055 C 
HETATM   15  C   UNL     1       8.139  23.017  56.093  1.00  0.00     0.008 C 
HETATM   16  C   UNL     1       6.509  25.920  55.796  1.00  0.00     0.012 C 
HETATM   17  C   UNL     1       7.363  26.290  54.775  1.00  0.00     0.056 C 
HETATM   18  S   UNL     1       6.219  27.229  56.842  1.00  0.00    -0.055 SA
HETATM   19  N   UNL     1       7.920  27.551  54.935  1.00  0.00    -0.227 NA
HETATM   20  C   UNL     1       7.454  28.090  56.034  1.00  0.00     0.174 C 
HETATM   21  C   UNL     1       7.649  21.972  57.140  1.00  0.00     0.020 C 
HETATM   22  C   UNL     1       9.122  22.281  55.132  1.00  0.00     0.128 C 
HETATM   23  C   UNL     1       8.401  21.692  53.929  1.00  0.00     0.033 C 
BRANCH  20  24
HETATM   24  N   UNL     1       7.861  29.184  56.735  1.00  0.00    -0.300 N 
HETATM   25  C   UNL     1       9.129  29.303  57.252  1.00  0.00     0.281 C 
HETATM   26  O   UNL     1      10.129  28.705  56.875  1.00  0.00    -0.265 OA
HETATM   27  H   UNL     1       7.131  29.741  57.155  1.00  0.00     0.171 HD
BRANCH  25  28
HETATM   28  C   UNL     1       9.152  30.221  58.382  1.00  0.00     0.142 A 
HETATM   29  O   UNL     1       8.495  29.873  59.539  1.00  0.00    -0.317 OA
HETATM   30  C   UNL     1       8.726  30.858  60.444  1.00  0.00     0.143 A 
HETATM   31  C   UNL     1       9.521  31.837  59.897  1.00  0.00     0.027 A 
HETATM   32  C   UNL     1       9.791  31.432  58.568  1.00  0.00     0.045 A 
ENDBRANCH  25  28
ENDBRANCH  20  24
BRANCH  15  33
HETATM   33  C   UNL     1       8.938  24.099  56.871  1.00  0.00     0.176 C 
BRANCH  33  34
HETATM   34  O   UNL     1       8.677  24.074  58.271  1.00  0.00    -0.400 OA
HETATM   35  H   UNL     1       9.175  24.819  58.649  1.00  0.00     0.209 HD
ENDBRANCH  33  34
ENDBRANCH  15  33
BRANCH  22  36
HETATM   36  O   UNL     1      10.145  23.167  54.681  1.00  0.00    -0.395 OA
HETATM   37  H   UNL     1      10.941  23.040  55.227  1.00  0.00     0.210 HD
ENDBRANCH  22  36
ENDBRANCH   8   9
ENDBRANCH   5   8
ENDBRANCH   1   4
TORSDOF 8
ENDMDL
MODEL 2
REMARK VINA RESULT:      -8.6      3.962      7.345
REMARK  8 active torsions:
REMARK  status: ('A' for Active; 'I' for Inactive)
REMARK    1  A    between atoms: C_3  and  C_4 
REMARK    2  A    between atoms: C_4  and  C_5 
REMARK       I    between atoms: C_5  and  N_6 
REMARK    3  A    between atoms: N_6  and  C_7 
REMARK    4  A    between atoms: C_14  and  N_15 
REMARK       I    between atoms: N_15  and  C_16 
REMARK    5  A    between atoms: C_16  and  C_17 
REMARK    6  A    between atoms: C_26  and  C_27 
REMARK    7  A    between atoms: C_27  and  O_28 
REMARK    8  A    between atoms: C_30  and  O_31 
ROOT
HETATM    1  C   UNL     1       1.213  26.682  47.937  1.00  0.00     0.216 C 
HETATM    2  C   UNL     1       0.636  27.708  46.975  1.00  0.00    -0.098 C 
HETATM    3  C   UNL     1       0.142  28.589  46.151  1.00  0.00     0.014 C 
ENDROOT
BRANCH   1   4
HETATM    4  N   UNL     1       2.476  27.094  48.500  1.00  0.00    -0.351 N 
HETATM    5  C   UNL     1       3.656  26.624  47.953  1.00  0.00     0.219 C 
HETATM    6  O   UNL     1       3.690  26.044  46.873  1.00  0.00    -0.274 OA
HETATM    7  H   UNL     1       2.478  27.513  49.420  1.00  0.00     0.163 HD
BRANCH   5   8
HETATM    8  C   UNL     1       4.899  26.937  48.767  1.00  0.00     0.114 C 
BRANCH   8   9
HETATM    9  C   UNL     1       4.629  27.527  50.184  1.00  0.00     0.056 C 
HETATM   10  C   UNL     1       4.686  29.131  50.309  1.00  0.00    -0.030 C 
HETATM   11  C   UNL     1       5.889  29.670  49.475  1.00  0.00     0.016 C 
HETATM   12  C   UNL     1       4.887  29.598  51.823  1.00  0.00     0.012 C 
HETATM   13  C   UNL     1       3.418  29.830  49.721  1.00  0.00     0.013 C 
HETATM   14  C   UNL     1       6.212  29.047  52.408  1.00  0.00     0.055 C 
HETATM   15  C   UNL     1       3.609  29.452  52.776  1.00  0.00     0.008 C 
HETATM   16  C   UNL     1       6.311  27.594  52.131  1.00  0.00     0.012 C 
HETATM   17  C   UNL     1       5.596  26.892  51.179  1.00  0.00     0.056 C 
HETATM   18  S   UNL     1       7.275  26.542  53.056  1.00  0.00    -0.055 SA
HETATM   19  N   UNL     1       5.681  25.513  51.315  1.00  0.00    -0.227 NA
HETATM   20  C   UNL     1       6.465  25.228  52.324  1.00  0.00     0.174 C 
HETATM   21  C   UNL     1       3.703  30.594  53.832  1.00  0.00     0.020 C 
HETATM   22  C   UNL     1       2.294  29.680  51.968  1.00  0.00     0.128 C 
HETATM   23  C   UNL     1       2.529  30.544  50.738  1.00  0.00     0.033 C 
BRANCH  20  24
HETATM   24  N   UNL     1       6.673  24.060  52.991  1.00  0.00    -0.300 N 
HETATM   25  C   UNL     1       6.562  23.956  54.357  1.00  0.00     0.281 C 
HETATM   26  O   UNL     1       5.933  24.704  55.096  1.00  0.00    -0.265 OA
HETATM   27  H   UNL     1       7.234  23.368  52.514  1.00  0.00     0.171 HD
BRANCH  25  28
HETATM   28  C   UNL     1       7.349  22.842  54.866  1.00  0.00     0.142 A 
HETATM   29  O   UNL     1       7.765  22.861  56.177  1.00  0.00    -0.317 OA
HETATM   30  C   UNL     1       8.413  21.692  56.410  1.00  0.00     0.143 A 
HETATM   31  C   UNL     1       8.425  20.914  55.276  1.00  0.00     0.027 A 
HETATM   32  C   UNL     1       7.746  21.656  54.279  1.00  0.00     0.045 A 
ENDBRANCH  25  28
ENDBRANCH  20  24
BRANCH  15  33
HETATM   33  C   UNL     1       3.473  28.118  53.559  1.00  0.00     0.176 C 
BRANCH  33  34
HETATM   34  O   UNL     1       3.889  28.233  54.917  1.00  0.00    -0.400 OA
HETATM   35  H   UNL     1       4.745  28.695  54.896  1.00  0.00     0.209 HD
ENDBRANCH  33  34
ENDBRANCH  15  33
BRANCH  22  36
HETATM   36  O   UNL     1       1.726  28.434  51.566  1.00  0.00    -0.395 OA
HETATM   37  H   UNL     1       1.896  28.297  50.618  1.00  0.00     0.210 HD
ENDBRANCH  22  36
ENDBRANCH   8   9
ENDBRANCH   5   8
ENDBRANCH   1   4
TORSDOF 8
ENDMDL
MODEL 3
REMARK VINA RESULT:      -8.4      4.108      9.129
REMARK  8 active torsions:
REMARK  status: ('A' for Active; 'I' for Inactive)
REMARK    1  A    between atoms: C_3  and  C_4 
REMARK    2  A    between atoms: C_4  and  C_5 
REMARK       I    between atoms: C_5  and  N_6 
REMARK    3  A    between atoms: N_6  and  C_7 
REMARK    4  A    between atoms: C_14  and  N_15 
REMARK       I    between atoms: N_15  and  C_16 
REMARK    5  A    between atoms: C_16  and  C_17 
REMARK    6  A    between atoms: C_26  and  C_27 
REMARK    7  A    between atoms: C_27  and  O_28 
REMARK    8  A    between atoms: C_30  and  O_31 
ROOT
HETATM    1  C   UNL     1       9.902  30.521  58.924  1.00  0.00     0.216 C 
HETATM    2  C   UNL     1      10.535  29.951  57.665  1.00  0.00    -0.098 C 
HETATM    3  C   UNL     1      11.076  29.461  56.585  1.00  0.00     0.014 C 
ENDROOT
BRANCH   1   4
HETATM    4  N   UNL     1       8.461  30.538  58.865  1.00  0.00    -0.351 N 
HETATM    5  C   UNL     1       7.774  31.688  59.212  1.00  0.00     0.219 C 
HETATM    6  O   UNL     1       8.339  32.766  59.360  1.00  0.00    -0.274 OA
HETATM    7  H   UNL     1       7.972  29.655  58.812  1.00  0.00     0.163 HD
BRANCH   5   8
HETATM    8  C   UNL     1       6.271  31.513  59.335  1.00  0.00     0.114 C 
BRANCH   8   9
HETATM    9  C   UNL     1       5.474  31.685  58.007  1.00  0.00     0.056 C 
HETATM   10  C   UNL     1       4.037  32.400  58.127  1.00  0.00    -0.030 C 
HETATM   11  C   UNL     1       3.300  31.867  59.394  1.00  0.00     0.016 C 
HETATM   12  C   UNL     1       3.118  32.095  56.857  1.00  0.00     0.012 C 
HETATM   13  C   UNL     1       4.145  33.947  58.322  1.00  0.00     0.013 C 
HETATM   14  C   UNL     1       2.861  30.575  56.705  1.00  0.00     0.055 C 
HETATM   15  C   UNL     1       3.516  32.857  55.506  1.00  0.00     0.008 C 
HETATM   16  C   UNL     1       4.145  29.841  56.801  1.00  0.00     0.012 C 
HETATM   17  C   UNL     1       5.324  30.322  57.338  1.00  0.00     0.056 C 
HETATM   18  S   UNL     1       4.374  28.291  56.139  1.00  0.00    -0.055 SA
HETATM   19  N   UNL     1       6.433  29.536  57.057  1.00  0.00    -0.227 NA
HETATM   20  C   UNL     1       6.056  28.495  56.358  1.00  0.00     0.174 C 
HETATM   21  C   UNL     1       2.194  33.086  54.714  1.00  0.00     0.020 C 
HETATM   22  C   UNL     1       4.111  34.264  55.825  1.00  0.00     0.128 C 
HETATM   23  C   UNL     1       3.620  34.794  57.164  1.00  0.00     0.033 C 
BRANCH  20  24
HETATM   24  N   UNL     1       6.780  27.581  55.655  1.00  0.00    -0.300 N 
HETATM   25  C   UNL     1       6.736  27.496  54.284  1.00  0.00     0.281 C 
HETATM   26  O   UNL     1       6.398  28.383  53.509  1.00  0.00    -0.265 OA
HETATM   27  H   UNL     1       7.078  26.762  56.165  1.00  0.00     0.171 HD
BRANCH  25  28
HETATM   28  C   UNL     1       7.104  26.164  53.827  1.00  0.00     0.142 A 
HETATM   29  O   UNL     1       6.583  25.068  54.473  1.00  0.00    -0.317 OA
HETATM   30  C   UNL     1       7.026  23.966  53.817  1.00  0.00     0.143 A 
HETATM   31  C   UNL     1       7.825  24.326  52.757  1.00  0.00     0.027 A 
HETATM   32  C   UNL     1       7.882  25.740  52.766  1.00  0.00     0.045 A 
ENDBRANCH  25  28
ENDBRANCH  20  24
BRANCH  15  33
HETATM   33  C   UNL     1       4.496  32.120  54.553  1.00  0.00     0.176 C 
BRANCH  33  34
HETATM   34  O   UNL     1       4.897  32.924  53.448  1.00  0.00    -0.400 OA
HETATM   35  H   UNL     1       5.200  32.304  52.762  1.00  0.00     0.209 HD
ENDBRANCH  33  34
ENDBRANCH  15  33
BRANCH  22  36
HETATM   36  O   UNL     1       5.536  34.219  55.831  1.00  0.00    -0.395 OA
HETATM   37  H   UNL     1       5.880  35.053  56.199  1.00  0.00     0.210 HD
ENDBRANCH  22  36
ENDBRANCH   8   9
ENDBRANCH   5   8
ENDBRANCH   1   4
TORSDOF 8
ENDMDL
MODEL 4
REMARK VINA RESULT:      -8.2      2.329      7.510
REMARK  8 active torsions:
REMARK  status: ('A' for Active; 'I' for Inactive)
REMARK    1  A    between atoms: C_3  and  C_4 
REMARK    2  A    between atoms: C_4  and  C_5 
REMARK       I    between atoms: C_5  and  N_6 
REMARK    3  A    between atoms: N_6  and  C_7 
REMARK    4  A    between atoms: C_14  and  N_15 
REMARK       I    between atoms: N_15  and  C_16 
REMARK    5  A    between atoms: C_16  and  C_17 
REMARK    6  A    between atoms: C_26  and  C_27 
REMARK    7  A    between atoms: C_27  and  O_28 
REMARK    8  A    between atoms: C_30  and  O_31 
ROOT
HETATM    1  C   UNL     1       7.487  22.901  52.879  1.00  0.00     0.216 C 
HETATM    2  C   UNL     1       8.100  21.514  52.991  1.00  0.00    -0.098 C 
HETATM    3  C   UNL     1       8.626  20.325  53.088  1.00  0.00     0.014 C 
ENDROOT
BRANCH   1   4
HETATM    4  N   UNL     1       8.193  23.886  53.661  1.00  0.00    -0.351 N 
HETATM    5  C   UNL     1       7.717  24.238  54.912  1.00  0.00     0.219 C 
HETATM    6  O   UNL     1       6.843  23.593  55.483  1.00  0.00    -0.274 OA
HETATM    7  H   UNL     1       8.869  24.476  53.195  1.00  0.00     0.163 HD
BRANCH   5   8
HETATM    8  C   UNL     1       8.402  25.441  55.534  1.00  0.00     0.114 C 
BRANCH   8   9
HETATM    9  C   UNL     1       7.531  26.731  55.610  1.00  0.00     0.056 C 
HETATM   10  C   UNL     1       6.898  27.078  57.049  1.00  0.00    -0.030 C 
HETATM   11  C   UNL     1       6.377  25.766  57.712  1.00  0.00     0.016 C 
HETATM   12  C   UNL     1       5.669  28.090  56.924  1.00  0.00     0.012 C 
HETATM   13  C   UNL     1       7.947  27.667  58.046  1.00  0.00     0.013 C 
HETATM   14  C   UNL     1       4.533  27.488  56.059  1.00  0.00     0.055 C 
HETATM   15  C   UNL     1       6.045  29.611  56.592  1.00  0.00     0.008 C 
HETATM   16  C   UNL     1       5.100  26.955  54.797  1.00  0.00     0.012 C 
HETATM   17  C   UNL     1       6.426  26.647  54.561  1.00  0.00     0.056 C 
HETATM   18  S   UNL     1       4.174  26.746  53.386  1.00  0.00    -0.055 SA
HETATM   19  N   UNL     1       6.724  26.427  53.223  1.00  0.00    -0.227 NA
HETATM   20  C   UNL     1       5.629  26.544  52.514  1.00  0.00     0.174 C 
HETATM   21  C   UNL     1       4.959  30.499  57.267  1.00  0.00     0.020 C 
HETATM   22  C   UNL     1       7.415  29.989  57.234  1.00  0.00     0.128 C 
HETATM   23  C   UNL     1       7.728  29.125  58.447  1.00  0.00     0.033 C 
BRANCH  20  24
HETATM   24  N   UNL     1       5.442  26.652  51.170  1.00  0.00    -0.300 N 
HETATM   25  C   UNL     1       5.248  27.859  50.543  1.00  0.00     0.281 C 
HETATM   26  O   UNL     1       5.576  28.961  50.966  1.00  0.00    -0.265 OA
HETATM   27  H   UNL     1       5.113  25.822  50.698  1.00  0.00     0.171 HD
BRANCH  25  28
HETATM   28  C   UNL     1       4.534  27.691  49.286  1.00  0.00     0.142 A 
HETATM   29  O   UNL     1       3.775  28.732  48.804  1.00  0.00    -0.317 OA
HETATM   30  C   UNL     1       3.277  28.343  47.603  1.00  0.00     0.143 A 
HETATM   31  C   UNL     1       3.698  27.071  47.296  1.00  0.00     0.027 A 
HETATM   32  C   UNL     1       4.502  26.647  48.381  1.00  0.00     0.045 A 
ENDBRANCH  25  28
ENDBRANCH  20  24
BRANCH  15  33
HETATM   33  C   UNL     1       6.087  30.006  55.090  1.00  0.00     0.176 C 
BRANCH  33  34
HETATM   34  O   UNL     1       5.164  31.041  54.769  1.00  0.00    -0.400 OA
HETATM   35  H   UNL     1       4.419  30.606  54.318  1.00  0.00     0.209 HD
ENDBRANCH  33  34
ENDBRANCH  15  33
BRANCH  22  36
HETATM   36  O   UNL     1       8.470  29.866  56.283  1.00  0.00    -0.395 OA
HETATM   37  H   UNL     1       8.528  28.940  55.989  1.00  0.00     0.210 HD
ENDBRANCH  22  36
ENDBRANCH   8   9
ENDBRANCH   5   8
ENDBRANCH   1   4
TORSDOF 8
ENDMDL
MODEL 5
REMARK VINA RESULT:      -8.0      5.002      8.865
REMARK  8 active torsions:
REMARK  status: ('A' for Active; 'I' for Inactive)
REMARK    1  A    between atoms: C_3  and  C_4 
REMARK    2  A    between atoms: C_4  and  C_5 
REMARK       I    between atoms: C_5  and  N_6 
REMARK    3  A    between atoms: N_6  and  C_7 
REMARK    4  A    between atoms: C_14  and  N_15 
REMARK       I    between atoms: N_15  and  C_16 
REMARK    5  A    between atoms: C_16  and  C_17 
REMARK    6  A    between atoms: C_26  and  C_27 
REMARK    7  A    between atoms: C_27  and  O_28 
REMARK    8  A    between atoms: C_30  and  O_31 
ROOT
HETATM    1  C   UNL     1       5.353  24.806  52.998  1.00  0.00     0.216 C 
HETATM    2  C   UNL     1       6.481  24.141  53.771  1.00  0.00    -0.098 C 
HETATM    3  C   UNL     1       7.448  23.572  54.434  1.00  0.00     0.014 C 
ENDROOT
BRANCH   1   4
HETATM    4  N   UNL     1       5.826  25.557  51.860  1.00  0.00    -0.351 N 
HETATM    5  C   UNL     1       5.324  26.823  51.618  1.00  0.00     0.219 C 
HETATM    6  O   UNL     1       4.653  27.429  52.447  1.00  0.00    -0.274 OA
HETATM    7  H   UNL     1       6.322  25.063  51.130  1.00  0.00     0.163 HD
BRANCH   5   8
HETATM    8  C   UNL     1       5.718  27.414  50.276  1.00  0.00     0.114 C 
BRANCH   8   9
HETATM    9  C   UNL     1       4.620  28.279  49.586  1.00  0.00     0.056 C 
HETATM   10  C   UNL     1       4.140  27.790  48.129  1.00  0.00    -0.030 C 
HETATM   11  C   UNL     1       5.382  27.335  47.303  1.00  0.00     0.016 C 
HETATM   12  C   UNL     1       3.414  28.963  47.324  1.00  0.00     0.012 C 
HETATM   13  C   UNL     1       3.194  26.548  48.189  1.00  0.00     0.013 C 
HETATM   14  C   UNL     1       4.365  30.167  47.111  1.00  0.00     0.055 C 
HETATM   15  C   UNL     1       1.937  29.338  47.814  1.00  0.00     0.008 C 
HETATM   16  C   UNL     1       5.004  30.529  48.398  1.00  0.00     0.012 C 
HETATM   17  C   UNL     1       5.098  29.726  49.519  1.00  0.00     0.056 C 
HETATM   18  S   UNL     1       5.635  32.076  48.712  1.00  0.00    -0.055 SA
HETATM   19  N   UNL     1       5.500  30.402  50.664  1.00  0.00    -0.227 NA
HETATM   20  C   UNL     1       5.720  31.658  50.366  1.00  0.00     0.174 C 
HETATM   21  C   UNL     1       1.157  29.826  46.556  1.00  0.00     0.020 C 
HETATM   22  C   UNL     1       1.199  28.073  48.352  1.00  0.00     0.128 C 
HETATM   23  C   UNL     1       1.754  26.794  47.742  1.00  0.00     0.033 C 
BRANCH  20  24
HETATM   24  N   UNL     1       5.895  32.747  51.164  1.00  0.00    -0.300 N 
HETATM   25  C   UNL     1       4.895  33.657  51.407  1.00  0.00     0.281 C 
HETATM   26  O   UNL     1       3.690  33.462  51.298  1.00  0.00    -0.265 OA
HETATM   27  H   UNL     1       6.849  33.055  51.293  1.00  0.00     0.171 HD
BRANCH  25  28
HETATM   28  C   UNL     1       5.442  34.954  51.779  1.00  0.00     0.142 A 
HETATM   29  O   UNL     1       6.654  35.008  52.425  1.00  0.00    -0.317 OA
HETATM   30  C   UNL     1       6.961  36.319  52.595  1.00  0.00     0.143 A 
HETATM   31  C   UNL     1       5.971  37.116  52.071  1.00  0.00     0.027 A 
HETATM   32  C   UNL     1       4.989  36.240  51.551  1.00  0.00     0.045 A 
ENDBRANCH  25  28
ENDBRANCH  20  24
BRANCH  15  33
HETATM   33  C   UNL     1       1.822  30.459  48.883  1.00  0.00     0.176 C 
BRANCH  33  34
HETATM   34  O   UNL     1       0.473  30.840  49.137  1.00  0.00    -0.400 OA
HETATM   35  H   UNL     1       0.475  31.811  49.189  1.00  0.00     0.209 HD
ENDBRANCH  33  34
ENDBRANCH  15  33
BRANCH  22  36
HETATM   36  O   UNL     1       1.296  27.998  49.773  1.00  0.00    -0.395 OA
HETATM   37  H   UNL     1       0.945  28.820  50.160  1.00  0.00     0.210 HD
ENDBRANCH  22  36
ENDBRANCH   8   9
ENDBRANCH   5   8
ENDBRANCH   1   4
TORSDOF 8
ENDMDL
MODEL 6
REMARK VINA RESULT:      -8.0      4.136      8.371
REMARK  8 active torsions:
REMARK  status: ('A' for Active; 'I' for Inactive)
REMARK    1  A    between atoms: C_3  and  C_4 
REMARK    2  A    between atoms: C_4  and  C_5 
REMARK       I    between atoms: C_5  and  N_6 
REMARK    3  A    between atoms: N_6  and  C_7 
REMARK    4  A    between atoms: C_14  and  N_15 
REMARK       I    between atoms: N_15  and  C_16 
REMARK    5  A    between atoms: C_16  and  C_17 
REMARK    6  A    between atoms: C_26  and  C_27 
REMARK    7  A    between atoms: C_27  and  O_28 
REMARK    8  A    between atoms: C_30  and  O_31 
ROOT
HETATM    1  C   UNL     1       5.676  34.827  48.287  1.00  0.00     0.216 C 
HETATM    2  C   UNL     1       4.721  34.569  47.133  1.00  0.00    -0.098 C 
HETATM    3  C   UNL     1       3.901  34.347  46.145  1.00  0.00     0.014 C 
ENDROOT
BRANCH   1   4
HETATM    4  N   UNL     1       5.401  33.998  49.435  1.00  0.00    -0.351 N 
HETATM    5  C   UNL     1       5.946  32.728  49.510  1.00  0.00     0.219 C 
HETATM    6  O   UNL     1       6.831  32.352  48.749  1.00  0.00    -0.274 OA
HETATM    7  H   UNL     1       4.630  34.253  50.038  1.00  0.00     0.163 HD
BRANCH   5   8
HETATM    8  C   UNL     1       5.401  31.872  50.639  1.00  0.00     0.114 C 
BRANCH   8   9
HETATM    9  C   UNL     1       4.642  30.588  50.187  1.00  0.00     0.056 C 
HETATM   10  C   UNL     1       3.102  30.785  49.760  1.00  0.00    -0.030 C 
HETATM   11  C   UNL     1       2.413  31.767  50.757  1.00  0.00     0.016 C 
HETATM   12  C   UNL     1       2.300  29.404  49.793  1.00  0.00     0.012 C 
HETATM   13  C   UNL     1       2.944  31.436  48.349  1.00  0.00     0.013 C 
HETATM   14  C   UNL     1       2.304  28.788  51.215  1.00  0.00     0.055 C 
HETATM   15  C   UNL     1       2.621  28.380  48.605  1.00  0.00     0.008 C 
HETATM   16  C   UNL     1       3.688  28.778  51.747  1.00  0.00     0.012 C 
HETATM   17  C   UNL     1       4.747  29.536  51.287  1.00  0.00     0.056 C 
HETATM   18  S   UNL     1       4.197  27.712  52.971  1.00  0.00    -0.055 SA
HETATM   19  N   UNL     1       5.982  29.136  51.780  1.00  0.00    -0.227 NA
HETATM   20  C   UNL     1       5.811  28.130  52.601  1.00  0.00     0.174 C 
HETATM   21  C   UNL     1       1.313  27.576  48.341  1.00  0.00     0.020 C 
HETATM   22  C   UNL     1       2.961  29.151  47.293  1.00  0.00     0.128 C 
HETATM   23  C   UNL     1       2.334  30.538  47.274  1.00  0.00     0.033 C 
BRANCH  20  24
HETATM   24  N   UNL     1       6.705  27.257  53.141  1.00  0.00    -0.300 N 
HETATM   25  C   UNL     1       6.938  26.011  52.610  1.00  0.00     0.281 C 
HETATM   26  O   UNL     1       6.715  25.656  51.459  1.00  0.00    -0.265 OA
HETATM   27  H   UNL     1       6.937  27.401  54.114  1.00  0.00     0.171 HD
BRANCH  25  28
HETATM   28  C   UNL     1       7.455  25.097  53.618  1.00  0.00     0.142 A 
HETATM   29  O   UNL     1       7.471  25.494  54.935  1.00  0.00    -0.317 OA
HETATM   30  C   UNL     1       7.933  24.446  55.664  1.00  0.00     0.143 A 
HETATM   31  C   UNL     1       8.217  23.379  54.847  1.00  0.00     0.027 A 
HETATM   32  C   UNL     1       7.916  23.797  53.528  1.00  0.00     0.045 A 
ENDBRANCH  25  28
ENDBRANCH  20  24
BRANCH  15  33
HETATM   33  C   UNL     1       3.748  27.343  48.866  1.00  0.00     0.176 C 
BRANCH  33  34
HETATM   34  O   UNL     1       3.252  26.015  49.001  1.00  0.00    -0.400 OA
HETATM   35  H   UNL     1       2.863  25.963  49.891  1.00  0.00     0.209 HD
ENDBRANCH  33  34
ENDBRANCH  15  33
BRANCH  22  36
HETATM   36  O   UNL     1       4.373  29.271  47.129  1.00  0.00    -0.395 OA
HETATM   37  H   UNL     1       4.561  29.975  46.483  1.00  0.00     0.210 HD
ENDBRANCH  22  36
ENDBRANCH   8   9
ENDBRANCH   5   8
ENDBRANCH   1   4
TORSDOF 8
ENDMDL
MODEL 7
REMARK VINA RESULT:      -8.0      4.428      9.156
REMARK  8 active torsions:
REMARK  status: ('A' for Active; 'I' for Inactive)
REMARK    1  A    between atoms: C_3  and  C_4 
REMARK    2  A    between atoms: C_4  and  C_5 
REMARK       I    between atoms: C_5  and  N_6 
REMARK    3  A    between atoms: N_6  and  C_7 
REMARK    4  A    between atoms: C_14  and  N_15 
REMARK       I    between atoms: N_15  and  C_16 
REMARK    5  A    between atoms: C_16  and  C_17 
REMARK    6  A    between atoms: C_26  and  C_27 
REMARK    7  A    between atoms: C_27  and  O_28 
REMARK    8  A    between atoms: C_30  and  O_31 
ROOT
HETATM    1  C   UNL     1      -0.863  27.826  45.627  1.00  0.00     0.216 C 
HETATM    2  C   UNL     1      -1.623  29.111  45.919  1.00  0.00    -0.098 C 
HETATM    3  C   UNL     1      -2.273  30.212  46.170  1.00  0.00     0.014 C 
ENDROOT
BRANCH   1   4
HETATM    4  N   UNL     1       0.558  27.960  45.834  1.00  0.00    -0.351 N 
HETATM    5  C   UNL     1       1.107  27.626  47.060  1.00  0.00     0.219 C 
HETATM    6  O   UNL     1       0.473  27.013  47.913  1.00  0.00    -0.274 OA
HETATM    7  H   UNL     1       1.089  28.519  45.180  1.00  0.00     0.163 HD
BRANCH   5   8
HETATM    8  C   UNL     1       2.560  28.027  47.232  1.00  0.00     0.114 C 
BRANCH   8   9
HETATM    9  C   UNL     1       2.844  28.986  48.428  1.00  0.00     0.056 C 
HETATM   10  C   UNL     1       3.181  30.514  48.050  1.00  0.00    -0.030 C 
HETATM   11  C   UNL     1       4.127  30.542  46.810  1.00  0.00     0.016 C 
HETATM   12  C   UNL     1       3.917  31.269  49.250  1.00  0.00     0.012 C 
HETATM   13  C   UNL     1       1.914  31.328  47.633  1.00  0.00     0.013 C 
HETATM   14  C   UNL     1       5.259  30.580  49.605  1.00  0.00     0.055 C 
HETATM   15  C   UNL     1       2.998  31.658  50.502  1.00  0.00     0.008 C 
HETATM   16  C   UNL     1       5.043  29.121  49.758  1.00  0.00     0.012 C 
HETATM   17  C   UNL     1       3.966  28.399  49.279  1.00  0.00     0.056 C 
HETATM   18  S   UNL     1       6.078  28.126  50.669  1.00  0.00    -0.055 SA
HETATM   19  N   UNL     1       3.879  27.112  49.791  1.00  0.00    -0.227 NA
HETATM   20  C   UNL     1       4.889  26.902  50.599  1.00  0.00     0.174 C 
HETATM   21  C   UNL     1       3.593  32.964  51.107  1.00  0.00     0.020 C 
HETATM   22  C   UNL     1       1.546  31.986  50.035  1.00  0.00     0.128 C 
HETATM   23  C   UNL     1       1.510  32.451  48.586  1.00  0.00     0.033 C 
BRANCH  20  24
HETATM   24  N   UNL     1       5.116  25.912  51.505  1.00  0.00    -0.300 N 
HETATM   25  C   UNL     1       4.911  26.079  52.853  1.00  0.00     0.281 C 
HETATM   26  O   UNL     1       4.185  26.912  53.382  1.00  0.00    -0.265 OA
HETATM   27  H   UNL     1       5.751  25.181  51.216  1.00  0.00     0.171 HD
BRANCH  25  28
HETATM   28  C   UNL     1       5.723  25.152  53.629  1.00  0.00     0.142 A 
HETATM   29  O   UNL     1       6.339  24.104  52.986  1.00  0.00    -0.317 OA
HETATM   30  C   UNL     1       7.076  23.442  53.913  1.00  0.00     0.143 A 
HETATM   31  C   UNL     1       6.950  24.039  55.145  1.00  0.00     0.027 A 
HETATM   32  C   UNL     1       6.074  25.137  54.965  1.00  0.00     0.045 A 
ENDBRANCH  25  28
ENDBRANCH  20  24
BRANCH  15  33
HETATM   33  C   UNL     1       2.915  30.619  51.654  1.00  0.00     0.176 C 
BRANCH  33  34
HETATM   34  O   UNL     1       2.359  31.164  52.846  1.00  0.00    -0.400 OA
HETATM   35  H   UNL     1       2.927  31.917  53.086  1.00  0.00     0.209 HD
ENDBRANCH  33  34
ENDBRANCH  15  33
BRANCH  22  36
HETATM   36  O   UNL     1       0.698  30.849  50.184  1.00  0.00    -0.395 OA
HETATM   37  H   UNL     1      -0.231  31.134  50.125  1.00  0.00     0.210 HD
ENDBRANCH  22  36
ENDBRANCH   8   9
ENDBRANCH   5   8
ENDBRANCH   1   4
TORSDOF 8
ENDMDL
MODEL 8
REMARK VINA RESULT:      -7.9      4.734      8.460
REMARK  8 active torsions:
REMARK  status: ('A' for Active; 'I' for Inactive)
REMARK    1  A    between atoms: C_3  and  C_4 
REMARK    2  A    between atoms: C_4  and  C_5 
REMARK       I    between atoms: C_5  and  N_6 
REMARK    3  A    between atoms: N_6  and  C_7 
REMARK    4  A    between atoms: C_14  and  N_15 
REMARK       I    between atoms: N_15  and  C_16 
REMARK    5  A    between atoms: C_16  and  C_17 
REMARK    6  A    between atoms: C_26  and  C_27 
REMARK    7  A    between atoms: C_27  and  O_28 
REMARK    8  A    between atoms: C_30  and  O_31 
ROOT
HETATM    1  C   UNL     1       5.237  26.060  53.841  1.00  0.00     0.216 C 
HETATM    2  C   UNL     1       6.372  25.073  54.062  1.00  0.00    -0.098 C 
HETATM    3  C   UNL     1       7.345  24.227  54.250  1.00  0.00     0.014 C 
ENDROOT
BRANCH   1   4
HETATM    4  N   UNL     1       5.370  26.796  52.608  1.00  0.00    -0.351 N 
HETATM    5  C   UNL     1       5.123  26.164  51.402  1.00  0.00     0.219 C 
HETATM    6  O   UNL     1       4.583  25.065  51.340  1.00  0.00    -0.274 OA
HETATM    7  H   UNL     1       5.872  27.674  52.624  1.00  0.00     0.163 HD
BRANCH   5   8
HETATM    8  C   UNL     1       5.520  26.966  50.176  1.00  0.00     0.114 C 
BRANCH   8   9
HETATM    9  C   UNL     1       4.383  27.832  49.555  1.00  0.00     0.056 C 
HETATM   10  C   UNL     1       4.205  27.734  47.958  1.00  0.00    -0.030 C 
HETATM   11  C   UNL     1       5.610  27.723  47.282  1.00  0.00     0.016 C 
HETATM   12  C   UNL     1       3.387  28.978  47.379  1.00  0.00     0.012 C 
HETATM   13  C   UNL     1       3.510  26.409  47.508  1.00  0.00     0.013 C 
HETATM   14  C   UNL     1       4.115  30.313  47.675  1.00  0.00     0.055 C 
HETATM   15  C   UNL     1       1.813  28.979  47.673  1.00  0.00     0.008 C 
HETATM   16  C   UNL     1       4.496  30.363  49.107  1.00  0.00     0.012 C 
HETATM   17  C   UNL     1       4.586  29.287  49.968  1.00  0.00     0.056 C 
HETATM   18  S   UNL     1       4.778  31.822  49.935  1.00  0.00    -0.055 SA
HETATM   19  N   UNL     1       4.696  29.643  51.306  1.00  0.00    -0.227 NA
HETATM   20  C   UNL     1       4.715  30.949  51.402  1.00  0.00     0.174 C 
HETATM   21  C   UNL     1       1.133  29.702  46.472  1.00  0.00     0.020 C 
HETATM   22  C   UNL     1       1.260  27.521  47.707  1.00  0.00     0.128 C 
HETATM   23  C   UNL     1       2.122  26.571  46.888  1.00  0.00     0.033 C 
BRANCH  20  24
HETATM   24  N   UNL     1       4.574  31.767  52.481  1.00  0.00    -0.300 N 
HETATM   25  C   UNL     1       3.704  31.495  53.509  1.00  0.00     0.281 C 
HETATM   26  O   UNL     1       3.251  30.397  53.809  1.00  0.00    -0.265 OA
HETATM   27  H   UNL     1       4.859  32.728  52.352  1.00  0.00     0.171 HD
BRANCH  25  28
HETATM   28  C   UNL     1       3.319  32.711  54.210  1.00  0.00     0.142 A 
HETATM   29  O   UNL     1       2.481  32.620  55.297  1.00  0.00    -0.317 OA
HETATM   30  C   UNL     1       2.336  33.873  55.798  1.00  0.00     0.143 A 
HETATM   31  C   UNL     1       3.062  34.775  55.057  1.00  0.00     0.027 A 
HETATM   32  C   UNL     1       3.691  34.030  54.031  1.00  0.00     0.045 A 
ENDBRANCH  25  28
ENDBRANCH  20  24
BRANCH  15  33
HETATM   33  C   UNL     1       1.347  29.706  48.964  1.00  0.00     0.176 C 
BRANCH  33  34
HETATM   34  O   UNL     1       0.784  30.987  48.701  1.00  0.00    -0.400 OA
HETATM   35  H   UNL     1      -0.161  30.914  48.920  1.00  0.00     0.209 HD
ENDBRANCH  33  34
ENDBRANCH  15  33
BRANCH  22  36
HETATM   36  O   UNL     1       1.177  27.043  49.048  1.00  0.00    -0.395 OA
HETATM   37  H   UNL     1       2.032  27.185  49.491  1.00  0.00     0.210 HD
ENDBRANCH  22  36
ENDBRANCH   8   9
ENDBRANCH   5   8
ENDBRANCH   1   4
TORSDOF 8
ENDMDL
MODEL 9
REMARK VINA RESULT:      -7.9      5.379     10.882
REMARK  8 active torsions:
REMARK  status: ('A' for Active; 'I' for Inactive)
REMARK    1  A    between atoms: C_3  and  C_4 
REMARK    2  A    between atoms: C_4  and  C_5 
REMARK       I    between atoms: C_5  and  N_6 
REMARK    3  A    between atoms: N_6  and  C_7 
REMARK    4  A    between atoms: C_14  and  N_15 
REMARK       I    between atoms: N_15  and  C_16 
REMARK    5  A    between atoms: C_16  and  C_17 
REMARK    6  A    between atoms: C_26  and  C_27 
REMARK    7  A    between atoms: C_27  and  O_28 
REMARK    8  A    between atoms: C_30  and  O_31 
ROOT
HETATM    1  C   UNL     1       9.326  30.267  58.335  1.00  0.00     0.216 C 
HETATM    2  C   UNL     1       8.864  29.027  57.587  1.00  0.00    -0.098 C 
HETATM    3  C   UNL     1       8.467  27.963  56.947  1.00  0.00     0.014 C 
ENDROOT
BRANCH   1   4
HETATM    4  N   UNL     1       8.462  30.606  59.440  1.00  0.00    -0.351 N 
HETATM    5  C   UNL     1       8.588  31.839  60.055  1.00  0.00     0.219 C 
HETATM    6  O   UNL     1       9.254  32.747  59.568  1.00  0.00    -0.274 OA
HETATM    7  H   UNL     1       7.956  29.862  59.900  1.00  0.00     0.163 HD
BRANCH   5   8
HETATM    8  C   UNL     1       7.794  31.988  61.340  1.00  0.00     0.114 C 
BRANCH   8   9
HETATM    9  C   UNL     1       6.552  32.925  61.246  1.00  0.00     0.056 C 
HETATM   10  C   UNL     1       5.643  33.037  62.570  1.00  0.00    -0.030 C 
HETATM   11  C   UNL     1       5.484  31.622  63.206  1.00  0.00     0.016 C 
HETATM   12  C   UNL     1       4.184  33.596  62.237  1.00  0.00     0.012 C 
HETATM   13  C   UNL     1       6.294  33.927  63.677  1.00  0.00     0.013 C 
HETATM   14  C   UNL     1       3.439  32.663  61.250  1.00  0.00     0.055 C 
HETATM   15  C   UNL     1       4.094  35.158  61.901  1.00  0.00     0.008 C 
HETATM   16  C   UNL     1       4.321  32.353  60.099  1.00  0.00     0.012 C 
HETATM   17  C   UNL     1       5.695  32.494  60.059  1.00  0.00     0.056 C 
HETATM   18  S   UNL     1       3.722  31.865  58.584  1.00  0.00    -0.055 SA
HETATM   19  N   UNL     1       6.235  32.392  58.785  1.00  0.00    -0.227 NA
HETATM   20  C   UNL     1       5.273  32.152  57.929  1.00  0.00     0.174 C 
HETATM   21  C   UNL     1       2.694  35.641  62.385  1.00  0.00     0.020 C 
HETATM   22  C   UNL     1       5.162  35.956  62.709  1.00  0.00     0.128 C 
HETATM   23  C   UNL     1       5.562  35.232  63.987  1.00  0.00     0.033 C 
BRANCH  20  24
HETATM   24  N   UNL     1       5.255  32.204  56.568  1.00  0.00    -0.300 N 
HETATM   25  C   UNL     1       5.044  33.370  55.873  1.00  0.00     0.281 C 
HETATM   26  O   UNL     1       5.219  34.509  56.290  1.00  0.00    -0.265 OA
HETATM   27  H   UNL     1       5.061  31.334  56.092  1.00  0.00     0.171 HD
BRANCH  25  28
HETATM   28  C   UNL     1       4.516  33.102  54.543  1.00  0.00     0.142 A 
HETATM   29  O   UNL     1       4.840  33.953  53.512  1.00  0.00    -0.317 OA
HETATM   30  C   UNL     1       4.282  33.446  52.383  1.00  0.00     0.143 A 
HETATM   31  C   UNL     1       3.603  32.283  52.662  1.00  0.00     0.027 A 
HETATM   32  C   UNL     1       3.747  32.064  54.053  1.00  0.00     0.045 A 
ENDBRANCH  25  28
ENDBRANCH  20  24
BRANCH  15  33
HETATM   33  C   UNL     1       4.219  35.556  60.404  1.00  0.00     0.176 C 
BRANCH  33  34
HETATM   34  O   UNL     1       4.148  36.964  60.202  1.00  0.00    -0.400 OA
HETATM   35  H   UNL     1       4.149  37.097  59.239  1.00  0.00     0.209 HD
ENDBRANCH  33  34
ENDBRANCH  15  33
BRANCH  22  36
HETATM   36  O   UNL     1       6.325  36.189  61.917  1.00  0.00    -0.395 OA
HETATM   37  H   UNL     1       6.060  36.592  61.071  1.00  0.00     0.210 HD
ENDBRANCH  22  36
ENDBRANCH   8   9
ENDBRANCH   5   8
ENDBRANCH   1   4
TORSDOF 8
ENDMDL
MODEL 10
REMARK VINA RESULT:      -7.8      3.079      7.984
REMARK  8 active torsions:
REMARK  status: ('A' for Active; 'I' for Inactive)
REMARK    1  A    between atoms: C_3  and  C_4 
REMARK    2  A    between atoms: C_4  and  C_5 
REMARK       I    between atoms: C_5  and  N_6 
REMARK    3  A    between atoms: N_6  and  C_7 
REMARK    4  A    between atoms: C_14  and  N_15 
REMARK       I    between atoms: N_15  and  C_16 
REMARK    5  A    between atoms: C_16  and  C_17 
REMARK    6  A    between atoms: C_26  and  C_27 
REMARK    7  A    between atoms: C_27  and  O_28 
REMARK    8  A    between atoms: C_30  and  O_31 
ROOT
HETATM    1  C   UNL     1       7.088  26.986  57.831  1.00  0.00     0.216 C 
HETATM    2  C   UNL     1       8.053  25.850  57.530  1.00  0.00    -0.098 C 
HETATM    3  C   UNL     1       8.880  24.877  57.271  1.00  0.00     0.014 C 
ENDROOT
BRANCH   1   4
HETATM    4  N   UNL     1       7.183  28.064  56.877  1.00  0.00    -0.351 N 
HETATM    5  C   UNL     1       6.042  28.755  56.508  1.00  0.00     0.219 C 
HETATM    6  O   UNL     1       4.983  28.638  57.116  1.00  0.00    -0.274 OA
HETATM    7  H   UNL     1       8.020  28.138  56.316  1.00  0.00     0.163 HD
BRANCH   5   8
HETATM    8  C   UNL     1       6.227  29.700  55.335  1.00  0.00     0.114 C 
BRANCH   8   9
HETATM    9  C   UNL     1       5.720  29.159  53.963  1.00  0.00     0.056 C 
HETATM   10  C   UNL     1       4.291  29.709  53.466  1.00  0.00    -0.030 C 
HETATM   11  C   UNL     1       3.308  29.758  54.676  1.00  0.00     0.016 C 
HETATM   12  C   UNL     1       3.652  28.763  52.349  1.00  0.00     0.012 C 
HETATM   13  C   UNL     1       4.362  31.171  52.921  1.00  0.00     0.013 C 
HETATM   14  C   UNL     1       3.426  27.330  52.891  1.00  0.00     0.055 C 
HETATM   15  C   UNL     1       4.321  28.845  50.897  1.00  0.00     0.008 C 
HETATM   16  C   UNL     1       4.662  26.850  53.556  1.00  0.00     0.012 C 
HETATM   17  C   UNL     1       5.706  27.634  54.005  1.00  0.00     0.056 C 
HETATM   18  S   UNL     1       5.016  25.200  53.762  1.00  0.00    -0.055 SA
HETATM   19  N   UNL     1       6.847  26.917  54.338  1.00  0.00    -0.227 NA
HETATM   20  C   UNL     1       6.618  25.639  54.160  1.00  0.00     0.174 C 
HETATM   21  C   UNL     1       3.191  28.554  49.865  1.00  0.00     0.020 C 
HETATM   22  C   UNL     1       4.842  30.288  50.614  1.00  0.00     0.128 C 
HETATM   23  C   UNL     1       4.088  31.331  51.426  1.00  0.00     0.033 C 
BRANCH  20  24
HETATM   24  N   UNL     1       7.468  24.577  54.120  1.00  0.00    -0.300 N 
HETATM   25  C   UNL     1       7.764  23.908  52.957  1.00  0.00     0.281 C 
HETATM   26  O   UNL     1       7.653  24.343  51.817  1.00  0.00    -0.265 OA
HETATM   27  H   UNL     1       7.607  24.084  54.991  1.00  0.00     0.171 HD
BRANCH  25  28
HETATM   28  C   UNL     1       8.196  22.545  53.229  1.00  0.00     0.142 A 
HETATM   29  O   UNL     1       7.662  21.514  52.491  1.00  0.00    -0.317 OA
HETATM   30  C   UNL     1       8.274  20.372  52.894  1.00  0.00     0.143 A 
HETATM   31  C   UNL     1       9.196  20.641  53.878  1.00  0.00     0.027 A 
HETATM   32  C   UNL     1       9.143  22.039  54.099  1.00  0.00     0.045 A 
ENDBRANCH  25  28
ENDBRANCH  20  24
BRANCH  15  33
HETATM   33  C   UNL     1       5.473  27.846  50.604  1.00  0.00     0.176 C 
BRANCH  33  34
HETATM   34  O   UNL     1       5.073  26.781  49.746  1.00  0.00    -0.400 OA
HETATM   35  H   UNL     1       4.221  27.052  49.363  1.00  0.00     0.209 HD
ENDBRANCH  33  34
ENDBRANCH  15  33
BRANCH  22  36
HETATM   36  O   UNL     1       6.236  30.386  50.899  1.00  0.00    -0.395 OA
HETATM   37  H   UNL     1       6.720  29.740  50.355  1.00  0.00     0.210 HD
ENDBRANCH  22  36
ENDBRANCH   8   9
ENDBRANCH   5   8
ENDBRANCH   1   4
TORSDOF 8
ENDMDL
