MODEL 1
REMARK VINA RESULT:      -8.2      0.000      0.000
REMARK  11 active torsions:
REMARK  status: ('A' for Active; 'I' for Inactive)
REMARK    1  A    between atoms: C_5  and  C_6 
REMARK    2  A    between atoms: C_6  and  N_7 
REMARK    3  A    between atoms: N_7  and  C_10 
REMARK    4  A    between atoms: C_10  and  C_11 
REMARK    5  A    between atoms: C_13  and  O_14 
REMARK    6  A    between atoms: C_16  and  O_17 
REMARK    7  A    between atoms: O_17  and  C_18 
REMARK    8  A    between atoms: C_18  and  C_19 
REMARK    9  A    between atoms: C_19  and  O_20 
REMARK   10  A    between atoms: C_19  and  C_21 
REMARK   11  A    between atoms: C_21  and  N_22 
ROOT
HETATM    1  C   UNL     1       5.725  34.165  66.024  1.00  0.00    -0.030 A 
HETATM    2  C   UNL     1       4.708  33.718  65.163  1.00  0.00     0.048 A 
HETATM    3  C   UNL     1       5.015  32.957  64.026  1.00  0.00     0.102 A 
HETATM    4  C   UNL     1       6.358  32.642  63.735  1.00  0.00     0.102 A 
HETATM    5  C   UNL     1       7.372  33.114  64.569  1.00  0.00     0.040 A 
HETATM    6  C   UNL     1       7.057  33.867  65.707  1.00  0.00     0.012 A 
ENDROOT
BRANCH   4   7
HETATM    7  O   UNL     1       6.551  31.852  62.633  1.00  0.00    -0.346 OA
BRANCH   7   8
HETATM    8  C   UNL     1       7.264  32.370  61.518  1.00  0.00     0.209 C 
BRANCH   8   9
HETATM    9  C   UNL     1       7.976  31.193  60.836  1.00  0.00     0.168 C 
BRANCH   9  10
HETATM   10  O   UNL     1       8.531  30.272  61.789  1.00  0.00    -0.392 OA
HETATM   11  H   UNL     1       9.506  30.360  61.765  1.00  0.00     0.210 HD
ENDBRANCH   9  10
BRANCH   9  12
HETATM   12  C   UNL     1       9.127  31.674  59.928  1.00  0.00     0.268 C 
BRANCH  12  13
HETATM   13  N   UNL     1       9.372  30.622  58.843  1.00  0.00    -0.067 N 
HETATM   14  H   UNL     1       9.697  29.796  59.380  1.00  0.00     0.280 HD
HETATM   15  C   UNL     1       8.096  30.230  58.114  1.00  0.00     0.245 C 
HETATM   16  C   UNL     1       8.309  29.017  57.211  1.00  0.00     0.101 C 
HETATM   17  S   UNL     1       9.529  29.351  55.908  1.00  0.00    -0.166 SA
HETATM   18  C   UNL     1      10.900  29.903  56.964  1.00  0.00     0.101 C 
HETATM   19  C   UNL     1      10.485  31.041  57.897  1.00  0.00     0.245 C 
ENDBRANCH  12  13
ENDBRANCH   9  12
ENDBRANCH   8   9
ENDBRANCH   7   8
ENDBRANCH   4   7
BRANCH   3  20
HETATM   20  O   UNL     1       4.089  32.472  63.136  1.00  0.00    -0.353 OA
HETATM   21  C   UNL     1       3.361  33.410  62.352  1.00  0.00     0.210 C 
ENDBRANCH   3  20
BRANCH   1  22
HETATM   22  C   UNL     1       5.391  34.955  67.261  1.00  0.00     0.271 C 
BRANCH  22  23
HETATM   23  N   UNL     1       6.542  35.048  68.181  1.00  0.00    -0.066 N 
HETATM   24  H   UNL     1       7.169  35.821  67.925  1.00  0.00     0.277 HD
HETATM   25  H   UNL     1       7.155  34.220  68.107  1.00  0.00     0.277 HD
BRANCH  23  26
HETATM   26  C   UNL     1       6.211  35.170  69.642  1.00  0.00     0.293 C 
BRANCH  26  27
HETATM   27  C   UNL     1       6.663  33.946  70.385  1.00  0.00     0.077 A 
HETATM   28  C   UNL     1       7.880  33.912  71.050  1.00  0.00     0.145 A 
HETATM   29  N   UNL     1       8.284  32.830  71.744  1.00  0.00    -0.262 NA
HETATM   30  C   UNL     1       7.442  31.767  71.769  1.00  0.00     0.048 A 
HETATM   31  C   UNL     1       7.865  30.551  72.532  1.00  0.00     0.072 C 
HETATM   32  C   UNL     1       6.221  31.806  71.105  1.00  0.00     0.143 A 
HETATM   33  N   UNL     1       5.798  32.891  70.401  1.00  0.00    -0.260 NA
ENDBRANCH  26  27
ENDBRANCH  23  26
ENDBRANCH  22  23
ENDBRANCH   1  22
TORSDOF 11
ENDMDL
MODEL 2
REMARK VINA RESULT:      -8.1      4.557      9.326
REMARK  11 active torsions:
REMARK  status: ('A' for Active; 'I' for Inactive)
REMARK    1  A    between atoms: C_5  and  C_6 
REMARK    2  A    between atoms: C_6  and  N_7 
REMARK    3  A    between atoms: N_7  and  C_10 
REMARK    4  A    between atoms: C_10  and  C_11 
REMARK    5  A    between atoms: C_13  and  O_14 
REMARK    6  A    between atoms: C_16  and  O_17 
REMARK    7  A    between atoms: O_17  and  C_18 
REMARK    8  A    between atoms: C_18  and  C_19 
REMARK    9  A    between atoms: C_19  and  O_20 
REMARK   10  A    between atoms: C_19  and  C_21 
REMARK   11  A    between atoms: C_21  and  N_22 
ROOT
HETATM    1  C   UNL     1       7.867  32.163  62.741  1.00  0.00    -0.030 A 
HETATM    2  C   UNL     1       6.577  31.759  62.358  1.00  0.00     0.048 A 
HETATM    3  C   UNL     1       5.455  32.134  63.111  1.00  0.00     0.102 A 
HETATM    4  C   UNL     1       5.620  32.919  64.271  1.00  0.00     0.102 A 
HETATM    5  C   UNL     1       6.903  33.294  64.672  1.00  0.00     0.040 A 
HETATM    6  C   UNL     1       8.018  32.921  63.911  1.00  0.00     0.012 A 
ENDROOT
BRANCH   4   7
HETATM    7  O   UNL     1       4.461  33.277  64.907  1.00  0.00    -0.346 OA
BRANCH   7   8
HETATM    8  C   UNL     1       4.531  34.021  66.117  1.00  0.00     0.209 C 
BRANCH   8   9
HETATM    9  C   UNL     1       3.861  35.379  65.864  1.00  0.00     0.168 C 
BRANCH   9  10
HETATM   10  O   UNL     1       2.743  35.601  66.739  1.00  0.00    -0.392 OA
HETATM   11  H   UNL     1       2.889  35.083  67.556  1.00  0.00     0.210 HD
ENDBRANCH   9  10
BRANCH   9  12
HETATM   12  C   UNL     1       3.349  35.500  64.414  1.00  0.00     0.268 C 
BRANCH  12  13
HETATM   13  N   UNL     1       3.972  36.742  63.772  1.00  0.00    -0.067 N 
HETATM   14  H   UNL     1       3.664  37.512  64.394  1.00  0.00     0.280 HD
HETATM   15  C   UNL     1       5.493  36.707  63.794  1.00  0.00     0.245 C 
HETATM   16  C   UNL     1       6.097  38.046  63.376  1.00  0.00     0.101 C 
HETATM   17  S   UNL     1       5.646  38.489  61.674  1.00  0.00    -0.166 SA
HETATM   18  C   UNL     1       3.841  38.358  61.835  1.00  0.00     0.101 C 
HETATM   19  C   UNL     1       3.410  36.998  62.384  1.00  0.00     0.245 C 
ENDBRANCH  12  13
ENDBRANCH   9  12
ENDBRANCH   8   9
ENDBRANCH   7   8
ENDBRANCH   4   7
BRANCH   3  20
HETATM   20  O   UNL     1       4.160  31.792  62.808  1.00  0.00    -0.353 OA
HETATM   21  C   UNL     1       3.585  32.331  61.625  1.00  0.00     0.210 C 
ENDBRANCH   3  20
BRANCH   1  22
HETATM   22  C   UNL     1       9.067  31.787  61.915  1.00  0.00     0.271 C 
BRANCH  22  23
HETATM   23  N   UNL     1       9.109  32.525  60.637  1.00  0.00    -0.066 N 
HETATM   24  H   UNL     1       9.699  33.365  60.706  1.00  0.00     0.277 HD
HETATM   25  H   UNL     1       8.184  32.914  60.392  1.00  0.00     0.277 HD
BRANCH  23  26
HETATM   26  C   UNL     1       9.544  31.739  59.433  1.00  0.00     0.293 C 
BRANCH  26  27
HETATM   27  C   UNL     1       8.364  31.064  58.795  1.00  0.00     0.077 A 
HETATM   28  C   UNL     1       8.390  29.716  58.469  1.00  0.00     0.145 A 
HETATM   29  N   UNL     1       7.328  29.092  57.923  1.00  0.00    -0.262 NA
HETATM   30  C   UNL     1       6.220  29.843  57.708  1.00  0.00     0.048 A 
HETATM   31  C   UNL     1       5.024  29.178  57.102  1.00  0.00     0.072 C 
HETATM   32  C   UNL     1       6.195  31.193  58.040  1.00  0.00     0.143 A 
HETATM   33  N   UNL     1       7.258  31.837  58.592  1.00  0.00    -0.260 NA
ENDBRANCH  26  27
ENDBRANCH  23  26
ENDBRANCH  22  23
ENDBRANCH   1  22
TORSDOF 11
ENDMDL
MODEL 3
REMARK VINA RESULT:      -8.0      1.566      2.001
REMARK  11 active torsions:
REMARK  status: ('A' for Active; 'I' for Inactive)
REMARK    1  A    between atoms: C_5  and  C_6 
REMARK    2  A    between atoms: C_6  and  N_7 
REMARK    3  A    between atoms: N_7  and  C_10 
REMARK    4  A    between atoms: C_10  and  C_11 
REMARK    5  A    between atoms: C_13  and  O_14 
REMARK    6  A    between atoms: C_16  and  O_17 
REMARK    7  A    between atoms: O_17  and  C_18 
REMARK    8  A    between atoms: C_18  and  C_19 
REMARK    9  A    between atoms: C_19  and  O_20 
REMARK   10  A    between atoms: C_19  and  C_21 
REMARK   11  A    between atoms: C_21  and  N_22 
ROOT
HETATM    1  C   UNL     1       5.939  33.607  65.092  1.00  0.00    -0.030 A 
HETATM    2  C   UNL     1       5.095  33.157  64.062  1.00  0.00     0.048 A 
HETATM    3  C   UNL     1       5.626  32.557  62.912  1.00  0.00     0.102 A 
HETATM    4  C   UNL     1       7.022  32.411  62.777  1.00  0.00     0.102 A 
HETATM    5  C   UNL     1       7.864  32.887  63.782  1.00  0.00     0.040 A 
HETATM    6  C   UNL     1       7.326  33.478  64.933  1.00  0.00     0.012 A 
ENDROOT
BRANCH   4   7
HETATM    7  O   UNL     1       7.438  31.767  61.643  1.00  0.00    -0.346 OA
BRANCH   7   8
HETATM    8  C   UNL     1       8.782  31.924  61.205  1.00  0.00     0.209 C 
BRANCH   8   9
HETATM    9  C   UNL     1       8.824  31.584  59.708  1.00  0.00     0.168 C 
BRANCH   9  10
HETATM   10  O   UNL     1       9.732  32.430  58.987  1.00  0.00    -0.392 OA
HETATM   11  H   UNL     1      10.023  33.146  59.589  1.00  0.00     0.210 HD
ENDBRANCH   9  10
BRANCH   9  12
HETATM   12  C   UNL     1       7.434  31.727  59.054  1.00  0.00     0.268 C 
BRANCH  12  13
HETATM   13  N   UNL     1       7.247  30.596  58.039  1.00  0.00    -0.067 N 
HETATM   14  H   UNL     1       7.704  30.965  57.184  1.00  0.00     0.280 HD
HETATM   15  C   UNL     1       7.976  29.325  58.445  1.00  0.00     0.245 C 
HETATM   16  C   UNL     1       7.984  28.291  57.319  1.00  0.00     0.101 C 
HETATM   17  S   UNL     1       6.304  27.766  56.872  1.00  0.00    -0.166 SA
HETATM   18  C   UNL     1       5.592  29.405  56.548  1.00  0.00     0.101 C 
HETATM   19  C   UNL     1       5.779  30.358  57.728  1.00  0.00     0.245 C 
ENDBRANCH  12  13
ENDBRANCH   9  12
ENDBRANCH   8   9
ENDBRANCH   7   8
ENDBRANCH   4   7
BRANCH   3  20
HETATM   20  O   UNL     1       4.879  32.083  61.862  1.00  0.00    -0.353 OA
HETATM   21  C   UNL     1       3.900  32.945  61.294  1.00  0.00     0.210 C 
ENDBRANCH   3  20
BRANCH   1  22
HETATM   22  C   UNL     1       5.367  34.221  66.341  1.00  0.00     0.271 C 
BRANCH  22  23
HETATM   23  N   UNL     1       6.418  34.552  67.323  1.00  0.00    -0.066 N 
HETATM   24  H   UNL     1       7.065  35.263  66.959  1.00  0.00     0.277 HD
HETATM   25  H   UNL     1       7.040  33.746  67.501  1.00  0.00     0.277 HD
BRANCH  23  26
HETATM   26  C   UNL     1       5.941  34.995  68.677  1.00  0.00     0.293 C 
BRANCH  26  27
HETATM   27  C   UNL     1       6.534  34.127  69.750  1.00  0.00     0.077 A 
HETATM   28  C   UNL     1       7.820  34.337  70.224  1.00  0.00     0.145 A 
HETATM   29  N   UNL     1       8.352  33.583  71.206  1.00  0.00    -0.262 NA
HETATM   30  C   UNL     1       7.568  32.604  71.720  1.00  0.00     0.048 A 
HETATM   31  C   UNL     1       8.133  31.750  72.812  1.00  0.00     0.072 C 
HETATM   32  C   UNL     1       6.278  32.397  71.246  1.00  0.00     0.143 A 
HETATM   33  N   UNL     1       5.726  33.150  70.256  1.00  0.00    -0.260 NA
ENDBRANCH  26  27
ENDBRANCH  23  26
ENDBRANCH  22  23
ENDBRANCH   1  22
TORSDOF 11
ENDMDL
MODEL 4
REMARK VINA RESULT:      -7.9      5.172     12.524
REMARK  11 active torsions:
REMARK  status: ('A' for Active; 'I' for Inactive)
REMARK    1  A    between atoms: C_5  and  C_6 
REMARK    2  A    between atoms: C_6  and  N_7 
REMARK    3  A    between atoms: N_7  and  C_10 
REMARK    4  A    between atoms: C_10  and  C_11 
REMARK    5  A    between atoms: C_13  and  O_14 
REMARK    6  A    between atoms: C_16  and  O_17 
REMARK    7  A    between atoms: O_17  and  C_18 
REMARK    8  A    between atoms: C_18  and  C_19 
REMARK    9  A    between atoms: C_19  and  O_20 
REMARK   10  A    between atoms: C_19  and  C_21 
REMARK   11  A    between atoms: C_21  and  N_22 
ROOT
HETATM    1  C   UNL     1       6.886  27.472  57.332  1.00  0.00    -0.030 A 
HETATM    2  C   UNL     1       8.096  28.064  57.733  1.00  0.00     0.048 A 
HETATM    3  C   UNL     1       8.165  29.436  58.010  1.00  0.00     0.102 A 
HETATM    4  C   UNL     1       7.012  30.237  57.879  1.00  0.00     0.102 A 
HETATM    5  C   UNL     1       5.817  29.658  57.448  1.00  0.00     0.040 A 
HETATM    6  C   UNL     1       5.755  28.285  57.180  1.00  0.00     0.012 A 
ENDROOT
BRANCH   4   7
HETATM    7  O   UNL     1       7.168  31.553  58.223  1.00  0.00    -0.346 OA
BRANCH   7   8
HETATM    8  C   UNL     1       6.495  32.060  59.368  1.00  0.00     0.209 C 
BRANCH   8   9
HETATM    9  C   UNL     1       7.551  32.700  60.280  1.00  0.00     0.168 C 
BRANCH   9  10
HETATM   10  O   UNL     1       8.867  32.640  59.708  1.00  0.00    -0.392 OA
HETATM   11  H   UNL     1       9.334  31.874  60.100  1.00  0.00     0.210 HD
ENDBRANCH   9  10
BRANCH   9  12
HETATM   12  C   UNL     1       7.609  32.007  61.657  1.00  0.00     0.268 C 
BRANCH  12  13
HETATM   13  N   UNL     1       6.998  32.939  62.705  1.00  0.00    -0.067 N 
HETATM   14  H   UNL     1       7.211  33.885  62.337  1.00  0.00     0.280 HD
HETATM   15  C   UNL     1       5.485  32.804  62.793  1.00  0.00     0.245 C 
HETATM   16  C   UNL     1       4.867  33.900  63.660  1.00  0.00     0.101 C 
HETATM   17  S   UNL     1       5.462  33.822  65.373  1.00  0.00    -0.166 SA
HETATM   18  C   UNL     1       7.247  33.877  65.038  1.00  0.00     0.101 C 
HETATM   19  C   UNL     1       7.681  32.791  64.054  1.00  0.00     0.245 C 
ENDBRANCH  12  13
ENDBRANCH   9  12
ENDBRANCH   8   9
ENDBRANCH   7   8
ENDBRANCH   4   7
BRANCH   3  20
HETATM   20  O   UNL     1       9.299  30.096  58.414  1.00  0.00    -0.353 OA
HETATM   21  C   UNL     1      10.386  30.180  57.500  1.00  0.00     0.210 C 
ENDBRANCH   3  20
BRANCH   1  22
HETATM   22  C   UNL     1       6.806  25.993  57.065  1.00  0.00     0.271 C 
BRANCH  22  23
HETATM   23  N   UNL     1       8.110  25.437  56.650  1.00  0.00    -0.066 N 
HETATM   24  H   UNL     1       8.887  26.051  56.926  1.00  0.00     0.277 HD
HETATM   25  H   UNL     1       8.198  25.403  55.622  1.00  0.00     0.277 HD
BRANCH  23  26
HETATM   26  C   UNL     1       8.415  24.044  57.125  1.00  0.00     0.293 C 
BRANCH  26  27
HETATM   27  C   UNL     1       8.376  23.080  55.974  1.00  0.00     0.077 A 
HETATM   28  C   UNL     1       8.209  21.718  56.176  1.00  0.00     0.145 A 
HETATM   29  N   UNL     1       8.144  20.846  55.151  1.00  0.00    -0.262 NA
HETATM   30  C   UNL     1       8.244  21.361  53.901  1.00  0.00     0.048 A 
HETATM   31  C   UNL     1       8.175  20.416  52.742  1.00  0.00     0.072 C 
HETATM   32  C   UNL     1       8.407  22.727  53.701  1.00  0.00     0.143 A 
HETATM   33  N   UNL     1       8.474  23.620  54.724  1.00  0.00    -0.260 NA
ENDBRANCH  26  27
ENDBRANCH  23  26
ENDBRANCH  22  23
ENDBRANCH   1  22
TORSDOF 11
ENDMDL
MODEL 5
REMARK VINA RESULT:      -7.8      5.830     12.630
REMARK  11 active torsions:
REMARK  status: ('A' for Active; 'I' for Inactive)
REMARK    1  A    between atoms: C_5  and  C_6 
REMARK    2  A    between atoms: C_6  and  N_7 
REMARK    3  A    between atoms: N_7  and  C_10 
REMARK    4  A    between atoms: C_10  and  C_11 
REMARK    5  A    between atoms: C_13  and  O_14 
REMARK    6  A    between atoms: C_16  and  O_17 
REMARK    7  A    between atoms: O_17  and  C_18 
REMARK    8  A    between atoms: C_18  and  C_19 
REMARK    9  A    between atoms: C_19  and  O_20 
REMARK   10  A    between atoms: C_19  and  C_21 
REMARK   11  A    between atoms: C_21  and  N_22 
ROOT
HETATM    1  C   UNL     1       6.327  27.251  55.283  1.00  0.00    -0.030 A 
HETATM    2  C   UNL     1       5.650  28.293  55.941  1.00  0.00     0.048 A 
HETATM    3  C   UNL     1       6.216  28.921  57.059  1.00  0.00     0.102 A 
HETATM    4  C   UNL     1       7.473  28.500  57.539  1.00  0.00     0.102 A 
HETATM    5  C   UNL     1       8.132  27.444  56.909  1.00  0.00     0.040 A 
HETATM    6  C   UNL     1       7.564  26.826  55.788  1.00  0.00     0.012 A 
ENDROOT
BRANCH   4   7
HETATM    7  O   UNL     1       7.964  29.209  58.603  1.00  0.00    -0.346 OA
BRANCH   7   8
HETATM    8  C   UNL     1       9.044  30.112  58.402  1.00  0.00     0.209 C 
BRANCH   8   9
HETATM    9  C   UNL     1       8.721  31.398  59.175  1.00  0.00     0.168 C 
BRANCH   9  10
HETATM   10  O   UNL     1       9.760  32.382  59.045  1.00  0.00    -0.392 OA
HETATM   11  H   UNL     1      10.455  32.178  59.704  1.00  0.00     0.210 HD
ENDBRANCH   9  10
BRANCH   9  12
HETATM   12  C   UNL     1       8.526  31.123  60.681  1.00  0.00     0.268 C 
BRANCH  12  13
HETATM   13  N   UNL     1       7.059  31.371  61.042  1.00  0.00    -0.067 N 
HETATM   14  H   UNL     1       6.609  30.456  60.852  1.00  0.00     0.280 HD
HETATM   15  C   UNL     1       6.869  31.685  62.518  1.00  0.00     0.245 C 
HETATM   16  C   UNL     1       5.393  31.691  62.911  1.00  0.00     0.101 C 
HETATM   17  S   UNL     1       4.461  32.968  62.018  1.00  0.00    -0.166 SA
HETATM   18  C   UNL     1       4.911  32.490  60.325  1.00  0.00     0.101 C 
HETATM   19  C   UNL     1       6.426  32.410  60.133  1.00  0.00     0.245 C 
ENDBRANCH  12  13
ENDBRANCH   9  12
ENDBRANCH   8   9
ENDBRANCH   7   8
ENDBRANCH   4   7
BRANCH   3  20
HETATM   20  O   UNL     1       5.631  29.949  57.758  1.00  0.00    -0.353 OA
HETATM   21  C   UNL     1       4.327  30.362  57.372  1.00  0.00     0.210 C 
ENDBRANCH   3  20
BRANCH   1  22
HETATM   22  C   UNL     1       5.734  26.600  54.063  1.00  0.00     0.271 C 
BRANCH  22  23
HETATM   23  N   UNL     1       5.650  25.133  54.208  1.00  0.00    -0.066 N 
HETATM   24  H   UNL     1       4.677  24.804  54.162  1.00  0.00     0.277 HD
HETATM   25  H   UNL     1       5.952  24.826  55.147  1.00  0.00     0.277 HD
BRANCH  23  26
HETATM   26  C   UNL     1       6.469  24.326  53.241  1.00  0.00     0.293 C 
BRANCH  26  27
HETATM   27  C   UNL     1       7.224  23.249  53.966  1.00  0.00     0.077 A 
HETATM   28  C   UNL     1       7.964  22.297  53.282  1.00  0.00     0.145 A 
HETATM   29  N   UNL     1       8.668  21.343  53.922  1.00  0.00    -0.262 NA
HETATM   30  C   UNL     1       8.627  21.355  55.277  1.00  0.00     0.048 A 
HETATM   31  C   UNL     1       9.399  20.307  56.016  1.00  0.00     0.072 C 
HETATM   32  C   UNL     1       7.886  22.313  55.961  1.00  0.00     0.143 A 
HETATM   33  N   UNL     1       7.171  23.283  55.330  1.00  0.00    -0.260 NA
ENDBRANCH  26  27
ENDBRANCH  23  26
ENDBRANCH  22  23
ENDBRANCH   1  22
TORSDOF 11
ENDMDL
MODEL 6
REMARK VINA RESULT:      -7.8      3.859     10.915
REMARK  11 active torsions:
REMARK  status: ('A' for Active; 'I' for Inactive)
REMARK    1  A    between atoms: C_5  and  C_6 
REMARK    2  A    between atoms: C_6  and  N_7 
REMARK    3  A    between atoms: N_7  and  C_10 
REMARK    4  A    between atoms: C_10  and  C_11 
REMARK    5  A    between atoms: C_13  and  O_14 
REMARK    6  A    between atoms: C_16  and  O_17 
REMARK    7  A    between atoms: O_17  and  C_18 
REMARK    8  A    between atoms: C_18  and  C_19 
REMARK    9  A    between atoms: C_19  and  O_20 
REMARK   10  A    between atoms: C_19  and  C_21 
REMARK   11  A    between atoms: C_21  and  N_22 
ROOT
HETATM    1  C   UNL     1       7.482  32.339  62.322  1.00  0.00    -0.030 A 
HETATM    2  C   UNL     1       6.083  32.286  62.207  1.00  0.00     0.048 A 
HETATM    3  C   UNL     1       5.261  32.679  63.272  1.00  0.00     0.102 A 
HETATM    4  C   UNL     1       5.841  33.124  64.478  1.00  0.00     0.102 A 
HETATM    5  C   UNL     1       7.230  33.146  64.607  1.00  0.00     0.040 A 
HETATM    6  C   UNL     1       8.045  32.759  63.535  1.00  0.00     0.012 A 
ENDROOT
BRANCH   4   7
HETATM    7  O   UNL     1       4.957  33.535  65.439  1.00  0.00    -0.346 OA
BRANCH   7   8
HETATM    8  C   UNL     1       5.280  34.655  66.253  1.00  0.00     0.209 C 
BRANCH   8   9
HETATM    9  C   UNL     1       5.307  34.175  67.711  1.00  0.00     0.168 C 
BRANCH   9  10
HETATM   10  O   UNL     1       4.014  34.254  68.331  1.00  0.00    -0.392 OA
HETATM   11  H   UNL     1       3.791  35.201  68.448  1.00  0.00     0.210 HD
ENDBRANCH   9  10
BRANCH   9  12
HETATM   12  C   UNL     1       6.286  35.007  68.566  1.00  0.00     0.268 C 
BRANCH  12  13
HETATM   13  N   UNL     1       6.154  34.576  70.029  1.00  0.00    -0.067 N 
HETATM   14  H   UNL     1       5.130  34.608  70.195  1.00  0.00     0.280 HD
HETATM   15  C   UNL     1       6.618  33.146  70.258  1.00  0.00     0.245 C 
HETATM   16  C   UNL     1       6.259  32.651  71.658  1.00  0.00     0.101 C 
HETATM   17  S   UNL     1       7.065  33.637  72.952  1.00  0.00    -0.166 SA
HETATM   18  C   UNL     1       6.487  35.279  72.432  1.00  0.00     0.101 C 
HETATM   19  C   UNL     1       6.818  35.569  70.968  1.00  0.00     0.245 C 
ENDBRANCH  12  13
ENDBRANCH   9  12
ENDBRANCH   8   9
ENDBRANCH   7   8
ENDBRANCH   4   7
BRANCH   3  20
HETATM   20  O   UNL     1       3.888  32.667  63.247  1.00  0.00    -0.353 OA
HETATM   21  C   UNL     1       3.227  33.581  62.381  1.00  0.00     0.210 C 
ENDBRANCH   3  20
BRANCH   1  22
HETATM   22  C   UNL     1       8.363  31.948  61.165  1.00  0.00     0.271 C 
BRANCH  22  23
HETATM   23  N   UNL     1       7.793  30.827  60.394  1.00  0.00    -0.066 N 
HETATM   24  H   UNL     1       6.960  30.436  60.855  1.00  0.00     0.277 HD
HETATM   25  H   UNL     1       8.437  30.020  60.362  1.00  0.00     0.277 HD
BRANCH  23  26
HETATM   26  C   UNL     1       7.447  31.119  58.961  1.00  0.00     0.293 C 
BRANCH  26  27
HETATM   27  C   UNL     1       7.185  29.842  58.215  1.00  0.00     0.077 A 
HETATM   28  C   UNL     1       6.062  29.687  57.418  1.00  0.00     0.145 A 
HETATM   29  N   UNL     1       5.830  28.556  56.721  1.00  0.00    -0.262 NA
HETATM   30  C   UNL     1       6.754  27.569  56.830  1.00  0.00     0.048 A 
HETATM   31  C   UNL     1       6.524  26.302  56.068  1.00  0.00     0.072 C 
HETATM   32  C   UNL     1       7.881  27.729  57.627  1.00  0.00     0.143 A 
HETATM   33  N   UNL     1       8.130  28.864  58.336  1.00  0.00    -0.260 NA
ENDBRANCH  26  27
ENDBRANCH  23  26
ENDBRANCH  22  23
ENDBRANCH   1  22
TORSDOF 11
ENDMDL
MODEL 7
REMARK VINA RESULT:      -7.6      4.430      7.378
REMARK  11 active torsions:
REMARK  status: ('A' for Active; 'I' for Inactive)
REMARK    1  A    between atoms: C_5  and  C_6 
REMARK    2  A    between atoms: C_6  and  N_7 
REMARK    3  A    between atoms: N_7  and  C_10 
REMARK    4  A    between atoms: C_10  and  C_11 
REMARK    5  A    between atoms: C_13  and  O_14 
REMARK    6  A    between atoms: C_16  and  O_17 
REMARK    7  A    between atoms: O_17  and  C_18 
REMARK    8  A    between atoms: C_18  and  C_19 
REMARK    9  A    between atoms: C_19  and  O_20 
REMARK   10  A    between atoms: C_19  and  C_21 
REMARK   11  A    between atoms: C_21  and  N_22 
ROOT
HETATM    1  C   UNL     1       8.114  31.584  59.374  1.00  0.00    -0.030 A 
HETATM    2  C   UNL     1       6.796  31.470  58.901  1.00  0.00     0.048 A 
HETATM    3  C   UNL     1       6.452  30.479  57.971  1.00  0.00     0.102 A 
HETATM    4  C   UNL     1       7.439  29.591  57.495  1.00  0.00     0.102 A 
HETATM    5  C   UNL     1       8.756  29.724  57.937  1.00  0.00     0.040 A 
HETATM    6  C   UNL     1       9.090  30.712  58.872  1.00  0.00     0.012 A 
ENDROOT
BRANCH   4   7
HETATM    7  O   UNL     1       6.995  28.627  56.629  1.00  0.00    -0.346 OA
BRANCH   7   8
HETATM    8  C   UNL     1       6.770  27.308  57.110  1.00  0.00     0.209 C 
BRANCH   8   9
HETATM    9  C   UNL     1       5.548  26.747  56.368  1.00  0.00     0.168 C 
BRANCH   9  10
HETATM   10  O   UNL     1       4.331  27.398  56.764  1.00  0.00    -0.392 OA
HETATM   11  H   UNL     1       3.646  27.196  56.094  1.00  0.00     0.210 HD
ENDBRANCH   9  10
BRANCH   9  12
HETATM   12  C   UNL     1       5.373  25.236  56.623  1.00  0.00     0.268 C 
BRANCH  12  13
HETATM   13  N   UNL     1       5.897  24.467  55.408  1.00  0.00    -0.067 N 
HETATM   14  H   UNL     1       5.201  23.707  55.288  1.00  0.00     0.280 HD
HETATM   15  C   UNL     1       5.891  25.307  54.140  1.00  0.00     0.245 C 
HETATM   16  C   UNL     1       6.183  24.465  52.899  1.00  0.00     0.101 C 
HETATM   17  S   UNL     1       7.831  23.706  52.971  1.00  0.00    -0.166 SA
HETATM   18  C   UNL     1       7.668  22.870  54.575  1.00  0.00     0.101 C 
HETATM   19  C   UNL     1       7.249  23.832  55.686  1.00  0.00     0.245 C 
ENDBRANCH  12  13
ENDBRANCH   9  12
ENDBRANCH   8   9
ENDBRANCH   7   8
ENDBRANCH   4   7
BRANCH   3  20
HETATM   20  O   UNL     1       5.192  30.289  57.460  1.00  0.00    -0.353 OA
HETATM   21  C   UNL     1       4.106  30.951  58.096  1.00  0.00     0.210 C 
ENDBRANCH   3  20
BRANCH   1  22
HETATM   22  C   UNL     1       8.474  32.627  60.398  1.00  0.00     0.271 C 
BRANCH  22  23
HETATM   23  N   UNL     1       9.140  32.036  61.575  1.00  0.00    -0.066 N 
HETATM   24  H   UNL     1       9.535  32.761  62.189  1.00  0.00     0.277 HD
HETATM   25  H   UNL     1       9.971  31.485  61.305  1.00  0.00     0.277 HD
BRANCH  23  26
HETATM   26  C   UNL     1       8.302  31.113  62.413  1.00  0.00     0.293 C 
BRANCH  26  27
HETATM   27  C   UNL     1       7.284  31.894  63.194  1.00  0.00     0.077 A 
HETATM   28  C   UNL     1       5.925  31.660  63.049  1.00  0.00     0.145 A 
HETATM   29  N   UNL     1       5.003  32.335  63.764  1.00  0.00    -0.262 NA
HETATM   30  C   UNL     1       5.465  33.257  64.644  1.00  0.00     0.048 A 
HETATM   31  C   UNL     1       4.465  34.022  65.453  1.00  0.00     0.072 C 
HETATM   32  C   UNL     1       6.829  33.486  64.791  1.00  0.00     0.143 A 
HETATM   33  N   UNL     1       7.771  32.814  64.077  1.00  0.00    -0.260 NA
ENDBRANCH  26  27
ENDBRANCH  23  26
ENDBRANCH  22  23
ENDBRANCH   1  22
TORSDOF 11
ENDMDL
MODEL 8
REMARK VINA RESULT:      -7.6      3.687      5.760
REMARK  11 active torsions:
REMARK  status: ('A' for Active; 'I' for Inactive)
REMARK    1  A    between atoms: C_5  and  C_6 
REMARK    2  A    between atoms: C_6  and  N_7 
REMARK    3  A    between atoms: N_7  and  C_10 
REMARK    4  A    between atoms: C_10  and  C_11 
REMARK    5  A    between atoms: C_13  and  O_14 
REMARK    6  A    between atoms: C_16  and  O_17 
REMARK    7  A    between atoms: O_17  and  C_18 
REMARK    8  A    between atoms: C_18  and  C_19 
REMARK    9  A    between atoms: C_19  and  O_20 
REMARK   10  A    between atoms: C_19  and  C_21 
REMARK   11  A    between atoms: C_21  and  N_22 
ROOT
HETATM    1  C   UNL     1       6.537  33.272  64.053  1.00  0.00    -0.030 A 
HETATM    2  C   UNL     1       5.752  33.081  62.903  1.00  0.00     0.048 A 
HETATM    3  C   UNL     1       6.247  32.354  61.811  1.00  0.00     0.102 A 
HETATM    4  C   UNL     1       7.549  31.815  61.859  1.00  0.00     0.102 A 
HETATM    5  C   UNL     1       8.343  32.032  62.986  1.00  0.00     0.040 A 
HETATM    6  C   UNL     1       7.839  32.753  64.076  1.00  0.00     0.012 A 
ENDROOT
BRANCH   4   7
HETATM    7  O   UNL     1       7.921  31.078  60.767  1.00  0.00    -0.346 OA
BRANCH   7   8
HETATM    8  C   UNL     1       9.298  30.981  60.426  1.00  0.00     0.209 C 
BRANCH   8   9
HETATM    9  C   UNL     1       9.399  31.019  58.894  1.00  0.00     0.168 C 
BRANCH   9  10
HETATM   10  O   UNL     1      10.155  32.149  58.430  1.00  0.00    -0.392 OA
HETATM   11  H   UNL     1      10.742  32.441  59.157  1.00  0.00     0.210 HD
ENDBRANCH   9  10
BRANCH   9  12
HETATM   12  C   UNL     1       8.006  31.087  58.234  1.00  0.00     0.268 C 
BRANCH  12  13
HETATM   13  N   UNL     1       7.503  29.662  57.995  1.00  0.00    -0.067 N 
HETATM   14  H   UNL     1       7.337  29.303  58.954  1.00  0.00     0.280 HD
HETATM   15  C   UNL     1       6.176  29.630  57.252  1.00  0.00     0.245 C 
HETATM   16  C   UNL     1       5.569  28.228  57.234  1.00  0.00     0.101 C 
HETATM   17  S   UNL     1       6.638  27.040  56.371  1.00  0.00    -0.166 SA
HETATM   18  C   UNL     1       8.163  27.319  57.318  1.00  0.00     0.101 C 
HETATM   19  C   UNL     1       8.565  28.794  57.341  1.00  0.00     0.245 C 
ENDBRANCH  12  13
ENDBRANCH   9  12
ENDBRANCH   8   9
ENDBRANCH   7   8
ENDBRANCH   4   7
BRANCH   3  20
HETATM   20  O   UNL     1       5.550  32.112  60.653  1.00  0.00    -0.353 OA
HETATM   21  C   UNL     1       5.025  33.226  59.942  1.00  0.00     0.210 C 
ENDBRANCH   3  20
BRANCH   1  22
HETATM   22  C   UNL     1       5.993  34.025  65.237  1.00  0.00     0.271 C 
BRANCH  22  23
HETATM   23  N   UNL     1       4.635  33.573  65.600  1.00  0.00    -0.066 N 
HETATM   24  H   UNL     1       4.628  33.097  66.512  1.00  0.00     0.277 HD
HETATM   25  H   UNL     1       4.293  32.842  64.956  1.00  0.00     0.277 HD
BRANCH  23  26
HETATM   26  C   UNL     1       3.567  34.630  65.609  1.00  0.00     0.293 C 
BRANCH  26  27
HETATM   27  C   UNL     1       3.133  34.946  64.207  1.00  0.00     0.077 A 
HETATM   28  C   UNL     1       3.528  36.115  63.573  1.00  0.00     0.145 A 
HETATM   29  N   UNL     1       3.169  36.397  62.305  1.00  0.00    -0.262 NA
HETATM   30  C   UNL     1       2.402  35.479  61.667  1.00  0.00     0.048 A 
HETATM   31  C   UNL     1       1.987  35.765  60.257  1.00  0.00     0.072 C 
HETATM   32  C   UNL     1       2.011  34.306  62.303  1.00  0.00     0.143 A 
HETATM   33  N   UNL     1       2.365  34.007  63.582  1.00  0.00    -0.260 NA
ENDBRANCH  26  27
ENDBRANCH  23  26
ENDBRANCH  22  23
ENDBRANCH   1  22
TORSDOF 11
ENDMDL
MODEL 9
REMARK VINA RESULT:      -7.6      5.822     12.634
REMARK  11 active torsions:
REMARK  status: ('A' for Active; 'I' for Inactive)
REMARK    1  A    between atoms: C_5  and  C_6 
REMARK    2  A    between atoms: C_6  and  N_7 
REMARK    3  A    between atoms: N_7  and  C_10 
REMARK    4  A    between atoms: C_10  and  C_11 
REMARK    5  A    between atoms: C_13  and  O_14 
REMARK    6  A    between atoms: C_16  and  O_17 
REMARK    7  A    between atoms: O_17  and  C_18 
REMARK    8  A    between atoms: C_18  and  C_19 
REMARK    9  A    between atoms: C_19  and  O_20 
REMARK   10  A    between atoms: C_19  and  C_21 
REMARK   11  A    between atoms: C_21  and  N_22 
ROOT
HETATM    1  C   UNL     1       5.614  28.623  55.592  1.00  0.00    -0.030 A 
HETATM    2  C   UNL     1       6.474  27.636  56.104  1.00  0.00     0.048 A 
HETATM    3  C   UNL     1       7.321  27.914  57.186  1.00  0.00     0.102 A 
HETATM    4  C   UNL     1       7.321  29.201  57.764  1.00  0.00     0.102 A 
HETATM    5  C   UNL     1       6.493  30.192  57.236  1.00  0.00     0.040 A 
HETATM    6  C   UNL     1       5.644  29.904  56.160  1.00  0.00     0.012 A 
ENDROOT
BRANCH   4   7
HETATM    7  O   UNL     1       8.144  29.358  58.847  1.00  0.00    -0.346 OA
BRANCH   7   8
HETATM    8  C   UNL     1       9.312  30.159  58.725  1.00  0.00     0.209 C 
BRANCH   8   9
HETATM    9  C   UNL     1       9.070  31.454  59.514  1.00  0.00     0.168 C 
BRANCH   9  10
HETATM   10  O   UNL     1      10.212  32.325  59.485  1.00  0.00    -0.392 OA
HETATM   11  H   UNL     1      10.382  32.573  58.553  1.00  0.00     0.210 HD
ENDBRANCH   9  10
BRANCH   9  12
HETATM   12  C   UNL     1       8.741  31.165  60.993  1.00  0.00     0.268 C 
BRANCH  12  13
HETATM   13  N   UNL     1       7.235  31.335  61.206  1.00  0.00    -0.067 N 
HETATM   14  H   UNL     1       6.856  30.394  60.987  1.00  0.00     0.280 HD
HETATM   15  C   UNL     1       6.884  31.652  62.651  1.00  0.00     0.245 C 
HETATM   16  C   UNL     1       5.378  31.579  62.899  1.00  0.00     0.101 C 
HETATM   17  S   UNL     1       4.470  32.794  61.900  1.00  0.00    -0.166 SA
HETATM   18  C   UNL     1       5.110  32.325  60.266  1.00  0.00     0.101 C 
HETATM   19  C   UNL     1       6.638  32.328  60.223  1.00  0.00     0.245 C 
ENDBRANCH  12  13
ENDBRANCH   9  12
ENDBRANCH   8   9
ENDBRANCH   7   8
ENDBRANCH   4   7
BRANCH   3  20
HETATM   20  O   UNL     1       8.186  27.012  57.754  1.00  0.00    -0.353 OA
HETATM   21  C   UNL     1       7.916  25.627  57.582  1.00  0.00     0.210 C 
ENDBRANCH   3  20
BRANCH   1  22
HETATM   22  C   UNL     1       4.682  28.313  54.452  1.00  0.00     0.271 C 
BRANCH  22  23
HETATM   23  N   UNL     1       5.414  27.889  53.242  1.00  0.00    -0.066 N 
HETATM   24  H   UNL     1       6.429  27.863  53.405  1.00  0.00     0.277 HD
HETATM   25  H   UNL     1       5.322  28.581  52.481  1.00  0.00     0.277 HD
BRANCH  23  26
HETATM   26  C   UNL     1       4.996  26.576  52.644  1.00  0.00     0.293 C 
BRANCH  26  27
HETATM   27  C   UNL     1       6.000  25.508  52.974  1.00  0.00     0.077 A 
HETATM   28  C   UNL     1       5.842  24.681  54.075  1.00  0.00     0.145 A 
HETATM   29  N   UNL     1       6.720  23.702  54.366  1.00  0.00    -0.262 NA
HETATM   30  C   UNL     1       7.773  23.553  53.524  1.00  0.00     0.048 A 
HETATM   31  C   UNL     1       8.766  22.473  53.821  1.00  0.00     0.072 C 
HETATM   32  C   UNL     1       7.927  24.381  52.418  1.00  0.00     0.143 A 
HETATM   33  N   UNL     1       7.049  25.374  52.111  1.00  0.00    -0.260 NA
ENDBRANCH  26  27
ENDBRANCH  23  26
ENDBRANCH  22  23
ENDBRANCH   1  22
TORSDOF 11
ENDMDL
MODEL 10
REMARK VINA RESULT:      -7.4      5.013     12.063
REMARK  11 active torsions:
REMARK  status: ('A' for Active; 'I' for Inactive)
REMARK    1  A    between atoms: C_5  and  C_6 
REMARK    2  A    between atoms: C_6  and  N_7 
REMARK    3  A    between atoms: N_7  and  C_10 
REMARK    4  A    between atoms: C_10  and  C_11 
REMARK    5  A    between atoms: C_13  and  O_14 
REMARK    6  A    between atoms: C_16  and  O_17 
REMARK    7  A    between atoms: O_17  and  C_18 
REMARK    8  A    between atoms: C_18  and  C_19 
REMARK    9  A    between atoms: C_19  and  O_20 
REMARK   10  A    between atoms: C_19  and  C_21 
REMARK   11  A    between atoms: C_21  and  N_22 
ROOT
HETATM    1  C   UNL     1       7.716  28.581  57.455  1.00  0.00    -0.030 A 
HETATM    2  C   UNL     1       8.373  29.698  58.000  1.00  0.00     0.048 A 
HETATM    3  C   UNL     1       7.657  30.850  58.351  1.00  0.00     0.102 A 
HETATM    4  C   UNL     1       6.262  30.897  58.149  1.00  0.00     0.102 A 
HETATM    5  C   UNL     1       5.612  29.803  57.577  1.00  0.00     0.040 A 
HETATM    6  C   UNL     1       6.333  28.653  57.235  1.00  0.00     0.012 A 
ENDROOT
BRANCH   4   7
HETATM    7  O   UNL     1       5.645  32.044  58.572  1.00  0.00    -0.346 OA
BRANCH   7   8
HETATM    8  C   UNL     1       4.229  32.071  58.696  1.00  0.00     0.209 C 
BRANCH   8   9
HETATM    9  C   UNL     1       3.899  32.354  60.169  1.00  0.00     0.168 C 
BRANCH   9  10
HETATM   10  O   UNL     1       2.503  32.628  60.366  1.00  0.00    -0.392 OA
HETATM   11  H   UNL     1       2.338  33.560  60.117  1.00  0.00     0.210 HD
ENDBRANCH   9  10
BRANCH   9  12
HETATM   12  C   UNL     1       4.692  33.563  60.707  1.00  0.00     0.268 C 
BRANCH  12  13
HETATM   13  N   UNL     1       5.392  33.156  62.006  1.00  0.00    -0.067 N 
HETATM   14  H   UNL     1       5.210  32.137  62.065  1.00  0.00     0.280 HD
HETATM   15  C   UNL     1       6.898  33.357  61.942  1.00  0.00     0.245 C 
HETATM   16  C   UNL     1       7.606  32.727  63.141  1.00  0.00     0.101 C 
HETATM   17  S   UNL     1       7.080  33.480  64.708  1.00  0.00    -0.166 SA
HETATM   18  C   UNL     1       5.288  33.243  64.528  1.00  0.00     0.101 C 
HETATM   19  C   UNL     1       4.760  33.822  63.216  1.00  0.00     0.245 C 
ENDBRANCH  12  13
ENDBRANCH   9  12
ENDBRANCH   8   9
ENDBRANCH   7   8
ENDBRANCH   4   7
BRANCH   3  20
HETATM   20  O   UNL     1       8.213  31.981  58.895  1.00  0.00    -0.353 OA
HETATM   21  C   UNL     1       9.388  31.836  59.684  1.00  0.00     0.210 C 
ENDBRANCH   3  20
BRANCH   1  22
HETATM   22  C   UNL     1       8.482  27.333  57.108  1.00  0.00     0.271 C 
BRANCH  22  23
HETATM   23  N   UNL     1       7.586  26.180  56.889  1.00  0.00    -0.066 N 
HETATM   24  H   UNL     1       7.340  26.076  55.896  1.00  0.00     0.277 HD
HETATM   25  H   UNL     1       6.667  26.323  57.339  1.00  0.00     0.277 HD
BRANCH  23  26
HETATM   26  C   UNL     1       8.078  24.855  57.397  1.00  0.00     0.293 C 
BRANCH  26  27
HETATM   27  C   UNL     1       7.997  23.817  56.314  1.00  0.00     0.077 A 
HETATM   28  C   UNL     1       7.511  24.125  55.052  1.00  0.00     0.145 A 
HETATM   29  N   UNL     1       7.459  23.211  54.064  1.00  0.00    -0.262 NA
HETATM   30  C   UNL     1       7.911  21.966  54.356  1.00  0.00     0.048 A 
HETATM   31  C   UNL     1       7.866  20.929  53.278  1.00  0.00     0.072 C 
HETATM   32  C   UNL     1       8.401  21.661  55.621  1.00  0.00     0.143 A 
HETATM   33  N   UNL     1       8.461  22.573  56.629  1.00  0.00    -0.260 NA
ENDBRANCH  26  27
ENDBRANCH  23  26
ENDBRANCH  22  23
ENDBRANCH   1  22
TORSDOF 11
ENDMDL
