MODEL 1
REMARK VINA RESULT:      -9.4      0.000      0.000
REMARK  5 active torsions:
REMARK  status: ('A' for Active; 'I' for Inactive)
REMARK    1  A    between atoms: C_2  and  C_3 
REMARK    2  A    between atoms: C_7  and  N_8 
REMARK    3  A    between atoms: C_13  and  N_14 
REMARK       I    between atoms: N_14  and  C_15 
REMARK    4  A    between atoms: C_15  and  C_16 
REMARK       I    between atoms: C_16  and  N_17 
REMARK    5  A    between atoms: N_17  and  C_18 
ROOT
HETATM    1  N   UNL     1       7.532  27.573  55.880  1.00  0.00    -0.045 N 
HETATM    2  N   UNL     1       8.186  27.787  57.056  1.00  0.00    -0.156 NA
HETATM    3  C   UNL     1       7.956  29.075  57.331  1.00  0.00     0.055 A 
HETATM    4  C   UNL     1       8.515  29.700  58.557  1.00  0.00     0.072 C 
HETATM    5  C   UNL     1       7.152  29.692  56.342  1.00  0.00     0.079 A 
HETATM    6  C   UNL     1       6.891  28.711  55.414  1.00  0.00     0.152 A 
ENDROOT
BRANCH   6   7
HETATM    7  N   UNL     1       6.155  28.790  54.237  1.00  0.00    -0.303 N 
HETATM    8  C   UNL     1       4.749  28.552  54.138  1.00  0.00     0.315 C 
HETATM    9  O   UNL     1       4.054  28.225  55.085  1.00  0.00    -0.262 OA
HETATM   10  H   UNL     1       6.651  29.048  53.375  1.00  0.00     0.171 HD
BRANCH   8  11
HETATM   11  C   UNL     1       4.162  28.752  52.730  1.00  0.00     0.310 C 
HETATM   12  N   UNL     1       4.760  27.989  51.748  1.00  0.00    -0.348 N 
HETATM   13  H   UNL     1       5.582  27.449  52.010  1.00  0.00     0.163 HD
HETATM   14  O   UNL     1       3.238  29.540  52.585  1.00  0.00    -0.262 OA
BRANCH  12  15
HETATM   15  C   UNL     1       4.412  28.082  50.335  1.00  0.00     0.085 C 
HETATM   16  C   UNL     1       3.947  26.708  49.835  1.00  0.00     0.034 C 
HETATM   17  C   UNL     1       3.618  26.667  48.329  1.00  0.00    -0.045 C 
HETATM   18  C   UNL     1       2.280  27.374  48.047  1.00  0.00     0.015 C 
HETATM   19  C   UNL     1       3.445  25.192  47.903  1.00  0.00     0.015 C 
HETATM   20  C   UNL     1       4.778  27.278  47.506  1.00  0.00     0.013 C 
HETATM   21  C   UNL     1       5.361  28.608  48.013  1.00  0.00    -0.016 C 
HETATM   22  C   UNL     1       5.616  28.578  49.525  1.00  0.00     0.029 C 
HETATM   23  C   UNL     1       4.545  29.831  47.594  1.00  0.00     0.010 C 
ENDBRANCH  12  15
ENDBRANCH   8  11
ENDBRANCH   6   7
BRANCH   1  24
HETATM   24  C   UNL     1       7.554  26.312  55.270  1.00  0.00     0.732 A 
HETATM   25  N   UNL     1       7.566  25.303  56.182  1.00  0.00    -0.152 N 
HETATM   26  C   UNL     1       7.595  24.002  55.796  1.00  0.00     0.268 A 
HETATM   27  H   UNL     1       7.558  25.512  57.175  1.00  0.00     0.188 HD
HETATM   28  C   UNL     1       7.606  23.774  54.321  1.00  0.00     0.035 A 
HETATM   29  O   UNL     1       7.610  23.086  56.608  1.00  0.00    -0.267 OA
HETATM   30  C   UNL     1       7.590  24.862  53.519  1.00  0.00     0.061 A 
HETATM   31  N   UNL     1       7.566  26.165  53.984  1.00  0.00    -0.067 NA
HETATM   32  C   UNL     1       7.571  24.771  52.012  1.00  0.00     0.072 C 
BRANCH  28  33
HETATM   33  C   UNL     1       7.677  22.333  53.886  1.00  0.00     0.042 C 
HETATM   34  C   UNL     1       9.111  21.869  53.674  1.00  0.00     0.010 C 
ENDBRANCH  28  33
ENDBRANCH   1  24
TORSDOF 5
ENDMDL
MODEL 2
REMARK VINA RESULT:      -9.0      2.749      8.441
REMARK  5 active torsions:
REMARK  status: ('A' for Active; 'I' for Inactive)
REMARK    1  A    between atoms: C_2  and  C_3 
REMARK    2  A    between atoms: C_7  and  N_8 
REMARK    3  A    between atoms: C_13  and  N_14 
REMARK       I    between atoms: N_14  and  C_15 
REMARK    4  A    between atoms: C_15  and  C_16 
REMARK       I    between atoms: C_16  and  N_17 
REMARK    5  A    between atoms: N_17  and  C_18 
ROOT
HETATM    1  N   UNL     1       6.340  26.350  53.852  1.00  0.00    -0.045 N 
HETATM    2  N   UNL     1       5.774  26.316  52.612  1.00  0.00    -0.156 NA
HETATM    3  C   UNL     1       5.213  27.522  52.474  1.00  0.00     0.055 A 
HETATM    4  C   UNL     1       4.483  27.880  51.230  1.00  0.00     0.072 C 
HETATM    5  C   UNL     1       5.419  28.336  53.614  1.00  0.00     0.079 A 
HETATM    6  C   UNL     1       6.143  27.564  54.492  1.00  0.00     0.152 A 
ENDROOT
BRANCH   6   7
HETATM    7  N   UNL     1       6.600  27.880  55.767  1.00  0.00    -0.303 N 
HETATM    8  C   UNL     1       6.594  29.193  56.332  1.00  0.00     0.315 C 
HETATM    9  O   UNL     1       6.207  30.182  55.732  1.00  0.00    -0.262 OA
HETATM   10  H   UNL     1       6.960  27.117  56.353  1.00  0.00     0.171 HD
BRANCH   8  11
HETATM   11  C   UNL     1       7.109  29.271  57.780  1.00  0.00     0.310 C 
HETATM   12  N   UNL     1       6.909  30.490  58.394  1.00  0.00    -0.348 N 
HETATM   13  H   UNL     1       6.541  31.247  57.821  1.00  0.00     0.163 HD
HETATM   14  O   UNL     1       7.635  28.281  58.270  1.00  0.00    -0.262 OA
BRANCH  12  15
HETATM   15  C   UNL     1       7.391  30.803  59.734  1.00  0.00     0.085 C 
HETATM   16  C   UNL     1       6.664  32.050  60.255  1.00  0.00     0.034 C 
HETATM   17  C   UNL     1       7.144  32.521  61.644  1.00  0.00    -0.045 C 
HETATM   18  C   UNL     1       6.617  31.584  62.746  1.00  0.00     0.015 C 
HETATM   19  C   UNL     1       6.550  33.920  61.921  1.00  0.00     0.015 C 
HETATM   20  C   UNL     1       8.687  32.633  61.671  1.00  0.00     0.013 C 
HETATM   21  C   UNL     1       9.478  31.459  61.069  1.00  0.00    -0.016 C 
HETATM   22  C   UNL     1       8.907  31.025  59.712  1.00  0.00     0.029 C 
HETATM   23  C   UNL     1       9.641  30.277  62.026  1.00  0.00     0.010 C 
ENDBRANCH  12  15
ENDBRANCH   8  11
ENDBRANCH   6   7
BRANCH   1  24
HETATM   24  C   UNL     1       7.026  25.237  54.353  1.00  0.00     0.732 A 
HETATM   25  N   UNL     1       7.047  24.206  53.466  1.00  0.00    -0.152 N 
HETATM   26  C   UNL     1       7.657  23.031  53.762  1.00  0.00     0.268 A 
HETATM   27  H   UNL     1       6.597  24.303  52.560  1.00  0.00     0.188 HD
HETATM   28  C   UNL     1       8.296  22.965  55.109  1.00  0.00     0.035 A 
HETATM   29  O   UNL     1       7.679  22.095  52.972  1.00  0.00    -0.267 OA
HETATM   30  C   UNL     1       8.207  24.059  55.899  1.00  0.00     0.061 A 
HETATM   31  N   UNL     1       7.562  25.226  55.532  1.00  0.00    -0.067 NA
HETATM   32  C   UNL     1       8.831  24.133  57.271  1.00  0.00     0.072 C 
BRANCH  28  33
HETATM   33  C   UNL     1       8.942  21.649  55.459  1.00  0.00     0.042 C 
HETATM   34  C   UNL     1       7.973  20.702  56.153  1.00  0.00     0.010 C 
ENDBRANCH  28  33
ENDBRANCH   1  24
TORSDOF 5
ENDMDL
MODEL 3
REMARK VINA RESULT:      -8.8      4.555      8.579
REMARK  5 active torsions:
REMARK  status: ('A' for Active; 'I' for Inactive)
REMARK    1  A    between atoms: C_2  and  C_3 
REMARK    2  A    between atoms: C_7  and  N_8 
REMARK    3  A    between atoms: C_13  and  N_14 
REMARK       I    between atoms: N_14  and  C_15 
REMARK    4  A    between atoms: C_15  and  C_16 
REMARK       I    between atoms: C_16  and  N_17 
REMARK    5  A    between atoms: N_17  and  C_18 
ROOT
HETATM    1  N   UNL     1       6.749  32.199  60.701  1.00  0.00    -0.045 N 
HETATM    2  N   UNL     1       6.708  32.945  61.841  1.00  0.00    -0.156 NA
HETATM    3  C   UNL     1       7.645  32.399  62.624  1.00  0.00     0.055 A 
HETATM    4  C   UNL     1       7.909  32.943  63.981  1.00  0.00     0.072 C 
HETATM    5  C   UNL     1       8.293  31.309  61.994  1.00  0.00     0.079 A 
HETATM    6  C   UNL     1       7.701  31.193  60.758  1.00  0.00     0.152 A 
ENDROOT
BRANCH   6   7
HETATM    7  N   UNL     1       7.958  30.275  59.745  1.00  0.00    -0.303 N 
HETATM    8  C   UNL     1       8.879  30.484  58.672  1.00  0.00     0.315 C 
HETATM    9  O   UNL     1       9.517  31.512  58.523  1.00  0.00    -0.262 OA
HETATM   10  H   UNL     1       7.460  29.377  59.771  1.00  0.00     0.171 HD
BRANCH   8  11
HETATM   11  C   UNL     1       9.018  29.294  57.706  1.00  0.00     0.310 C 
HETATM   12  N   UNL     1       7.896  28.496  57.616  1.00  0.00    -0.348 N 
HETATM   13  H   UNL     1       7.127  28.696  58.253  1.00  0.00     0.163 HD
HETATM   14  O   UNL     1      10.073  29.146  57.104  1.00  0.00    -0.262 OA
BRANCH  12  15
HETATM   15  C   UNL     1       7.841  27.274  56.822  1.00  0.00     0.085 C 
HETATM   16  C   UNL     1       6.727  27.401  55.773  1.00  0.00     0.034 C 
HETATM   17  C   UNL     1       6.527  26.134  54.916  1.00  0.00    -0.045 C 
HETATM   18  C   UNL     1       7.666  25.988  53.890  1.00  0.00     0.015 C 
HETATM   19  C   UNL     1       5.216  26.286  54.113  1.00  0.00     0.015 C 
HETATM   20  C   UNL     1       6.401  24.885  55.821  1.00  0.00     0.013 C 
HETATM   21  C   UNL     1       7.426  24.749  56.960  1.00  0.00    -0.016 C 
HETATM   22  C   UNL     1       7.598  26.064  57.731  1.00  0.00     0.029 C 
HETATM   23  C   UNL     1       8.768  24.171  56.508  1.00  0.00     0.010 C 
ENDBRANCH  12  15
ENDBRANCH   8  11
ENDBRANCH   6   7
BRANCH   1  24
HETATM   24  C   UNL     1       5.886  32.480  59.634  1.00  0.00     0.732 A 
HETATM   25  N   UNL     1       5.013  33.480  59.931  1.00  0.00    -0.152 N 
HETATM   26  C   UNL     1       4.087  33.901  59.033  1.00  0.00     0.268 A 
HETATM   27  H   UNL     1       5.041  33.928  60.843  1.00  0.00     0.188 HD
HETATM   28  C   UNL     1       4.109  33.196  57.717  1.00  0.00     0.035 A 
HETATM   29  O   UNL     1       3.294  34.797  59.292  1.00  0.00    -0.267 OA
HETATM   30  C   UNL     1       5.028  32.220  57.544  1.00  0.00     0.061 A 
HETATM   31  N   UNL     1       5.942  31.839  58.511  1.00  0.00    -0.067 NA
HETATM   32  C   UNL     1       5.174  31.450  56.255  1.00  0.00     0.072 C 
BRANCH  28  33
HETATM   33  C   UNL     1       3.058  33.633  56.729  1.00  0.00     0.042 C 
HETATM   34  C   UNL     1       3.562  34.736  55.809  1.00  0.00     0.010 C 
ENDBRANCH  28  33
ENDBRANCH   1  24
TORSDOF 5
ENDMDL
MODEL 4
REMARK VINA RESULT:      -8.7      1.935      4.547
REMARK  5 active torsions:
REMARK  status: ('A' for Active; 'I' for Inactive)
REMARK    1  A    between atoms: C_2  and  C_3 
REMARK    2  A    between atoms: C_7  and  N_8 
REMARK    3  A    between atoms: C_13  and  N_14 
REMARK       I    between atoms: N_14  and  C_15 
REMARK    4  A    between atoms: C_15  and  C_16 
REMARK       I    between atoms: C_16  and  N_17 
REMARK    5  A    between atoms: N_17  and  C_18 
ROOT
HETATM    1  N   UNL     1       7.326  25.412  56.308  1.00  0.00    -0.045 N 
HETATM    2  N   UNL     1       8.011  24.475  57.022  1.00  0.00    -0.156 NA
HETATM    3  C   UNL     1       7.830  23.342  56.334  1.00  0.00     0.055 A 
HETATM    4  C   UNL     1       8.433  22.068  56.803  1.00  0.00     0.072 C 
HETATM    5  C   UNL     1       7.037  23.544  55.179  1.00  0.00     0.079 A 
HETATM    6  C   UNL     1       6.719  24.882  55.180  1.00  0.00     0.152 A 
ENDROOT
BRANCH   6   7
HETATM    7  N   UNL     1       5.949  25.601  54.272  1.00  0.00    -0.303 N 
HETATM    8  C   UNL     1       6.476  26.431  53.234  1.00  0.00     0.315 C 
HETATM    9  O   UNL     1       7.669  26.613  53.059  1.00  0.00    -0.262 OA
HETATM   10  H   UNL     1       4.926  25.526  54.341  1.00  0.00     0.171 HD
BRANCH   8  11
HETATM   11  C   UNL     1       5.414  27.081  52.331  1.00  0.00     0.310 C 
HETATM   12  N   UNL     1       5.582  26.837  50.983  1.00  0.00    -0.348 N 
HETATM   13  H   UNL     1       6.428  26.348  50.698  1.00  0.00     0.163 HD
HETATM   14  O   UNL     1       4.524  27.740  52.851  1.00  0.00    -0.262 OA
BRANCH  12  15
HETATM   15  C   UNL     1       4.736  27.423  49.950  1.00  0.00     0.085 C 
HETATM   16  C   UNL     1       4.100  26.300  49.119  1.00  0.00     0.034 C 
HETATM   17  C   UNL     1       3.235  26.802  47.945  1.00  0.00    -0.045 C 
HETATM   18  C   UNL     1       1.898  27.367  48.459  1.00  0.00     0.015 C 
HETATM   19  C   UNL     1       2.896  25.600  47.035  1.00  0.00     0.015 C 
HETATM   20  C   UNL     1       4.016  27.842  47.106  1.00  0.00     0.013 C 
HETATM   21  C   UNL     1       4.764  28.938  47.883  1.00  0.00    -0.016 C 
HETATM   22  C   UNL     1       5.561  28.359  49.059  1.00  0.00     0.029 C 
HETATM   23  C   UNL     1       3.868  30.100  48.316  1.00  0.00     0.010 C 
ENDBRANCH  12  15
ENDBRANCH   8  11
ENDBRANCH   6   7
BRANCH   1  24
HETATM   24  C   UNL     1       7.284  26.745  56.736  1.00  0.00     0.732 A 
HETATM   25  N   UNL     1       8.529  27.266  56.911  1.00  0.00    -0.152 N 
HETATM   26  C   UNL     1       8.708  28.544  57.329  1.00  0.00     0.268 A 
HETATM   27  H   UNL     1       9.350  26.696  56.731  1.00  0.00     0.188 HD
HETATM   28  C   UNL     1       7.455  29.318  57.572  1.00  0.00     0.035 A 
HETATM   29  O   UNL     1       9.824  29.021  57.493  1.00  0.00    -0.267 OA
HETATM   30  C   UNL     1       6.279  28.687  57.360  1.00  0.00     0.061 A 
HETATM   31  N   UNL     1       6.171  27.375  56.936  1.00  0.00    -0.067 NA
HETATM   32  C   UNL     1       4.941  29.363  57.541  1.00  0.00     0.072 C 
BRANCH  28  33
HETATM   33  C   UNL     1       7.648  30.726  58.073  1.00  0.00     0.042 C 
HETATM   34  C   UNL     1       7.874  30.771  59.578  1.00  0.00     0.010 C 
ENDBRANCH  28  33
ENDBRANCH   1  24
TORSDOF 5
ENDMDL
MODEL 5
REMARK VINA RESULT:      -8.5      2.332      4.985
REMARK  5 active torsions:
REMARK  status: ('A' for Active; 'I' for Inactive)
REMARK    1  A    between atoms: C_2  and  C_3 
REMARK    2  A    between atoms: C_7  and  N_8 
REMARK    3  A    between atoms: C_13  and  N_14 
REMARK       I    between atoms: N_14  and  C_15 
REMARK    4  A    between atoms: C_15  and  C_16 
REMARK       I    between atoms: C_16  and  N_17 
REMARK    5  A    between atoms: N_17  and  C_18 
ROOT
HETATM    1  N   UNL     1       7.424  24.880  54.388  1.00  0.00    -0.045 N 
HETATM    2  N   UNL     1       8.069  23.880  55.052  1.00  0.00    -0.156 NA
HETATM    3  C   UNL     1       8.424  23.022  54.090  1.00  0.00     0.055 A 
HETATM    4  C   UNL     1       9.162  21.775  54.421  1.00  0.00     0.072 C 
HETATM    5  C   UNL     1       8.018  23.465  52.808  1.00  0.00     0.079 A 
HETATM    6  C   UNL     1       7.373  24.661  53.020  1.00  0.00     0.152 A 
ENDROOT
BRANCH   6   7
HETATM    7  N   UNL     1       6.771  25.508  52.095  1.00  0.00    -0.303 N 
HETATM    8  C   UNL     1       5.400  25.435  51.695  1.00  0.00     0.315 C 
HETATM    9  O   UNL     1       4.622  24.593  52.111  1.00  0.00    -0.262 OA
HETATM   10  H   UNL     1       7.346  26.248  51.674  1.00  0.00     0.171 HD
BRANCH   8  11
HETATM   11  C   UNL     1       4.966  26.519  50.693  1.00  0.00     0.310 C 
HETATM   12  N   UNL     1       4.714  27.752  51.258  1.00  0.00    -0.348 N 
HETATM   13  H   UNL     1       4.735  27.814  52.274  1.00  0.00     0.163 HD
HETATM   14  O   UNL     1       4.883  26.224  49.508  1.00  0.00    -0.262 OA
BRANCH  12  15
HETATM   15  C   UNL     1       4.215  28.895  50.502  1.00  0.00     0.085 C 
HETATM   16  C   UNL     1       5.390  29.811  50.133  1.00  0.00     0.034 C 
HETATM   17  C   UNL     1       4.974  31.096  49.389  1.00  0.00    -0.045 C 
HETATM   18  C   UNL     1       4.587  30.778  47.933  1.00  0.00     0.015 C 
HETATM   19  C   UNL     1       6.189  32.048  49.334  1.00  0.00     0.015 C 
HETATM   20  C   UNL     1       3.830  31.811  50.147  1.00  0.00     0.013 C 
HETATM   21  C   UNL     1       2.666  30.932  50.635  1.00  0.00    -0.016 C 
HETATM   22  C   UNL     1       3.167  29.655  51.322  1.00  0.00     0.029 C 
HETATM   23  C   UNL     1       1.631  30.630  49.550  1.00  0.00     0.010 C 
ENDBRANCH  12  15
ENDBRANCH   8  11
ENDBRANCH   6   7
BRANCH   1  24
HETATM   24  C   UNL     1       6.896  25.975  55.084  1.00  0.00     0.732 A 
HETATM   25  N   UNL     1       7.581  26.229  56.232  1.00  0.00    -0.152 N 
HETATM   26  C   UNL     1       7.225  27.246  57.057  1.00  0.00     0.268 A 
HETATM   27  H   UNL     1       8.375  25.651  56.492  1.00  0.00     0.188 HD
HETATM   28  C   UNL     1       6.050  28.050  56.608  1.00  0.00     0.035 A 
HETATM   29  O   UNL     1       7.831  27.482  58.094  1.00  0.00    -0.267 OA
HETATM   30  C   UNL     1       5.456  27.697  55.445  1.00  0.00     0.061 A 
HETATM   31  N   UNL     1       5.872  26.640  54.655  1.00  0.00    -0.067 NA
HETATM   32  C   UNL     1       4.279  28.442  54.866  1.00  0.00     0.072 C 
BRANCH  28  33
HETATM   33  C   UNL     1       5.626  29.157  57.538  1.00  0.00     0.042 C 
HETATM   34  C   UNL     1       6.303  30.478  57.201  1.00  0.00     0.010 C 
ENDBRANCH  28  33
ENDBRANCH   1  24
TORSDOF 5
ENDMDL
MODEL 6
REMARK VINA RESULT:      -8.4      2.055      4.616
REMARK  5 active torsions:
REMARK  status: ('A' for Active; 'I' for Inactive)
REMARK    1  A    between atoms: C_2  and  C_3 
REMARK    2  A    between atoms: C_7  and  N_8 
REMARK    3  A    between atoms: C_13  and  N_14 
REMARK       I    between atoms: N_14  and  C_15 
REMARK    4  A    between atoms: C_15  and  C_16 
REMARK       I    between atoms: C_16  and  N_17 
REMARK    5  A    between atoms: N_17  and  C_18 
ROOT
HETATM    1  N   UNL     1       7.588  24.143  55.557  1.00  0.00    -0.045 N 
HETATM    2  N   UNL     1       8.378  23.283  56.260  1.00  0.00    -0.156 NA
HETATM    3  C   UNL     1       8.385  22.167  55.523  1.00  0.00     0.055 A 
HETATM    4  C   UNL     1       9.150  20.972  55.964  1.00  0.00     0.072 C 
HETATM    5  C   UNL     1       7.609  22.304  54.347  1.00  0.00     0.079 A 
HETATM    6  C   UNL     1       7.101  23.581  54.387  1.00  0.00     0.152 A 
ENDROOT
BRANCH   6   7
HETATM    7  N   UNL     1       6.265  24.221  53.479  1.00  0.00    -0.303 N 
HETATM    8  C   UNL     1       6.715  24.985  52.356  1.00  0.00     0.315 C 
HETATM    9  O   UNL     1       7.891  25.173  52.099  1.00  0.00    -0.262 OA
HETATM   10  H   UNL     1       5.250  24.135  53.613  1.00  0.00     0.171 HD
BRANCH   8  11
HETATM   11  C   UNL     1       5.589  25.552  51.475  1.00  0.00     0.310 C 
HETATM   12  N   UNL     1       5.925  26.698  50.783  1.00  0.00    -0.348 N 
HETATM   13  H   UNL     1       6.831  27.118  50.987  1.00  0.00     0.163 HD
HETATM   14  O   UNL     1       4.514  24.968  51.445  1.00  0.00    -0.262 OA
BRANCH  12  15
HETATM   15  C   UNL     1       4.984  27.442  49.955  1.00  0.00     0.085 C 
HETATM   16  C   UNL     1       4.263  26.472  49.010  1.00  0.00     0.034 C 
HETATM   17  C   UNL     1       3.289  27.158  48.031  1.00  0.00    -0.045 C 
HETATM   18  C   UNL     1       2.012  27.608  48.764  1.00  0.00     0.015 C 
HETATM   19  C   UNL     1       2.855  26.127  46.965  1.00  0.00     0.015 C 
HETATM   20  C   UNL     1       3.987  28.337  47.311  1.00  0.00     0.013 C 
HETATM   21  C   UNL     1       4.814  29.292  48.189  1.00  0.00    -0.016 C 
HETATM   22  C   UNL     1       5.721  28.529  49.163  1.00  0.00     0.029 C 
HETATM   23  C   UNL     1       3.970  30.350  48.902  1.00  0.00     0.010 C 
ENDBRANCH  12  15
ENDBRANCH   8  11
ENDBRANCH   6   7
BRANCH   1  24
HETATM   24  C   UNL     1       7.341  25.436  56.035  1.00  0.00     0.732 A 
HETATM   25  N   UNL     1       6.012  25.675  56.201  1.00  0.00    -0.152 N 
HETATM   26  C   UNL     1       5.560  26.873  56.650  1.00  0.00     0.268 A 
HETATM   27  H   UNL     1       5.332  24.952  55.984  1.00  0.00     0.188 HD
HETATM   28  C   UNL     1       6.617  27.884  56.946  1.00  0.00     0.035 A 
HETATM   29  O   UNL     1       4.366  27.099  56.799  1.00  0.00    -0.267 OA
HETATM   30  C   UNL     1       7.904  27.523  56.742  1.00  0.00     0.061 A 
HETATM   31  N   UNL     1       8.293  26.280  56.275  1.00  0.00    -0.067 NA
HETATM   32  C   UNL     1       9.068  28.439  57.028  1.00  0.00     0.072 C 
BRANCH  28  33
HETATM   33  C   UNL     1       6.119  29.229  57.409  1.00  0.00     0.042 C 
HETATM   34  C   UNL     1       5.971  30.211  56.256  1.00  0.00     0.010 C 
ENDBRANCH  28  33
ENDBRANCH   1  24
TORSDOF 5
ENDMDL
MODEL 7
REMARK VINA RESULT:      -8.0      4.115      7.885
REMARK  5 active torsions:
REMARK  status: ('A' for Active; 'I' for Inactive)
REMARK    1  A    between atoms: C_2  and  C_3 
REMARK    2  A    between atoms: C_7  and  N_8 
REMARK    3  A    between atoms: C_13  and  N_14 
REMARK       I    between atoms: N_14  and  C_15 
REMARK    4  A    between atoms: C_15  and  C_16 
REMARK       I    between atoms: C_16  and  N_17 
REMARK    5  A    between atoms: N_17  and  C_18 
ROOT
HETATM    1  N   UNL     1       4.958  32.992  58.639  1.00  0.00    -0.045 N 
HETATM    2  N   UNL     1       4.463  34.252  58.788  1.00  0.00    -0.156 NA
HETATM    3  C   UNL     1       3.351  34.259  58.045  1.00  0.00     0.055 A 
HETATM    4  C   UNL     1       2.512  35.481  57.948  1.00  0.00     0.072 C 
HETATM    5  C   UNL     1       3.124  33.008  57.422  1.00  0.00     0.079 A 
HETATM    6  C   UNL     1       4.170  32.206  57.812  1.00  0.00     0.152 A 
ENDROOT
BRANCH   6   7
HETATM    7  N   UNL     1       4.435  30.883  57.474  1.00  0.00    -0.303 N 
HETATM    8  C   UNL     1       4.924  30.451  56.202  1.00  0.00     0.315 C 
HETATM    9  O   UNL     1       5.133  31.207  55.269  1.00  0.00    -0.262 OA
HETATM   10  H   UNL     1       4.279  30.162  58.188  1.00  0.00     0.171 HD
BRANCH   8  11
HETATM   11  C   UNL     1       5.182  28.937  56.095  1.00  0.00     0.310 C 
HETATM   12  N   UNL     1       6.502  28.595  55.886  1.00  0.00    -0.348 N 
HETATM   13  H   UNL     1       7.161  29.354  55.722  1.00  0.00     0.163 HD
HETATM   14  O   UNL     1       4.235  28.171  56.205  1.00  0.00    -0.262 OA
BRANCH  12  15
HETATM   15  C   UNL     1       6.953  27.225  55.677  1.00  0.00     0.085 C 
HETATM   16  C   UNL     1       6.196  26.618  54.488  1.00  0.00     0.034 C 
HETATM   17  C   UNL     1       6.541  25.140  54.214  1.00  0.00    -0.045 C 
HETATM   18  C   UNL     1       7.933  25.018  53.567  1.00  0.00     0.015 C 
HETATM   19  C   UNL     1       5.522  24.577  53.198  1.00  0.00     0.015 C 
HETATM   20  C   UNL     1       6.436  24.311  55.517  1.00  0.00     0.013 C 
HETATM   21  C   UNL     1       7.087  24.912  56.774  1.00  0.00    -0.016 C 
HETATM   22  C   UNL     1       6.730  26.395  56.946  1.00  0.00     0.029 C 
HETATM   23  C   UNL     1       8.595  24.674  56.855  1.00  0.00     0.010 C 
ENDBRANCH  12  15
ENDBRANCH   8  11
ENDBRANCH   6   7
BRANCH   1  24
HETATM   24  C   UNL     1       6.144  32.610  59.280  1.00  0.00     0.732 A 
HETATM   25  N   UNL     1       6.112  32.879  60.614  1.00  0.00    -0.152 N 
HETATM   26  C   UNL     1       7.167  32.590  61.418  1.00  0.00     0.268 A 
HETATM   27  H   UNL     1       5.291  33.307  61.029  1.00  0.00     0.188 HD
HETATM   28  C   UNL     1       8.337  31.962  60.735  1.00  0.00     0.035 A 
HETATM   29  O   UNL     1       7.151  32.831  62.618  1.00  0.00    -0.267 OA
HETATM   30  C   UNL     1       8.243  31.745  59.404  1.00  0.00     0.061 A 
HETATM   31  N   UNL     1       7.133  32.070  58.644  1.00  0.00    -0.067 NA
HETATM   32  C   UNL     1       9.341  31.093  58.600  1.00  0.00     0.072 C 
BRANCH  28  33
HETATM   33  C   UNL     1       9.526  31.675  61.615  1.00  0.00     0.042 C 
HETATM   34  C   UNL     1       9.518  30.245  62.138  1.00  0.00     0.010 C 
ENDBRANCH  28  33
ENDBRANCH   1  24
TORSDOF 5
ENDMDL
MODEL 8
REMARK VINA RESULT:      -8.0      1.993      2.596
REMARK  5 active torsions:
REMARK  status: ('A' for Active; 'I' for Inactive)
REMARK    1  A    between atoms: C_2  and  C_3 
REMARK    2  A    between atoms: C_7  and  N_8 
REMARK    3  A    between atoms: C_13  and  N_14 
REMARK       I    between atoms: N_14  and  C_15 
REMARK    4  A    between atoms: C_15  and  C_16 
REMARK       I    between atoms: C_16  and  N_17 
REMARK    5  A    between atoms: N_17  and  C_18 
ROOT
HETATM    1  N   UNL     1       5.386  29.529  56.302  1.00  0.00    -0.045 N 
HETATM    2  N   UNL     1       5.408  29.949  57.598  1.00  0.00    -0.156 NA
HETATM    3  C   UNL     1       5.033  31.232  57.534  1.00  0.00     0.055 A 
HETATM    4  C   UNL     1       4.934  32.055  58.767  1.00  0.00     0.072 C 
HETATM    5  C   UNL     1       4.766  31.639  56.205  1.00  0.00     0.079 A 
HETATM    6  C   UNL     1       5.001  30.531  55.425  1.00  0.00     0.152 A 
ENDROOT
BRANCH   6   7
HETATM    7  N   UNL     1       4.899  30.392  54.045  1.00  0.00    -0.303 N 
HETATM    8  C   UNL     1       3.900  29.617  53.377  1.00  0.00     0.315 C 
HETATM    9  O   UNL     1       3.046  28.973  53.961  1.00  0.00    -0.262 OA
HETATM   10  H   UNL     1       5.582  30.887  53.458  1.00  0.00     0.171 HD
BRANCH   8  11
HETATM   11  C   UNL     1       3.974  29.664  51.840  1.00  0.00     0.310 C 
HETATM   12  N   UNL     1       3.571  28.503  51.213  1.00  0.00    -0.348 N 
HETATM   13  H   UNL     1       3.362  27.700  51.803  1.00  0.00     0.163 HD
HETATM   14  O   UNL     1       4.365  30.691  51.302  1.00  0.00    -0.262 OA
BRANCH  12  15
HETATM   15  C   UNL     1       3.638  28.306  49.769  1.00  0.00     0.085 C 
HETATM   16  C   UNL     1       2.220  28.097  49.220  1.00  0.00     0.034 C 
HETATM   17  C   UNL     1       2.171  27.806  47.706  1.00  0.00    -0.045 C 
HETATM   18  C   UNL     1       2.442  29.089  46.899  1.00  0.00     0.015 C 
HETATM   19  C   UNL     1       0.744  27.338  47.342  1.00  0.00     0.015 C 
HETATM   20  C   UNL     1       3.161  26.675  47.342  1.00  0.00     0.013 C 
HETATM   21  C   UNL     1       4.574  26.769  47.944  1.00  0.00    -0.016 C 
HETATM   22  C   UNL     1       4.533  27.106  49.440  1.00  0.00     0.029 C 
HETATM   23  C   UNL     1       5.505  27.706  47.172  1.00  0.00     0.010 C 
ENDBRANCH  12  15
ENDBRANCH   8  11
ENDBRANCH   6   7
BRANCH   1  24
HETATM   24  C   UNL     1       5.732  28.212  55.973  1.00  0.00     0.732 A 
HETATM   25  N   UNL     1       5.150  27.307  56.806  1.00  0.00    -0.152 N 
HETATM   26  C   UNL     1       5.363  25.974  56.661  1.00  0.00     0.268 A 
HETATM   27  H   UNL     1       4.544  27.621  57.558  1.00  0.00     0.188 HD
HETATM   28  C   UNL     1       6.263  25.590  55.535  1.00  0.00     0.035 A 
HETATM   29  O   UNL     1       4.847  25.151  57.407  1.00  0.00    -0.267 OA
HETATM   30  C   UNL     1       6.778  26.585  54.778  1.00  0.00     0.061 A 
HETATM   31  N   UNL     1       6.521  27.928  54.987  1.00  0.00    -0.067 NA
HETATM   32  C   UNL     1       7.679  26.332  53.593  1.00  0.00     0.072 C 
BRANCH  28  33
HETATM   33  C   UNL     1       6.534  24.115  55.393  1.00  0.00     0.042 C 
HETATM   34  C   UNL     1       7.778  23.685  56.158  1.00  0.00     0.010 C 
ENDBRANCH  28  33
ENDBRANCH   1  24
TORSDOF 5
ENDMDL
MODEL 9
REMARK VINA RESULT:      -7.9      4.243      9.675
REMARK  5 active torsions:
REMARK  status: ('A' for Active; 'I' for Inactive)
REMARK    1  A    between atoms: C_2  and  C_3 
REMARK    2  A    between atoms: C_7  and  N_8 
REMARK    3  A    between atoms: C_13  and  N_14 
REMARK       I    between atoms: N_14  and  C_15 
REMARK    4  A    between atoms: C_15  and  C_16 
REMARK       I    between atoms: C_16  and  N_17 
REMARK    5  A    between atoms: N_17  and  C_18 
ROOT
HETATM    1  N   UNL     1       6.588  27.681  56.039  1.00  0.00    -0.045 N 
HETATM    2  N   UNL     1       7.146  26.470  55.756  1.00  0.00    -0.156 NA
HETATM    3  C   UNL     1       7.770  26.124  56.887  1.00  0.00     0.055 A 
HETATM    4  C   UNL     1       8.513  24.841  56.980  1.00  0.00     0.072 C 
HETATM    5  C   UNL     1       7.614  27.102  57.899  1.00  0.00     0.079 A 
HETATM    6  C   UNL     1       6.854  28.098  57.334  1.00  0.00     0.152 A 
ENDROOT
BRANCH   6   7
HETATM    7  N   UNL     1       6.420  29.295  57.894  1.00  0.00    -0.303 N 
HETATM    8  C   UNL     1       7.258  30.427  58.146  1.00  0.00     0.315 C 
HETATM    9  O   UNL     1       8.455  30.442  57.917  1.00  0.00    -0.262 OA
HETATM   10  H   UNL     1       5.426  29.382  58.136  1.00  0.00     0.171 HD
BRANCH   8  11
HETATM   11  C   UNL     1       6.526  31.649  58.728  1.00  0.00     0.310 C 
HETATM   12  N   UNL     1       6.513  31.705  60.106  1.00  0.00    -0.348 N 
HETATM   13  H   UNL     1       6.888  30.904  60.611  1.00  0.00     0.163 HD
HETATM   14  O   UNL     1       6.030  32.459  57.957  1.00  0.00    -0.262 OA
BRANCH  12  15
HETATM   15  C   UNL     1       5.807  32.733  60.862  1.00  0.00     0.085 C 
HETATM   16  C   UNL     1       6.602  33.065  62.132  1.00  0.00     0.034 C 
HETATM   17  C   UNL     1       5.915  34.095  63.051  1.00  0.00    -0.045 C 
HETATM   18  C   UNL     1       6.017  35.509  62.452  1.00  0.00     0.015 C 
HETATM   19  C   UNL     1       6.662  34.123  64.403  1.00  0.00     0.015 C 
HETATM   20  C   UNL     1       4.446  33.685  63.316  1.00  0.00     0.013 C 
HETATM   21  C   UNL     1       3.619  33.242  62.096  1.00  0.00    -0.016 C 
HETATM   22  C   UNL     1       4.393  32.255  61.213  1.00  0.00     0.029 C 
HETATM   23  C   UNL     1       3.050  34.409  61.288  1.00  0.00     0.010 C 
ENDBRANCH  12  15
ENDBRANCH   8  11
ENDBRANCH   6   7
BRANCH   1  24
HETATM   24  C   UNL     1       5.845  28.367  55.070  1.00  0.00     0.732 A 
HETATM   25  N   UNL     1       6.161  27.972  53.807  1.00  0.00    -0.152 N 
HETATM   26  C   UNL     1       5.558  28.520  52.723  1.00  0.00     0.268 A 
HETATM   27  H   UNL     1       6.865  27.255  53.658  1.00  0.00     0.188 HD
HETATM   28  C   UNL     1       4.535  29.566  53.022  1.00  0.00     0.035 A 
HETATM   29  O   UNL     1       5.838  28.175  51.582  1.00  0.00    -0.267 OA
HETATM   30  C   UNL     1       4.310  29.868  54.320  1.00  0.00     0.061 A 
HETATM   31  N   UNL     1       4.970  29.270  55.379  1.00  0.00    -0.067 NA
HETATM   32  C   UNL     1       3.286  30.885  54.760  1.00  0.00     0.072 C 
BRANCH  28  33
HETATM   33  C   UNL     1       3.889  30.206  51.820  1.00  0.00     0.042 C 
HETATM   34  C   UNL     1       2.669  29.429  51.346  1.00  0.00     0.010 C 
ENDBRANCH  28  33
ENDBRANCH   1  24
TORSDOF 5
ENDMDL
MODEL 10
REMARK VINA RESULT:      -7.8      3.405      9.412
REMARK  5 active torsions:
REMARK  status: ('A' for Active; 'I' for Inactive)
REMARK    1  A    between atoms: C_2  and  C_3 
REMARK    2  A    between atoms: C_7  and  N_8 
REMARK    3  A    between atoms: C_13  and  N_14 
REMARK       I    between atoms: N_14  and  C_15 
REMARK    4  A    between atoms: C_15  and  C_16 
REMARK       I    between atoms: C_16  and  N_17 
REMARK    5  A    between atoms: N_17  and  C_18 
ROOT
HETATM    1  N   UNL     1       2.043  29.147  47.480  1.00  0.00    -0.045 N 
HETATM    2  N   UNL     1       1.066  29.137  46.529  1.00  0.00    -0.156 NA
HETATM    3  C   UNL     1       0.493  27.936  46.661  1.00  0.00     0.055 A 
HETATM    4  C   UNL     1      -0.637  27.536  45.783  1.00  0.00     0.072 C 
HETATM    5  C   UNL     1       1.090  27.174  47.694  1.00  0.00     0.079 A 
HETATM    6  C   UNL     1       2.088  27.968  48.207  1.00  0.00     0.152 A 
ENDROOT
BRANCH   6   7
HETATM    7  N   UNL     1       2.986  27.694  49.233  1.00  0.00    -0.303 N 
HETATM    8  C   UNL     1       4.166  26.899  49.091  1.00  0.00     0.315 C 
HETATM    9  O   UNL     1       4.489  26.354  48.050  1.00  0.00    -0.262 OA
HETATM   10  H   UNL     1       2.799  28.098  50.159  1.00  0.00     0.171 HD
BRANCH   8  11
HETATM   11  C   UNL     1       5.020  26.787  50.366  1.00  0.00     0.310 C 
HETATM   12  N   UNL     1       4.926  25.572  51.013  1.00  0.00    -0.348 N 
HETATM   13  H   UNL     1       4.240  24.906  50.661  1.00  0.00     0.163 HD
HETATM   14  O   UNL     1       5.703  27.745  50.703  1.00  0.00    -0.262 OA
BRANCH  12  15
HETATM   15  C   UNL     1       5.588  25.282  52.280  1.00  0.00     0.085 C 
HETATM   16  C   UNL     1       5.288  26.409  53.278  1.00  0.00     0.034 C 
HETATM   17  C   UNL     1       5.997  26.246  54.638  1.00  0.00    -0.045 C 
HETATM   18  C   UNL     1       5.323  25.142  55.472  1.00  0.00     0.015 C 
HETATM   19  C   UNL     1       5.847  27.564  55.431  1.00  0.00     0.015 C 
HETATM   20  C   UNL     1       7.506  25.973  54.430  1.00  0.00     0.013 C 
HETATM   21  C   UNL     1       7.881  24.925  53.368  1.00  0.00    -0.016 C 
HETATM   22  C   UNL     1       7.098  25.132  52.065  1.00  0.00     0.029 C 
HETATM   23  C   UNL     1       7.784  23.484  53.871  1.00  0.00     0.010 C 
ENDBRANCH  12  15
ENDBRANCH   8  11
ENDBRANCH   6   7
BRANCH   1  24
HETATM   24  C   UNL     1       2.872  30.265  47.638  1.00  0.00     0.732 A 
HETATM   25  N   UNL     1       3.619  30.509  46.528  1.00  0.00    -0.152 N 
HETATM   26  C   UNL     1       4.494  31.546  46.479  1.00  0.00     0.268 A 
HETATM   27  H   UNL     1       3.534  29.909  45.713  1.00  0.00     0.188 HD
HETATM   28  C   UNL     1       4.563  32.382  47.714  1.00  0.00     0.035 A 
HETATM   29  O   UNL     1       5.174  31.772  45.486  1.00  0.00    -0.267 OA
HETATM   30  C   UNL     1       3.766  32.036  48.750  1.00  0.00     0.061 A 
HETATM   31  N   UNL     1       2.898  30.958  48.731  1.00  0.00    -0.067 NA
HETATM   32  C   UNL     1       3.719  32.812  50.043  1.00  0.00     0.072 C 
BRANCH  28  33
HETATM   33  C   UNL     1       5.560  33.511  47.679  1.00  0.00     0.042 C 
HETATM   34  C   UNL     1       6.896  33.113  48.290  1.00  0.00     0.010 C 
ENDBRANCH  28  33
ENDBRANCH   1  24
TORSDOF 5
ENDMDL
