MODEL 1
REMARK VINA RESULT:      -8.4      0.000      0.000
REMARK  7 active torsions:
REMARK  status: ('A' for Active; 'I' for Inactive)
REMARK    1  A    between atoms: C_2  and  O_3 
REMARK    2  A    between atoms: O_3  and  C_4 
REMARK    3  A    between atoms: C_4  and  C_5 
REMARK    4  A    between atoms: C_6  and  C_7 
REMARK    5  A    between atoms: C_18  and  C_19 
REMARK    6  A    between atoms: C_19  and  N_20 
REMARK    7  A    between atoms: N_20  and  C_21 
ROOT
HETATM    1  C   UNL     1       5.545  27.032  54.950  1.00  0.00     0.068 A 
HETATM    2  C   UNL     1       5.655  28.528  55.052  1.00  0.00     0.161 A 
HETATM    3  N   UNL     1       5.703  29.153  53.743  1.00  0.00    -0.330 N 
HETATM    4  C   UNL     1       5.802  28.497  52.564  1.00  0.00     0.321 A 
HETATM    5  O   UNL     1       5.922  29.097  51.503  1.00  0.00    -0.247 OA
HETATM    6  N   UNL     1       5.745  27.140  52.619  1.00  0.00    -0.310 N 
HETATM    7  C   UNL     1       5.594  26.387  53.767  1.00  0.00     0.046 A 
HETATM    8  H   UNL     1       5.771  30.160  53.683  1.00  0.00     0.165 HD
HETATM    9  H   UNL     1       5.792  26.680  51.716  1.00  0.00     0.170 HD
ENDROOT
BRANCH   7  10
HETATM   10  C   UNL     1       5.461  24.892  53.549  1.00  0.00     0.177 C 
BRANCH  10  11
HETATM   11  N   UNL     1       6.707  24.396  52.993  1.00  0.00    -0.384 N 
HETATM   12  H   UNL     1       6.802  24.491  51.987  1.00  0.00     0.160 HD
BRANCH  11  13
HETATM   13  C   UNL     1       7.345  23.280  53.529  1.00  0.00     0.029 A 
HETATM   14  C   UNL     1       7.522  23.211  54.917  1.00  0.00     0.053 A 
HETATM   15  C   UNL     1       8.077  22.078  55.529  1.00  0.00     0.042 A 
HETATM   16 CL   UNL     1       8.246  22.092  57.249  1.00  0.00    -0.084 Cl
HETATM   17  C   UNL     1       8.465  20.971  54.765  1.00  0.00    -0.040 A 
HETATM   18  C   UNL     1       9.038  19.728  55.384  1.00  0.00     0.050 C 
HETATM   19  C   UNL     1       8.257  21.019  53.383  1.00  0.00     0.011 A 
HETATM   20  C   UNL     1       7.696  22.153  52.780  1.00  0.00     0.030 A 
ENDBRANCH  11  13
ENDBRANCH  10  11
ENDBRANCH   7  10
BRANCH   1  21
HETATM   21  C   UNL     1       5.409  26.288  56.224  1.00  0.00     0.293 C 
HETATM   22  O   UNL     1       4.455  26.367  56.978  1.00  0.00    -0.259 OA
BRANCH  21  23
HETATM   23  O   UNL     1       6.517  25.531  56.429  1.00  0.00    -0.318 OA
BRANCH  23  24
HETATM   24  C   UNL     1       7.277  25.858  57.603  1.00  0.00     0.174 C 
HETATM   25  C   UNL     1       8.760  25.746  57.311  1.00  0.00     0.034 C 
ENDBRANCH  23  24
ENDBRANCH  21  23
ENDBRANCH   1  21
BRANCH   2  26
HETATM   26  C   UNL     1       6.842  28.999  55.881  1.00  0.00    -0.031 A 
HETATM   27  C   UNL     1       8.159  28.874  55.406  1.00  0.00     0.011 A 
HETATM   28  C   UNL     1       9.239  29.311  56.177  1.00  0.00     0.024 A 
HETATM   29  C   UNL     1       9.012  29.873  57.431  1.00  0.00     0.034 A 
HETATM   30 CL   UNL     1      10.342  30.413  58.380  1.00  0.00    -0.084 Cl
HETATM   31  C   UNL     1       7.715  30.000  57.922  1.00  0.00     0.024 A 
HETATM   32  C   UNL     1       6.634  29.567  57.150  1.00  0.00     0.011 A 
ENDBRANCH   2  26
TORSDOF 7
ENDMDL
MODEL 2
REMARK VINA RESULT:      -8.4      3.325      8.073
REMARK  7 active torsions:
REMARK  status: ('A' for Active; 'I' for Inactive)
REMARK    1  A    between atoms: C_2  and  O_3 
REMARK    2  A    between atoms: O_3  and  C_4 
REMARK    3  A    between atoms: C_4  and  C_5 
REMARK    4  A    between atoms: C_6  and  C_7 
REMARK    5  A    between atoms: C_18  and  C_19 
REMARK    6  A    between atoms: C_19  and  N_20 
REMARK    7  A    between atoms: N_20  and  C_21 
ROOT
HETATM    1  C   UNL     1       7.506  29.073  55.855  1.00  0.00     0.068 A 
HETATM    2  C   UNL     1       6.806  28.105  54.944  1.00  0.00     0.161 A 
HETATM    3  N   UNL     1       5.366  28.144  55.122  1.00  0.00    -0.330 N 
HETATM    4  C   UNL     1       4.714  28.833  56.087  1.00  0.00     0.321 A 
HETATM    5  O   UNL     1       3.500  28.751  56.226  1.00  0.00    -0.247 OA
HETATM    6  N   UNL     1       5.475  29.631  56.882  1.00  0.00    -0.310 N 
HETATM    7  C   UNL     1       6.843  29.795  56.782  1.00  0.00     0.046 A 
HETATM    8  H   UNL     1       4.785  27.540  54.558  1.00  0.00     0.165 HD
HETATM    9  H   UNL     1       4.952  30.156  57.575  1.00  0.00     0.170 HD
ENDROOT
BRANCH   7  10
HETATM   10  C   UNL     1       7.444  30.819  57.725  1.00  0.00     0.177 C 
BRANCH  10  11
HETATM   11  N   UNL     1       7.718  30.170  58.995  1.00  0.00    -0.384 N 
HETATM   12  H   UNL     1       7.294  29.255  59.115  1.00  0.00     0.160 HD
BRANCH  11  13
HETATM   13  C   UNL     1       7.846  30.905  60.171  1.00  0.00     0.029 A 
HETATM   14  C   UNL     1       6.918  31.921  60.431  1.00  0.00     0.053 A 
HETATM   15  C   UNL     1       6.937  32.640  61.635  1.00  0.00     0.042 A 
HETATM   16 CL   UNL     1       5.742  33.869  61.860  1.00  0.00    -0.084 Cl
HETATM   17  C   UNL     1       7.887  32.355  62.622  1.00  0.00    -0.040 A 
HETATM   18  C   UNL     1       7.925  33.082  63.936  1.00  0.00     0.050 C 
HETATM   19  C   UNL     1       8.794  31.317  62.384  1.00  0.00     0.011 A 
HETATM   20  C   UNL     1       8.764  30.600  61.181  1.00  0.00     0.030 A 
ENDBRANCH  11  13
ENDBRANCH  10  11
ENDBRANCH   7  10
BRANCH   1  21
HETATM   21  C   UNL     1       8.976  29.181  55.708  1.00  0.00     0.293 C 
HETATM   22  O   UNL     1       9.556  29.425  54.664  1.00  0.00    -0.259 OA
BRANCH  21  23
HETATM   23  O   UNL     1       9.571  28.940  56.904  1.00  0.00    -0.318 OA
BRANCH  23  24
HETATM   24  C   UNL     1      10.922  29.412  57.025  1.00  0.00     0.174 C 
HETATM   25  C   UNL     1      10.941  30.765  57.709  1.00  0.00     0.034 C 
ENDBRANCH  23  24
ENDBRANCH  21  23
ENDBRANCH   1  21
BRANCH   2  26
HETATM   26  C   UNL     1       7.294  26.669  55.085  1.00  0.00    -0.031 A 
HETATM   27  C   UNL     1       7.544  26.106  56.349  1.00  0.00     0.011 A 
HETATM   28  C   UNL     1       7.991  24.788  56.464  1.00  0.00     0.024 A 
HETATM   29  C   UNL     1       8.196  24.023  55.319  1.00  0.00     0.034 A 
HETATM   30 CL   UNL     1       8.744  22.398  55.461  1.00  0.00    -0.084 Cl
HETATM   31  C   UNL     1       7.958  24.564  54.058  1.00  0.00     0.024 A 
HETATM   32  C   UNL     1       7.508  25.882  53.941  1.00  0.00     0.011 A 
ENDBRANCH   2  26
TORSDOF 7
ENDMDL
MODEL 3
REMARK VINA RESULT:      -8.2      2.762      3.947
REMARK  7 active torsions:
REMARK  status: ('A' for Active; 'I' for Inactive)
REMARK    1  A    between atoms: C_2  and  O_3 
REMARK    2  A    between atoms: O_3  and  C_4 
REMARK    3  A    between atoms: C_4  and  C_5 
REMARK    4  A    between atoms: C_6  and  C_7 
REMARK    5  A    between atoms: C_18  and  C_19 
REMARK    6  A    between atoms: C_19  and  N_20 
REMARK    7  A    between atoms: N_20  and  C_21 
ROOT
HETATM    1  C   UNL     1       5.699  27.247  52.935  1.00  0.00     0.068 A 
HETATM    2  C   UNL     1       4.390  27.760  52.404  1.00  0.00     0.161 A 
HETATM    3  N   UNL     1       4.071  27.183  51.112  1.00  0.00    -0.330 N 
HETATM    4  C   UNL     1       4.897  26.403  50.376  1.00  0.00     0.321 A 
HETATM    5  O   UNL     1       4.588  26.020  49.254  1.00  0.00    -0.247 OA
HETATM    6  N   UNL     1       6.077  26.056  50.954  1.00  0.00    -0.310 N 
HETATM    7  C   UNL     1       6.495  26.429  52.216  1.00  0.00     0.046 A 
HETATM    8  H   UNL     1       3.209  27.447  50.655  1.00  0.00     0.165 HD
HETATM    9  H   UNL     1       6.659  25.448  50.388  1.00  0.00     0.170 HD
ENDROOT
BRANCH   7  10
HETATM   10  C   UNL     1       7.813  25.829  52.667  1.00  0.00     0.177 C 
BRANCH  10  11
HETATM   11  N   UNL     1       7.846  24.435  52.260  1.00  0.00    -0.384 N 
HETATM   12  H   UNL     1       7.260  24.201  51.464  1.00  0.00     0.160 HD
BRANCH  11  13
HETATM   13  C   UNL     1       7.987  23.412  53.193  1.00  0.00     0.029 A 
HETATM   14  C   UNL     1       8.146  23.752  54.542  1.00  0.00     0.053 A 
HETATM   15  C   UNL     1       8.206  22.772  55.543  1.00  0.00     0.042 A 
HETATM   16 CL   UNL     1       8.398  23.299  57.178  1.00  0.00    -0.084 Cl
HETATM   17  C   UNL     1       8.099  21.414  55.221  1.00  0.00    -0.040 A 
HETATM   18  C   UNL     1       8.130  20.334  56.265  1.00  0.00     0.050 C 
HETATM   19  C   UNL     1       7.902  21.069  53.880  1.00  0.00     0.011 A 
HETATM   20  C   UNL     1       7.837  22.056  52.887  1.00  0.00     0.030 A 
ENDBRANCH  11  13
ENDBRANCH  10  11
ENDBRANCH   7  10
BRANCH   1  21
HETATM   21  C   UNL     1       6.094  27.706  54.287  1.00  0.00     0.293 C 
HETATM   22  O   UNL     1       6.981  28.509  54.519  1.00  0.00    -0.259 OA
BRANCH  21  23
HETATM   23  O   UNL     1       5.336  27.076  55.221  1.00  0.00    -0.318 OA
BRANCH  23  24
HETATM   24  C   UNL     1       6.069  26.425  56.271  1.00  0.00     0.174 C 
HETATM   25  C   UNL     1       5.309  25.207  56.759  1.00  0.00     0.034 C 
ENDBRANCH  23  24
ENDBRANCH  21  23
ENDBRANCH   1  21
BRANCH   2  26
HETATM   26  C   UNL     1       4.322  29.279  52.310  1.00  0.00    -0.031 A 
HETATM   27  C   UNL     1       3.583  30.035  53.237  1.00  0.00     0.011 A 
HETATM   28  C   UNL     1       3.530  31.427  53.138  1.00  0.00     0.024 A 
HETATM   29  C   UNL     1       4.209  32.075  52.111  1.00  0.00     0.034 A 
HETATM   30 CL   UNL     1       4.145  33.790  51.990  1.00  0.00    -0.084 Cl
HETATM   31  C   UNL     1       4.942  31.344  51.179  1.00  0.00     0.024 A 
HETATM   32  C   UNL     1       5.000  29.951  51.279  1.00  0.00     0.011 A 
ENDBRANCH   2  26
TORSDOF 7
ENDMDL
MODEL 4
REMARK VINA RESULT:      -8.2      2.171      3.000
REMARK  7 active torsions:
REMARK  status: ('A' for Active; 'I' for Inactive)
REMARK    1  A    between atoms: C_2  and  O_3 
REMARK    2  A    between atoms: O_3  and  C_4 
REMARK    3  A    between atoms: C_4  and  C_5 
REMARK    4  A    between atoms: C_6  and  C_7 
REMARK    5  A    between atoms: C_18  and  C_19 
REMARK    6  A    between atoms: C_19  and  N_20 
REMARK    7  A    between atoms: N_20  and  C_21 
ROOT
HETATM    1  C   UNL     1       5.728  26.517  53.557  1.00  0.00     0.068 A 
HETATM    2  C   UNL     1       4.378  27.144  53.350  1.00  0.00     0.161 A 
HETATM    3  N   UNL     1       4.067  27.297  51.941  1.00  0.00    -0.330 N 
HETATM    4  C   UNL     1       4.923  27.065  50.920  1.00  0.00     0.321 A 
HETATM    5  O   UNL     1       4.614  27.296  49.756  1.00  0.00    -0.247 OA
HETATM    6  N   UNL     1       6.136  26.547  51.250  1.00  0.00    -0.310 N 
HETATM    7  C   UNL     1       6.557  26.242  52.530  1.00  0.00     0.046 A 
HETATM    8  H   UNL     1       3.180  27.703  51.675  1.00  0.00     0.165 HD
HETATM    9  H   UNL     1       6.742  26.358  50.460  1.00  0.00     0.170 HD
ENDROOT
BRANCH   7  10
HETATM   10  C   UNL     1       7.920  25.582  52.623  1.00  0.00     0.177 C 
BRANCH  10  11
HETATM   11  N   UNL     1       7.782  24.187  52.246  1.00  0.00    -0.384 N 
HETATM   12  H   UNL     1       7.075  23.995  51.542  1.00  0.00     0.160 HD
BRANCH  11  13
HETATM   13  C   UNL     1       7.964  23.164  53.174  1.00  0.00     0.029 A 
HETATM   14  C   UNL     1       8.135  23.506  54.522  1.00  0.00     0.053 A 
HETATM   15  C   UNL     1       8.236  22.524  55.518  1.00  0.00     0.042 A 
HETATM   16 CL   UNL     1       8.440  23.052  57.152  1.00  0.00    -0.084 Cl
HETATM   17  C   UNL     1       8.159  21.165  55.194  1.00  0.00    -0.040 A 
HETATM   18  C   UNL     1       8.234  20.084  56.233  1.00  0.00     0.050 C 
HETATM   19  C   UNL     1       7.950  20.819  53.855  1.00  0.00     0.011 A 
HETATM   20  C   UNL     1       7.845  21.806  52.866  1.00  0.00     0.030 A 
ENDBRANCH  11  13
ENDBRANCH  10  11
ENDBRANCH   7  10
BRANCH   1  21
HETATM   21  C   UNL     1       6.123  26.237  54.957  1.00  0.00     0.293 C 
HETATM   22  O   UNL     1       5.603  25.400  55.674  1.00  0.00    -0.259 OA
BRANCH  21  23
HETATM   23  O   UNL     1       7.130  27.072  55.320  1.00  0.00    -0.318 OA
BRANCH  23  24
HETATM   24  C   UNL     1       7.725  26.798  56.599  1.00  0.00     0.174 C 
HETATM   25  C   UNL     1       7.491  27.963  57.542  1.00  0.00     0.034 C 
ENDBRANCH  23  24
ENDBRANCH  21  23
ENDBRANCH   1  21
BRANCH   2  26
HETATM   26  C   UNL     1       4.213  28.485  54.052  1.00  0.00    -0.031 A 
HETATM   27  C   UNL     1       4.033  28.562  55.445  1.00  0.00     0.011 A 
HETATM   28  C   UNL     1       3.883  29.800  56.075  1.00  0.00     0.024 A 
HETATM   29  C   UNL     1       3.907  30.969  55.321  1.00  0.00     0.034 A 
HETATM   30 CL   UNL     1       3.723  32.493  56.098  1.00  0.00    -0.084 Cl
HETATM   31  C   UNL     1       4.077  30.914  53.940  1.00  0.00     0.024 A 
HETATM   32  C   UNL     1       4.231  29.677  53.308  1.00  0.00     0.011 A 
ENDBRANCH   2  26
TORSDOF 7
ENDMDL
MODEL 5
REMARK VINA RESULT:      -8.1      2.821      3.967
REMARK  7 active torsions:
REMARK  status: ('A' for Active; 'I' for Inactive)
REMARK    1  A    between atoms: C_2  and  O_3 
REMARK    2  A    between atoms: O_3  and  C_4 
REMARK    3  A    between atoms: C_4  and  C_5 
REMARK    4  A    between atoms: C_6  and  C_7 
REMARK    5  A    between atoms: C_18  and  C_19 
REMARK    6  A    between atoms: C_19  and  N_20 
REMARK    7  A    between atoms: N_20  and  C_21 
ROOT
HETATM    1  C   UNL     1       6.769  27.670  56.301  1.00  0.00     0.068 A 
HETATM    2  C   UNL     1       7.009  28.995  55.635  1.00  0.00     0.161 A 
HETATM    3  N   UNL     1       8.377  29.446  55.812  1.00  0.00    -0.330 N 
HETATM    4  C   UNL     1       9.301  28.853  56.604  1.00  0.00     0.321 A 
HETATM    5  O   UNL     1      10.414  29.339  56.767  1.00  0.00    -0.247 OA
HETATM    6  N   UNL     1       8.935  27.684  57.193  1.00  0.00    -0.310 N 
HETATM    7  C   UNL     1       7.711  27.060  57.048  1.00  0.00     0.046 A 
HETATM    8  H   UNL     1       8.662  30.325  55.402  1.00  0.00     0.165 HD
HETATM    9  H   UNL     1       9.660  27.251  57.755  1.00  0.00     0.170 HD
ENDROOT
BRANCH   7  10
HETATM   10  C   UNL     1       7.586  25.712  57.733  1.00  0.00     0.177 C 
BRANCH  10  11
HETATM   11  N   UNL     1       8.643  24.846  57.240  1.00  0.00    -0.384 N 
HETATM   12  H   UNL     1       9.541  25.298  57.092  1.00  0.00     0.160 HD
BRANCH  11  13
HETATM   13  C   UNL     1       8.372  23.802  56.360  1.00  0.00     0.029 A 
HETATM   14  C   UNL     1       8.225  24.094  54.998  1.00  0.00     0.053 A 
HETATM   15  C   UNL     1       8.038  23.080  54.048  1.00  0.00     0.042 A 
HETATM   16 CL   UNL     1       7.874  23.547  52.391  1.00  0.00    -0.084 Cl
HETATM   17  C   UNL     1       8.000  21.736  54.435  1.00  0.00    -0.040 A 
HETATM   18  C   UNL     1       7.829  20.617  53.446  1.00  0.00     0.050 C 
HETATM   19  C   UNL     1       8.183  21.435  55.788  1.00  0.00     0.011 A 
HETATM   20  C   UNL     1       8.375  22.454  56.731  1.00  0.00     0.030 A 
ENDBRANCH  11  13
ENDBRANCH  10  11
ENDBRANCH   7  10
BRANCH   1  21
HETATM   21  C   UNL     1       5.426  27.070  56.122  1.00  0.00     0.293 C 
HETATM   22  O   UNL     1       4.438  27.367  56.770  1.00  0.00    -0.259 OA
BRANCH  21  23
HETATM   23  O   UNL     1       5.478  26.124  55.149  1.00  0.00    -0.318 OA
BRANCH  23  24
HETATM   24  C   UNL     1       5.006  26.543  53.858  1.00  0.00     0.174 C 
HETATM   25  C   UNL     1       4.848  25.342  52.947  1.00  0.00     0.034 C 
ENDBRANCH  23  24
ENDBRANCH  21  23
ENDBRANCH   1  21
BRANCH   2  26
HETATM   26  C   UNL     1       6.054  30.091  56.092  1.00  0.00    -0.031 A 
HETATM   27  C   UNL     1       5.033  30.565  55.250  1.00  0.00     0.011 A 
HETATM   28  C   UNL     1       4.164  31.570  55.682  1.00  0.00     0.024 A 
HETATM   29  C   UNL     1       4.310  32.113  56.955  1.00  0.00     0.034 A 
HETATM   30 CL   UNL     1       3.239  33.349  57.488  1.00  0.00    -0.084 Cl
HETATM   31  C   UNL     1       5.319  31.660  57.802  1.00  0.00     0.024 A 
HETATM   32  C   UNL     1       6.187  30.653  57.373  1.00  0.00     0.011 A 
ENDBRANCH   2  26
TORSDOF 7
ENDMDL
MODEL 6
REMARK VINA RESULT:      -8.1      3.011      4.345
REMARK  7 active torsions:
REMARK  status: ('A' for Active; 'I' for Inactive)
REMARK    1  A    between atoms: C_2  and  O_3 
REMARK    2  A    between atoms: O_3  and  C_4 
REMARK    3  A    between atoms: C_4  and  C_5 
REMARK    4  A    between atoms: C_6  and  C_7 
REMARK    5  A    between atoms: C_18  and  C_19 
REMARK    6  A    between atoms: C_19  and  N_20 
REMARK    7  A    between atoms: N_20  and  C_21 
ROOT
HETATM    1  C   UNL     1       6.429  27.784  55.766  1.00  0.00     0.068 A 
HETATM    2  C   UNL     1       6.587  29.279  55.773  1.00  0.00     0.161 A 
HETATM    3  N   UNL     1       7.324  29.736  56.936  1.00  0.00    -0.330 N 
HETATM    4  C   UNL     1       7.698  28.963  57.981  1.00  0.00     0.321 A 
HETATM    5  O   UNL     1       8.247  29.437  58.968  1.00  0.00    -0.247 OA
HETATM    6  N   UNL     1       7.446  27.631  57.871  1.00  0.00    -0.310 N 
HETATM    7  C   UNL     1       6.848  27.013  56.790  1.00  0.00     0.046 A 
HETATM    8  H   UNL     1       7.501  30.725  57.047  1.00  0.00     0.165 HD
HETATM    9  H   UNL     1       7.764  27.077  58.658  1.00  0.00     0.170 HD
ENDROOT
BRANCH   7  10
HETATM   10  C   UNL     1       6.769  25.501  56.870  1.00  0.00     0.177 C 
BRANCH  10  11
HETATM   11  N   UNL     1       8.057  24.952  56.483  1.00  0.00    -0.384 N 
HETATM   12  H   UNL     1       8.818  25.622  56.437  1.00  0.00     0.160 HD
BRANCH  11  13
HETATM   13  C   UNL     1       8.152  23.906  55.568  1.00  0.00     0.029 A 
HETATM   14  C   UNL     1       8.267  22.598  56.055  1.00  0.00     0.053 A 
HETATM   15  C   UNL     1       8.280  21.494  55.191  1.00  0.00     0.042 A 
HETATM   16 CL   UNL     1       8.419  19.920  55.895  1.00  0.00    -0.084 Cl
HETATM   17  C   UNL     1       8.168  21.668  53.807  1.00  0.00    -0.040 A 
HETATM   18  C   UNL     1       8.149  20.511  52.849  1.00  0.00     0.050 C 
HETATM   19  C   UNL     1       8.016  22.969  53.317  1.00  0.00     0.011 A 
HETATM   20  C   UNL     1       7.998  24.066  54.188  1.00  0.00     0.030 A 
ENDBRANCH  11  13
ENDBRANCH  10  11
ENDBRANCH   7  10
BRANCH   1  21
HETATM   21  C   UNL     1       5.759  27.192  54.585  1.00  0.00     0.293 C 
HETATM   22  O   UNL     1       4.627  26.740  54.580  1.00  0.00    -0.259 OA
BRANCH  21  23
HETATM   23  O   UNL     1       6.608  27.207  53.526  1.00  0.00    -0.318 OA
BRANCH  23  24
HETATM   24  C   UNL     1       5.980  27.227  52.234  1.00  0.00     0.174 C 
HETATM   25  C   UNL     1       6.146  25.882  51.554  1.00  0.00     0.034 C 
ENDBRANCH  23  24
ENDBRANCH  21  23
ENDBRANCH   1  21
BRANCH   2  26
HETATM   26  C   UNL     1       5.267  30.034  55.683  1.00  0.00    -0.031 A 
HETATM   27  C   UNL     1       4.452  30.214  56.814  1.00  0.00     0.011 A 
HETATM   28  C   UNL     1       3.244  30.909  56.718  1.00  0.00     0.024 A 
HETATM   29  C   UNL     1       2.838  31.425  55.490  1.00  0.00     0.034 A 
HETATM   30 CL   UNL     1       1.351  32.282  55.371  1.00  0.00    -0.084 Cl
HETATM   31  C   UNL     1       3.628  31.252  54.357  1.00  0.00     0.024 A 
HETATM   32  C   UNL     1       4.839  30.560  54.452  1.00  0.00     0.011 A 
ENDBRANCH   2  26
TORSDOF 7
ENDMDL
MODEL 7
REMARK VINA RESULT:      -8.0      2.519      3.353
REMARK  7 active torsions:
REMARK  status: ('A' for Active; 'I' for Inactive)
REMARK    1  A    between atoms: C_2  and  O_3 
REMARK    2  A    between atoms: O_3  and  C_4 
REMARK    3  A    between atoms: C_4  and  C_5 
REMARK    4  A    between atoms: C_6  and  C_7 
REMARK    5  A    between atoms: C_18  and  C_19 
REMARK    6  A    between atoms: C_19  and  N_20 
REMARK    7  A    between atoms: N_20  and  C_21 
ROOT
HETATM    1  C   UNL     1       6.042  28.008  55.632  1.00  0.00     0.068 A 
HETATM    2  C   UNL     1       4.662  28.498  55.968  1.00  0.00     0.161 A 
HETATM    3  N   UNL     1       3.765  28.398  54.832  1.00  0.00    -0.330 N 
HETATM    4  C   UNL     1       4.129  28.062  53.573  1.00  0.00     0.321 A 
HETATM    5  O   UNL     1       3.328  28.079  52.646  1.00  0.00    -0.247 OA
HETATM    6  N   UNL     1       5.424  27.690  53.394  1.00  0.00    -0.310 N 
HETATM    7  C   UNL     1       6.386  27.627  54.384  1.00  0.00     0.046 A 
HETATM    8  H   UNL     1       2.804  28.692  54.938  1.00  0.00     0.165 HD
HETATM    9  H   UNL     1       5.657  27.417  52.446  1.00  0.00     0.170 HD
ENDROOT
BRANCH   7  10
HETATM   10  C   UNL     1       7.733  27.088  53.946  1.00  0.00     0.177 C 
BRANCH  10  11
HETATM   11  N   UNL     1       7.519  25.841  53.232  1.00  0.00    -0.384 N 
HETATM   12  H   UNL     1       6.873  25.894  52.450  1.00  0.00     0.160 HD
BRANCH  11  13
HETATM   13  C   UNL     1       7.522  24.617  53.896  1.00  0.00     0.029 A 
HETATM   14  C   UNL     1       7.707  23.448  53.146  1.00  0.00     0.053 A 
HETATM   15  C   UNL     1       7.808  22.192  53.761  1.00  0.00     0.042 A 
HETATM   16 CL   UNL     1       8.042  20.813  52.745  1.00  0.00    -0.084 Cl
HETATM   17  C   UNL     1       7.734  22.070  55.153  1.00  0.00    -0.040 A 
HETATM   18  C   UNL     1       7.865  20.747  55.853  1.00  0.00     0.050 C 
HETATM   19  C   UNL     1       7.587  23.237  55.910  1.00  0.00     0.011 A 
HETATM   20  C   UNL     1       7.493  24.489  55.287  1.00  0.00     0.030 A 
ENDBRANCH  11  13
ENDBRANCH  10  11
ENDBRANCH   7  10
BRANCH   1  21
HETATM   21  C   UNL     1       7.028  27.988  56.737  1.00  0.00     0.293 C 
HETATM   22  O   UNL     1       7.084  27.135  57.606  1.00  0.00    -0.259 OA
BRANCH  21  23
HETATM   23  O   UNL     1       7.835  29.076  56.646  1.00  0.00    -0.318 OA
BRANCH  23  24
HETATM   24  C   UNL     1       8.523  29.435  57.855  1.00  0.00     0.174 C 
HETATM   25  C   UNL     1       7.778  30.548  58.566  1.00  0.00     0.034 C 
ENDBRANCH  23  24
ENDBRANCH  21  23
ENDBRANCH   1  21
BRANCH   2  26
HETATM   26  C   UNL     1       4.633  29.922  56.509  1.00  0.00    -0.031 A 
HETATM   27  C   UNL     1       4.175  30.198  57.809  1.00  0.00     0.011 A 
HETATM   28  C   UNL     1       4.155  31.508  58.293  1.00  0.00     0.024 A 
HETATM   29  C   UNL     1       4.588  32.553  57.482  1.00  0.00     0.034 A 
HETATM   30 CL   UNL     1       4.564  34.167  58.078  1.00  0.00    -0.084 Cl
HETATM   31  C   UNL     1       5.040  32.301  56.189  1.00  0.00     0.024 A 
HETATM   32  C   UNL     1       5.065  30.990  55.705  1.00  0.00     0.011 A 
ENDBRANCH   2  26
TORSDOF 7
ENDMDL
MODEL 8
REMARK VINA RESULT:      -8.0      3.213      4.758
REMARK  7 active torsions:
REMARK  status: ('A' for Active; 'I' for Inactive)
REMARK    1  A    between atoms: C_2  and  O_3 
REMARK    2  A    between atoms: O_3  and  C_4 
REMARK    3  A    between atoms: C_4  and  C_5 
REMARK    4  A    between atoms: C_6  and  C_7 
REMARK    5  A    between atoms: C_18  and  C_19 
REMARK    6  A    between atoms: C_19  and  N_20 
REMARK    7  A    between atoms: N_20  and  C_21 
ROOT
HETATM    1  C   UNL     1       5.400  27.557  51.961  1.00  0.00     0.068 A 
HETATM    2  C   UNL     1       4.345  28.378  51.274  1.00  0.00     0.161 A 
HETATM    3  N   UNL     1       3.834  27.714  50.090  1.00  0.00    -0.330 N 
HETATM    4  C   UNL     1       4.332  26.577  49.552  1.00  0.00     0.321 A 
HETATM    5  O   UNL     1       3.899  26.120  48.501  1.00  0.00    -0.247 OA
HETATM    6  N   UNL     1       5.324  25.961  50.247  1.00  0.00    -0.310 N 
HETATM    7  C   UNL     1       5.857  26.398  51.445  1.00  0.00     0.046 A 
HETATM    8  H   UNL     1       3.113  28.168  49.546  1.00  0.00     0.165 HD
HETATM    9  H   UNL     1       5.654  25.097  49.832  1.00  0.00     0.170 HD
ENDROOT
BRANCH   7  10
HETATM   10  C   UNL     1       6.889  25.478  52.068  1.00  0.00     0.177 C 
BRANCH  10  11
HETATM   11  N   UNL     1       6.355  24.969  53.320  1.00  0.00    -0.384 N 
HETATM   12  H   UNL     1       6.000  25.674  53.959  1.00  0.00     0.160 HD
BRANCH  11  13
HETATM   13  C   UNL     1       6.909  23.854  53.942  1.00  0.00     0.029 A 
HETATM   14  C   UNL     1       7.326  22.779  53.145  1.00  0.00     0.053 A 
HETATM   15  C   UNL     1       7.969  21.664  53.698  1.00  0.00     0.042 A 
HETATM   16 CL   UNL     1       8.449  20.395  52.626  1.00  0.00    -0.084 Cl
HETATM   17  C   UNL     1       8.224  21.594  55.073  1.00  0.00    -0.040 A 
HETATM   18  C   UNL     1       8.936  20.430  55.702  1.00  0.00     0.050 C 
HETATM   19  C   UNL     1       7.844  22.679  55.869  1.00  0.00     0.011 A 
HETATM   20  C   UNL     1       7.206  23.793  55.307  1.00  0.00     0.030 A 
ENDBRANCH  11  13
ENDBRANCH  10  11
ENDBRANCH   7  10
BRANCH   1  21
HETATM   21  C   UNL     1       5.942  28.097  53.229  1.00  0.00     0.293 C 
HETATM   22  O   UNL     1       7.026  28.642  53.348  1.00  0.00    -0.259 OA
BRANCH  21  23
HETATM   23  O   UNL     1       5.060  27.865  54.235  1.00  0.00    -0.318 OA
BRANCH  23  24
HETATM   24  C   UNL     1       5.066  28.837  55.294  1.00  0.00     0.174 C 
HETATM   25  C   UNL     1       3.941  29.833  55.092  1.00  0.00     0.034 C 
ENDBRANCH  23  24
ENDBRANCH  21  23
ENDBRANCH   1  21
BRANCH   2  26
HETATM   26  C   UNL     1       4.807  29.783  50.907  1.00  0.00    -0.031 A 
HETATM   27  C   UNL     1       5.748  29.997  49.885  1.00  0.00     0.011 A 
HETATM   28  C   UNL     1       6.162  31.291  49.559  1.00  0.00     0.024 A 
HETATM   29  C   UNL     1       5.642  32.380  50.252  1.00  0.00     0.034 A 
HETATM   30 CL   UNL     1       6.151  33.973  49.850  1.00  0.00    -0.084 Cl
HETATM   31  C   UNL     1       4.713  32.188  51.272  1.00  0.00     0.024 A 
HETATM   32  C   UNL     1       4.295  30.895  51.597  1.00  0.00     0.011 A 
ENDBRANCH   2  26
TORSDOF 7
ENDMDL
MODEL 9
REMARK VINA RESULT:      -7.8      3.008      7.859
REMARK  7 active torsions:
REMARK  status: ('A' for Active; 'I' for Inactive)
REMARK    1  A    between atoms: C_2  and  O_3 
REMARK    2  A    between atoms: O_3  and  C_4 
REMARK    3  A    between atoms: C_4  and  C_5 
REMARK    4  A    between atoms: C_6  and  C_7 
REMARK    5  A    between atoms: C_18  and  C_19 
REMARK    6  A    between atoms: C_19  and  N_20 
REMARK    7  A    between atoms: N_20  and  C_21 
ROOT
HETATM    1  C   UNL     1       6.743  28.045  55.255  1.00  0.00     0.068 A 
HETATM    2  C   UNL     1       6.642  27.535  53.846  1.00  0.00     0.161 A 
HETATM    3  N   UNL     1       5.346  27.824  53.261  1.00  0.00    -0.330 N 
HETATM    4  C   UNL     1       4.285  28.340  53.923  1.00  0.00     0.321 A 
HETATM    5  O   UNL     1       3.195  28.479  53.381  1.00  0.00    -0.247 OA
HETATM    6  N   UNL     1       4.497  28.711  55.214  1.00  0.00    -0.310 N 
HETATM    7  C   UNL     1       5.695  28.605  55.893  1.00  0.00     0.046 A 
HETATM    8  H   UNL     1       5.160  27.534  52.311  1.00  0.00     0.165 HD
HETATM    9  H   UNL     1       3.690  29.121  55.672  1.00  0.00     0.170 HD
ENDROOT
BRANCH   7  10
HETATM   10  C   UNL     1       5.697  29.181  57.297  1.00  0.00     0.177 C 
BRANCH  10  11
HETATM   11  N   UNL     1       6.054  30.586  57.217  1.00  0.00    -0.384 N 
HETATM   12  H   UNL     1       6.739  30.820  56.505  1.00  0.00     0.160 HD
BRANCH  11  13
HETATM   13  C   UNL     1       6.110  31.384  58.356  1.00  0.00     0.029 A 
HETATM   14  C   UNL     1       4.944  32.035  58.777  1.00  0.00     0.053 A 
HETATM   15  C   UNL     1       4.910  32.783  59.963  1.00  0.00     0.042 A 
HETATM   16 CL   UNL     1       3.417  33.542  60.396  1.00  0.00    -0.084 Cl
HETATM   17  C   UNL     1       6.047  32.894  60.771  1.00  0.00    -0.040 A 
HETATM   18  C   UNL     1       6.046  33.662  62.062  1.00  0.00     0.050 C 
HETATM   19  C   UNL     1       7.204  32.216  60.375  1.00  0.00     0.011 A 
HETATM   20  C   UNL     1       7.228  31.466  59.192  1.00  0.00     0.030 A 
ENDBRANCH  11  13
ENDBRANCH  10  11
ENDBRANCH   7  10
BRANCH   1  21
HETATM   21  C   UNL     1       8.051  27.879  55.931  1.00  0.00     0.293 C 
HETATM   22  O   UNL     1       8.328  26.973  56.698  1.00  0.00    -0.259 OA
BRANCH  21  23
HETATM   23  O   UNL     1       8.874  28.901  55.585  1.00  0.00    -0.318 OA
BRANCH  23  24
HETATM   24  C   UNL     1       9.360  29.697  56.678  1.00  0.00     0.174 C 
HETATM   25  C   UNL     1      10.873  29.636  56.734  1.00  0.00     0.034 C 
ENDBRANCH  23  24
ENDBRANCH  21  23
ENDBRANCH   1  21
BRANCH   2  26
HETATM   26  C   UNL     1       6.936  26.046  53.711  1.00  0.00    -0.031 A 
HETATM   27  C   UNL     1       6.319  25.102  54.550  1.00  0.00     0.011 A 
HETATM   28  C   UNL     1       6.598  23.740  54.416  1.00  0.00     0.024 A 
HETATM   29  C   UNL     1       7.499  23.310  53.446  1.00  0.00     0.034 A 
HETATM   30 CL   UNL     1       7.842  21.633  53.279  1.00  0.00    -0.084 Cl
HETATM   31  C   UNL     1       8.126  24.231  52.609  1.00  0.00     0.024 A 
HETATM   32  C   UNL     1       7.845  25.593  52.740  1.00  0.00     0.011 A 
ENDBRANCH   2  26
TORSDOF 7
ENDMDL
MODEL 10
REMARK VINA RESULT:      -7.7      2.331      7.716
REMARK  7 active torsions:
REMARK  status: ('A' for Active; 'I' for Inactive)
REMARK    1  A    between atoms: C_2  and  O_3 
REMARK    2  A    between atoms: O_3  and  C_4 
REMARK    3  A    between atoms: C_4  and  C_5 
REMARK    4  A    between atoms: C_6  and  C_7 
REMARK    5  A    between atoms: C_18  and  C_19 
REMARK    6  A    between atoms: C_19  and  N_20 
REMARK    7  A    between atoms: N_20  and  C_21 
ROOT
HETATM    1  C   UNL     1       6.346  26.678  54.599  1.00  0.00     0.068 A 
HETATM    2  C   UNL     1       5.639  25.352  54.622  1.00  0.00     0.161 A 
HETATM    3  N   UNL     1       4.970  25.122  55.889  1.00  0.00    -0.330 N 
HETATM    4  C   UNL     1       5.081  25.904  56.987  1.00  0.00     0.321 A 
HETATM    5  O   UNL     1       4.551  25.599  58.049  1.00  0.00    -0.247 OA
HETATM    6  N   UNL     1       5.796  27.051  56.845  1.00  0.00    -0.310 N 
HETATM    7  C   UNL     1       6.410  27.477  55.683  1.00  0.00     0.046 A 
HETATM    8  H   UNL     1       4.454  24.263  56.022  1.00  0.00     0.165 HD
HETATM    9  H   UNL     1       5.835  27.628  57.678  1.00  0.00     0.170 HD
ENDROOT
BRANCH   7  10
HETATM   10  C   UNL     1       7.065  28.843  55.759  1.00  0.00     0.177 C 
BRANCH  10  11
HETATM   11  N   UNL     1       6.497  29.563  56.886  1.00  0.00    -0.384 N 
HETATM   12  H   UNL     1       5.621  30.041  56.698  1.00  0.00     0.160 HD
BRANCH  11  13
HETATM   13  C   UNL     1       7.308  30.193  57.826  1.00  0.00     0.029 A 
HETATM   14  C   UNL     1       6.723  31.109  58.710  1.00  0.00     0.053 A 
HETATM   15  C   UNL     1       7.465  31.713  59.735  1.00  0.00     0.042 A 
HETATM   16 CL   UNL     1       6.646  32.824  60.776  1.00  0.00    -0.084 Cl
HETATM   17  C   UNL     1       8.819  31.408  59.912  1.00  0.00    -0.040 A 
HETATM   18  C   UNL     1       9.643  32.011  61.015  1.00  0.00     0.050 C 
HETATM   19  C   UNL     1       9.400  30.466  59.056  1.00  0.00     0.011 A 
HETATM   20  C   UNL     1       8.650  29.863  58.038  1.00  0.00     0.030 A 
ENDBRANCH  11  13
ENDBRANCH  10  11
ENDBRANCH   7  10
BRANCH   1  21
HETATM   21  C   UNL     1       7.000  27.061  53.326  1.00  0.00     0.293 C 
HETATM   22  O   UNL     1       8.179  26.886  53.069  1.00  0.00    -0.259 OA
BRANCH  21  23
HETATM   23  O   UNL     1       6.093  27.655  52.509  1.00  0.00    -0.318 OA
BRANCH  23  24
HETATM   24  C   UNL     1       5.739  26.907  51.335  1.00  0.00     0.174 C 
HETATM   25  C   UNL     1       5.312  27.849  50.227  1.00  0.00     0.034 C 
ENDBRANCH  23  24
ENDBRANCH  21  23
ENDBRANCH   1  21
BRANCH   2  26
HETATM   26  C   UNL     1       6.546  24.170  54.307  1.00  0.00    -0.031 A 
HETATM   27  C   UNL     1       7.168  23.435  55.332  1.00  0.00     0.011 A 
HETATM   28  C   UNL     1       7.997  22.352  55.028  1.00  0.00     0.024 A 
HETATM   29  C   UNL     1       8.217  21.998  53.700  1.00  0.00     0.034 A 
HETATM   30 CL   UNL     1       9.237  20.665  53.326  1.00  0.00    -0.084 Cl
HETATM   31  C   UNL     1       7.615  22.718  52.670  1.00  0.00     0.024 A 
HETATM   32  C   UNL     1       6.782  23.798  52.972  1.00  0.00     0.011 A 
ENDBRANCH   2  26
TORSDOF 7
ENDMDL
