MODEL 1
REMARK VINA RESULT:      -9.6      0.000      0.000
REMARK  3 active torsions:
REMARK  status: ('A' for Active; 'I' for Inactive)
REMARK    1  A    between atoms: S_2  and  C_3 
REMARK    2  A    between atoms: C_6  and  C_7 
REMARK    3  A    between atoms: C_22  and  N_23 
ROOT
HETATM    1  C   UNL     1       6.573  26.965  53.831  1.00  0.00     0.078 C 
HETATM    2  C   UNL     1       6.481  25.561  54.424  1.00  0.00     0.127 C 
HETATM    3  C   UNL     1       6.548  24.524  53.333  1.00  0.00     0.060 C 
HETATM    4  C   UNL     1       7.358  23.402  53.787  1.00  0.00     0.003 A 
HETATM    5  C   UNL     1       8.025  23.775  54.947  1.00  0.00     0.023 A 
HETATM    6  C   UNL     1       8.961  22.951  55.542  1.00  0.00     0.016 A 
HETATM    7  C   UNL     1       9.212  21.717  54.933  1.00  0.00     0.001 A 
HETATM    8  C   UNL     1       8.536  21.341  53.754  1.00  0.00     0.001 A 
HETATM    9  C   UNL     1       7.601  22.194  53.162  1.00  0.00     0.014 A 
HETATM   10  C   UNL     1       7.612  25.128  55.342  1.00  0.00     0.171 C 
HETATM   11  O   UNL     1       8.107  25.741  56.267  1.00  0.00    -0.291 OA
HETATM   12  N   UNL     1       6.063  24.629  52.144  1.00  0.00    -0.231 NA
HETATM   13  C   UNL     1       5.629  25.876  51.764  1.00  0.00     0.165 C 
HETATM   14  C   UNL     1       5.933  26.990  52.458  1.00  0.00     0.067 C 
HETATM   15  N   UNL     1       5.010  25.872  50.543  1.00  0.00    -0.200 NA
HETATM   16  C   UNL     1       4.732  27.007  49.997  1.00  0.00     0.181 C 
HETATM   17  N   UNL     1       5.036  28.192  50.580  1.00  0.00    -0.298 N 
HETATM   18  C   UNL     1       5.705  28.272  51.762  1.00  0.00     0.258 C 
HETATM   19  O   UNL     1       6.131  29.344  52.178  1.00  0.00    -0.267 OA
HETATM   20  H   UNL     1       4.844  29.062  50.112  1.00  0.00     0.171 HD
ENDROOT
BRANCH   1  21
HETATM   21  C   UNL     1       5.950  27.941  54.835  1.00  0.00    -0.048 A 
HETATM   22  C   UNL     1       6.772  28.850  55.516  1.00  0.00     0.009 A 
HETATM   23  C   UNL     1       6.240  29.749  56.450  1.00  0.00     0.019 A 
HETATM   24  C   UNL     1       4.873  29.765  56.727  1.00  0.00    -0.000 A 
HETATM   25  C   UNL     1       4.051  28.849  56.058  1.00  0.00     0.019 A 
HETATM   26  C   UNL     1       4.580  27.940  55.134  1.00  0.00     0.009 A 
BRANCH  24  27
HETATM   27  S   UNL     1       4.072  30.880  57.875  1.00  0.00    -0.134 SA
HETATM   28  C   UNL     1       5.446  31.860  58.536  1.00  0.00     0.095 C 
ENDBRANCH  24  27
ENDBRANCH   1  21
BRANCH  16  29
HETATM   29  N   UNL     1       4.130  27.055  48.784  1.00  0.00    -0.272 NA
HETATM   30  H   UNL     1       3.550  27.886  48.697  1.00  0.00     0.127 HD
HETATM   31  H   UNL     1       3.643  26.217  48.494  1.00  0.00     0.127 HD
ENDBRANCH  16  29
TORSDOF 3
ENDMDL
MODEL 2
REMARK VINA RESULT:      -9.5      3.481      5.009
REMARK  3 active torsions:
REMARK  status: ('A' for Active; 'I' for Inactive)
REMARK    1  A    between atoms: S_2  and  C_3 
REMARK    2  A    between atoms: C_6  and  C_7 
REMARK    3  A    between atoms: C_22  and  N_23 
ROOT
HETATM    1  C   UNL     1       5.814  26.613  54.782  1.00  0.00     0.078 C 
HETATM    2  C   UNL     1       6.899  25.765  54.122  1.00  0.00     0.127 C 
HETATM    3  C   UNL     1       7.873  25.260  55.154  1.00  0.00     0.060 C 
HETATM    4  C   UNL     1       8.238  23.887  54.838  1.00  0.00     0.003 A 
HETATM    5  C   UNL     1       7.366  23.406  53.868  1.00  0.00     0.023 A 
HETATM    6  C   UNL     1       7.397  22.088  53.455  1.00  0.00     0.016 A 
HETATM    7  C   UNL     1       8.345  21.249  54.050  1.00  0.00     0.001 A 
HETATM    8  C   UNL     1       9.227  21.737  55.035  1.00  0.00     0.001 A 
HETATM    9  C   UNL     1       9.172  23.072  55.447  1.00  0.00     0.014 A 
HETATM   10  C   UNL     1       6.450  24.476  53.453  1.00  0.00     0.171 C 
HETATM   11  O   UNL     1       5.522  24.310  52.685  1.00  0.00    -0.291 OA
HETATM   12  N   UNL     1       8.260  25.884  56.213  1.00  0.00    -0.231 NA
HETATM   13  C   UNL     1       7.568  27.024  56.545  1.00  0.00     0.165 C 
HETATM   14  C   UNL     1       6.385  27.341  55.982  1.00  0.00     0.067 C 
HETATM   15  N   UNL     1       8.125  27.694  57.600  1.00  0.00    -0.200 NA
HETATM   16  C   UNL     1       7.461  28.669  58.122  1.00  0.00     0.181 C 
HETATM   17  N   UNL     1       6.239  29.044  57.672  1.00  0.00    -0.298 N 
HETATM   18  C   UNL     1       5.598  28.385  56.668  1.00  0.00     0.258 C 
HETATM   19  O   UNL     1       4.425  28.621  56.402  1.00  0.00    -0.267 OA
HETATM   20  H   UNL     1       5.726  29.781  58.125  1.00  0.00     0.171 HD
ENDROOT
BRANCH   1  21
HETATM   21  C   UNL     1       5.221  27.535  53.710  1.00  0.00    -0.048 A 
HETATM   22  C   UNL     1       6.079  28.266  52.877  1.00  0.00     0.009 A 
HETATM   23  C   UNL     1       5.574  29.128  51.894  1.00  0.00     0.019 A 
HETATM   24  C   UNL     1       4.198  29.280  51.717  1.00  0.00    -0.000 A 
HETATM   25  C   UNL     1       3.339  28.560  52.556  1.00  0.00     0.019 A 
HETATM   26  C   UNL     1       3.839  27.708  53.548  1.00  0.00     0.009 A 
BRANCH  24  27
HETATM   27  S   UNL     1       3.434  30.325  50.482  1.00  0.00    -0.134 SA
HETATM   28  C   UNL     1       1.804  29.569  50.243  1.00  0.00     0.095 C 
ENDBRANCH  24  27
ENDBRANCH   1  21
BRANCH  16  29
HETATM   29  N   UNL     1       7.965  29.356  59.176  1.00  0.00    -0.272 NA
HETATM   30  H   UNL     1       7.955  30.356  58.998  1.00  0.00     0.127 HD
HETATM   31  H   UNL     1       8.859  29.039  59.528  1.00  0.00     0.127 HD
ENDBRANCH  16  29
TORSDOF 3
ENDMDL
MODEL 3
REMARK VINA RESULT:      -9.0      2.037      5.401
REMARK  3 active torsions:
REMARK  status: ('A' for Active; 'I' for Inactive)
REMARK    1  A    between atoms: S_2  and  C_3 
REMARK    2  A    between atoms: C_6  and  C_7 
REMARK    3  A    between atoms: C_22  and  N_23 
ROOT
HETATM    1  C   UNL     1       5.799  26.584  54.360  1.00  0.00     0.078 C 
HETATM    2  C   UNL     1       5.890  27.325  53.028  1.00  0.00     0.127 C 
HETATM    3  C   UNL     1       5.797  26.354  51.879  1.00  0.00     0.060 C 
HETATM    4  C   UNL     1       4.987  26.940  50.821  1.00  0.00     0.003 A 
HETATM    5  C   UNL     1       4.342  28.063  51.324  1.00  0.00     0.023 A 
HETATM    6  C   UNL     1       3.410  28.759  50.578  1.00  0.00     0.016 A 
HETATM    7  C   UNL     1       3.140  28.291  49.288  1.00  0.00     0.001 A 
HETATM    8  C   UNL     1       3.793  27.150  48.780  1.00  0.00     0.001 A 
HETATM    9  C   UNL     1       4.724  26.454  49.555  1.00  0.00     0.014 A 
HETATM   10  C   UNL     1       4.772  28.302  52.707  1.00  0.00     0.171 C 
HETATM   11  O   UNL     1       4.297  29.163  53.422  1.00  0.00    -0.291 OA
HETATM   12  N   UNL     1       6.263  25.153  51.851  1.00  0.00    -0.231 NA
HETATM   13  C   UNL     1       6.700  24.633  53.045  1.00  0.00     0.165 C 
HETATM   14  C   UNL     1       6.417  25.207  54.230  1.00  0.00     0.067 C 
HETATM   15  N   UNL     1       7.298  23.410  52.903  1.00  0.00    -0.200 NA
HETATM   16  C   UNL     1       7.576  22.739  53.969  1.00  0.00     0.181 C 
HETATM   17  N   UNL     1       7.290  23.195  55.213  1.00  0.00    -0.298 N 
HETATM   18  C   UNL     1       6.642  24.372  55.427  1.00  0.00     0.258 C 
HETATM   19  O   UNL     1       6.231  24.676  56.541  1.00  0.00    -0.267 OA
HETATM   20  H   UNL     1       7.481  22.632  56.025  1.00  0.00     0.171 HD
ENDROOT
BRANCH   1  21
HETATM   21  C   UNL     1       6.446  27.466  55.433  1.00  0.00    -0.048 A 
HETATM   22  C   UNL     1       5.664  27.954  56.491  1.00  0.00     0.009 A 
HETATM   23  C   UNL     1       6.218  28.773  57.483  1.00  0.00     0.019 A 
HETATM   24  C   UNL     1       7.568  29.125  57.448  1.00  0.00    -0.000 A 
HETATM   25  C   UNL     1       8.349  28.650  56.386  1.00  0.00     0.019 A 
HETATM   26  C   UNL     1       7.796  27.842  55.385  1.00  0.00     0.009 A 
BRANCH  24  27
HETATM   27  S   UNL     1       8.396  30.138  58.668  1.00  0.00    -0.134 SA
HETATM   28  C   UNL     1      10.028  30.430  57.935  1.00  0.00     0.095 C 
ENDBRANCH  24  27
ENDBRANCH   1  21
BRANCH  16  29
HETATM   29  N   UNL     1       8.158  21.519  53.880  1.00  0.00    -0.272 NA
HETATM   30  H   UNL     1       9.000  21.557  53.312  1.00  0.00     0.127 HD
HETATM   31  H   UNL     1       7.552  20.754  53.614  1.00  0.00     0.127 HD
ENDBRANCH  16  29
TORSDOF 3
ENDMDL
MODEL 4
REMARK VINA RESULT:      -8.6      2.485      3.360
REMARK  3 active torsions:
REMARK  status: ('A' for Active; 'I' for Inactive)
REMARK    1  A    between atoms: S_2  and  C_3 
REMARK    2  A    between atoms: C_6  and  C_7 
REMARK    3  A    between atoms: C_22  and  N_23 
ROOT
HETATM    1  C   UNL     1       5.666  29.164  56.080  1.00  0.00     0.078 C 
HETATM    2  C   UNL     1       5.804  27.785  56.722  1.00  0.00     0.127 C 
HETATM    3  C   UNL     1       5.726  26.707  55.674  1.00  0.00     0.060 C 
HETATM    4  C   UNL     1       6.694  25.664  55.985  1.00  0.00     0.003 A 
HETATM    5  C   UNL     1       7.553  26.135  56.971  1.00  0.00     0.023 A 
HETATM    6  C   UNL     1       8.650  25.405  57.385  1.00  0.00     0.016 A 
HETATM    7  C   UNL     1       8.865  24.164  56.776  1.00  0.00     0.001 A 
HETATM    8  C   UNL     1       7.995  23.690  55.774  1.00  0.00     0.001 A 
HETATM    9  C   UNL     1       6.896  24.449  55.361  1.00  0.00     0.014 A 
HETATM   10  C   UNL     1       7.127  27.473  57.401  1.00  0.00     0.171 C 
HETATM   11  O   UNL     1       7.751  28.161  58.185  1.00  0.00    -0.291 OA
HETATM   12  N   UNL     1       5.003  26.724  54.608  1.00  0.00    -0.231 NA
HETATM   13  C   UNL     1       4.407  27.920  54.286  1.00  0.00     0.165 C 
HETATM   14  C   UNL     1       4.759  29.082  54.869  1.00  0.00     0.067 C 
HETATM   15  N   UNL     1       3.555  27.818  53.220  1.00  0.00    -0.200 NA
HETATM   16  C   UNL     1       3.086  28.905  52.708  1.00  0.00     0.181 C 
HETATM   17  N   UNL     1       3.411  30.133  53.179  1.00  0.00    -0.298 N 
HETATM   18  C   UNL     1       4.298  30.313  54.196  1.00  0.00     0.258 C 
HETATM   19  O   UNL     1       4.717  31.429  54.481  1.00  0.00    -0.267 OA
HETATM   20  H   UNL     1       3.062  30.965  52.734  1.00  0.00     0.171 HD
ENDROOT
BRANCH   1  21
HETATM   21  C   UNL     1       5.188  30.140  57.160  1.00  0.00    -0.048 A 
HETATM   22  C   UNL     1       6.081  31.088  57.679  1.00  0.00     0.009 A 
HETATM   23  C   UNL     1       5.683  31.989  58.677  1.00  0.00     0.019 A 
HETATM   24  C   UNL     1       4.382  31.967  59.180  1.00  0.00    -0.000 A 
HETATM   25  C   UNL     1       3.491  31.013  58.673  1.00  0.00     0.019 A 
HETATM   26  C   UNL     1       3.888  30.103  57.686  1.00  0.00     0.009 A 
BRANCH  24  27
HETATM   27  S   UNL     1       3.748  33.080  60.430  1.00  0.00    -0.134 SA
HETATM   28  C   UNL     1       4.346  32.356  61.980  1.00  0.00     0.095 C 
ENDBRANCH  24  27
ENDBRANCH   1  21
BRANCH  16  29
HETATM   29  N   UNL     1       2.247  28.856  51.644  1.00  0.00    -0.272 NA
HETATM   30  H   UNL     1       2.511  29.540  50.940  1.00  0.00     0.127 HD
HETATM   31  H   UNL     1       1.259  28.886  51.855  1.00  0.00     0.127 HD
ENDBRANCH  16  29
TORSDOF 3
ENDMDL
MODEL 5
REMARK VINA RESULT:      -8.5      3.498      7.128
REMARK  3 active torsions:
REMARK  status: ('A' for Active; 'I' for Inactive)
REMARK    1  A    between atoms: S_2  and  C_3 
REMARK    2  A    between atoms: C_6  and  C_7 
REMARK    3  A    between atoms: C_22  and  N_23 
ROOT
HETATM    1  C   UNL     1       6.142  27.211  53.440  1.00  0.00     0.078 C 
HETATM    2  C   UNL     1       4.855  27.063  52.630  1.00  0.00     0.127 C 
HETATM    3  C   UNL     1       3.981  28.277  52.804  1.00  0.00     0.060 C 
HETATM    4  C   UNL     1       3.371  28.615  51.526  1.00  0.00     0.003 A 
HETATM    5  C   UNL     1       4.006  27.892  50.524  1.00  0.00     0.023 A 
HETATM    6  C   UNL     1       3.716  28.096  49.188  1.00  0.00     0.016 A 
HETATM    7  C   UNL     1       2.751  29.060  48.879  1.00  0.00     0.001 A 
HETATM    8  C   UNL     1       2.110  29.795  49.896  1.00  0.00     0.001 A 
HETATM    9  C   UNL     1       2.426  29.582  51.241  1.00  0.00     0.014 A 
HETATM   10  C   UNL     1       5.000  26.990  51.119  1.00  0.00     0.171 C 
HETATM   11  O   UNL     1       5.768  26.308  50.468  1.00  0.00    -0.291 OA
HETATM   12  N   UNL     1       3.854  28.984  53.873  1.00  0.00    -0.231 NA
HETATM   13  C   UNL     1       4.752  28.739  54.884  1.00  0.00     0.165 C 
HETATM   14  C   UNL     1       5.872  28.014  54.697  1.00  0.00     0.067 C 
HETATM   15  N   UNL     1       4.466  29.434  56.028  1.00  0.00    -0.200 NA
HETATM   16  C   UNL     1       5.339  29.434  56.977  1.00  0.00     0.181 C 
HETATM   17  N   UNL     1       6.523  28.781  56.879  1.00  0.00    -0.298 N 
HETATM   18  C   UNL     1       6.900  28.121  55.750  1.00  0.00     0.258 C 
HETATM   19  O   UNL     1       8.043  27.698  55.615  1.00  0.00    -0.267 OA
HETATM   20  H   UNL     1       7.202  28.832  57.619  1.00  0.00     0.171 HD
ENDROOT
BRANCH   1  21
HETATM   21  C   UNL     1       6.700  25.807  53.696  1.00  0.00    -0.048 A 
HETATM   22  C   UNL     1       7.747  25.324  52.898  1.00  0.00     0.009 A 
HETATM   23  C   UNL     1       8.275  24.041  53.095  1.00  0.00     0.019 A 
HETATM   24  C   UNL     1       7.773  23.208  54.096  1.00  0.00    -0.000 A 
HETATM   25  C   UNL     1       6.719  23.683  54.886  1.00  0.00     0.019 A 
HETATM   26  C   UNL     1       6.179  24.959  54.684  1.00  0.00     0.009 A 
BRANCH  24  27
HETATM   27  S   UNL     1       8.380  21.565  54.462  1.00  0.00    -0.134 SA
HETATM   28  C   UNL     1       7.969  20.623  52.969  1.00  0.00     0.095 C 
ENDBRANCH  24  27
ENDBRANCH   1  21
BRANCH  16  29
HETATM   29  N   UNL     1       5.107  30.118  58.124  1.00  0.00    -0.272 NA
HETATM   30  H   UNL     1       5.641  30.982  58.148  1.00  0.00     0.127 HD
HETATM   31  H   UNL     1       5.193  29.590  58.982  1.00  0.00     0.127 HD
ENDBRANCH  16  29
TORSDOF 3
ENDMDL
MODEL 6
REMARK VINA RESULT:      -8.4      9.608     12.507
REMARK  3 active torsions:
REMARK  status: ('A' for Active; 'I' for Inactive)
REMARK    1  A    between atoms: S_2  and  C_3 
REMARK    2  A    between atoms: C_6  and  C_7 
REMARK    3  A    between atoms: C_22  and  N_23 
ROOT
HETATM    1  C   UNL     1       4.585  33.969  62.343  1.00  0.00     0.078 C 
HETATM    2  C   UNL     1       6.017  33.832  61.829  1.00  0.00     0.127 C 
HETATM    3  C   UNL     1       6.856  33.059  62.813  1.00  0.00     0.060 C 
HETATM    4  C   UNL     1       7.746  32.165  62.085  1.00  0.00     0.003 A 
HETATM    5  C   UNL     1       7.336  32.112  60.758  1.00  0.00     0.023 A 
HETATM    6  C   UNL     1       7.923  31.249  59.853  1.00  0.00     0.016 A 
HETATM    7  C   UNL     1       8.954  30.428  60.321  1.00  0.00     0.001 A 
HETATM    8  C   UNL     1       9.366  30.481  61.668  1.00  0.00     0.001 A 
HETATM    9  C   UNL     1       8.752  31.353  62.571  1.00  0.00     0.014 A 
HETATM   10  C   UNL     1       6.214  33.035  60.550  1.00  0.00     0.171 C 
HETATM   11  O   UNL     1       5.597  33.123  59.506  1.00  0.00    -0.291 OA
HETATM   12  N   UNL     1       6.756  33.089  64.097  1.00  0.00    -0.231 NA
HETATM   13  C   UNL     1       5.648  33.717  64.614  1.00  0.00     0.165 C 
HETATM   14  C   UNL     1       4.584  34.045  63.856  1.00  0.00     0.067 C 
HETATM   15  N   UNL     1       5.686  33.820  65.978  1.00  0.00    -0.200 NA
HETATM   16  C   UNL     1       4.622  34.217  66.589  1.00  0.00     0.181 C 
HETATM   17  N   UNL     1       3.476  34.526  65.935  1.00  0.00    -0.298 N 
HETATM   18  C   UNL     1       3.348  34.389  64.587  1.00  0.00     0.258 C 
HETATM   19  O   UNL     1       2.255  34.494  64.040  1.00  0.00    -0.267 OA
HETATM   20  H   UNL     1       2.649  34.794  66.441  1.00  0.00     0.171 HD
ENDROOT
BRANCH   1  21
HETATM   21  C   UNL     1       3.952  35.181  61.651  1.00  0.00    -0.048 A 
HETATM   22  C   UNL     1       2.891  34.989  60.755  1.00  0.00     0.009 A 
HETATM   23  C   UNL     1       2.295  36.072  60.094  1.00  0.00     0.019 A 
HETATM   24  C   UNL     1       2.742  37.375  60.313  1.00  0.00    -0.000 A 
HETATM   25  C   UNL     1       3.811  37.569  61.198  1.00  0.00     0.019 A 
HETATM   26  C   UNL     1       4.417  36.489  61.850  1.00  0.00     0.009 A 
BRANCH  24  27
HETATM   27  S   UNL     1       2.047  38.838  59.553  1.00  0.00    -0.134 SA
HETATM   28  C   UNL     1       2.297  40.122  60.808  1.00  0.00     0.095 C 
ENDBRANCH  24  27
ENDBRANCH   1  21
BRANCH  16  29
HETATM   29  N   UNL     1       4.606  34.324  67.940  1.00  0.00    -0.272 NA
HETATM   30  H   UNL     1       4.118  35.165  68.234  1.00  0.00     0.127 HD
HETATM   31  H   UNL     1       5.497  34.216  68.406  1.00  0.00     0.127 HD
ENDBRANCH  16  29
TORSDOF 3
ENDMDL
MODEL 7
REMARK VINA RESULT:      -8.0      3.533      5.321
REMARK  3 active torsions:
REMARK  status: ('A' for Active; 'I' for Inactive)
REMARK    1  A    between atoms: S_2  and  C_3 
REMARK    2  A    between atoms: C_6  and  C_7 
REMARK    3  A    between atoms: C_22  and  N_23 
ROOT
HETATM    1  C   UNL     1       5.142  27.840  53.474  1.00  0.00     0.078 C 
HETATM    2  C   UNL     1       6.327  26.934  53.145  1.00  0.00     0.127 C 
HETATM    3  C   UNL     1       7.082  26.579  54.399  1.00  0.00     0.060 C 
HETATM    4  C   UNL     1       7.491  25.183  54.334  1.00  0.00     0.003 A 
HETATM    5  C   UNL     1       6.817  24.571  53.284  1.00  0.00     0.023 A 
HETATM    6  C   UNL     1       6.916  23.212  53.054  1.00  0.00     0.016 A 
HETATM    7  C   UNL     1       7.728  22.470  53.918  1.00  0.00     0.001 A 
HETATM    8  C   UNL     1       8.408  23.092  54.984  1.00  0.00     0.001 A 
HETATM    9  C   UNL     1       8.286  24.467  55.207  1.00  0.00     0.014 A 
HETATM   10  C   UNL     1       6.005  25.564  52.571  1.00  0.00     0.171 C 
HETATM   11  O   UNL     1       5.240  25.288  51.668  1.00  0.00    -0.291 OA
HETATM   12  N   UNL     1       7.265  27.337  55.425  1.00  0.00    -0.231 NA
HETATM   13  C   UNL     1       6.530  28.497  55.473  1.00  0.00     0.165 C 
HETATM   14  C   UNL     1       5.479  28.721  54.660  1.00  0.00     0.067 C 
HETATM   15  N   UNL     1       6.880  29.303  56.522  1.00  0.00    -0.200 NA
HETATM   16  C   UNL     1       6.135  30.324  56.781  1.00  0.00     0.181 C 
HETATM   17  N   UNL     1       5.024  30.619  56.063  1.00  0.00    -0.298 N 
HETATM   18  C   UNL     1       4.583  29.829  55.046  1.00  0.00     0.258 C 
HETATM   19  O   UNL     1       3.484  30.010  54.535  1.00  0.00    -0.267 OA
HETATM   20  H   UNL     1       4.440  31.399  56.313  1.00  0.00     0.171 HD
ENDROOT
BRANCH   1  21
HETATM   21  C   UNL     1       4.771  28.610  52.202  1.00  0.00    -0.048 A 
HETATM   22  C   UNL     1       3.460  28.541  51.710  1.00  0.00     0.009 A 
HETATM   23  C   UNL     1       3.087  29.221  50.543  1.00  0.00     0.019 A 
HETATM   24  C   UNL     1       4.014  29.991  49.838  1.00  0.00    -0.000 A 
HETATM   25  C   UNL     1       5.328  30.051  50.321  1.00  0.00     0.019 A 
HETATM   26  C   UNL     1       5.708  29.362  51.479  1.00  0.00     0.009 A 
BRANCH  24  27
HETATM   27  S   UNL     1       3.653  30.925  48.356  1.00  0.00    -0.134 SA
HETATM   28  C   UNL     1       5.053  32.070  48.231  1.00  0.00     0.095 C 
ENDBRANCH  24  27
ENDBRANCH   1  21
BRANCH  16  29
HETATM   29  N   UNL     1       6.434  31.146  57.817  1.00  0.00    -0.272 NA
HETATM   30  H   UNL     1       6.343  30.661  58.705  1.00  0.00     0.127 HD
HETATM   31  H   UNL     1       5.968  32.044  57.822  1.00  0.00     0.127 HD
ENDBRANCH  16  29
TORSDOF 3
ENDMDL
MODEL 8
REMARK VINA RESULT:      -7.9      4.156      7.743
REMARK  3 active torsions:
REMARK  status: ('A' for Active; 'I' for Inactive)
REMARK    1  A    between atoms: S_2  and  C_3 
REMARK    2  A    between atoms: C_6  and  C_7 
REMARK    3  A    between atoms: C_22  and  N_23 
ROOT
HETATM    1  C   UNL     1       6.641  28.387  55.065  1.00  0.00     0.078 C 
HETATM    2  C   UNL     1       5.190  28.650  54.668  1.00  0.00     0.127 C 
HETATM    3  C   UNL     1       4.742  29.997  55.172  1.00  0.00     0.060 C 
HETATM    4  C   UNL     1       3.916  30.638  54.159  1.00  0.00     0.003 A 
HETATM    5  C   UNL     1       4.043  29.933  52.969  1.00  0.00     0.023 A 
HETATM    6  C   UNL     1       3.464  30.379  51.796  1.00  0.00     0.016 A 
HETATM    7  C   UNL     1       2.736  31.572  51.852  1.00  0.00     0.001 A 
HETATM    8  C   UNL     1       2.610  32.288  53.059  1.00  0.00     0.001 A 
HETATM    9  C   UNL     1       3.213  31.826  54.232  1.00  0.00     0.014 A 
HETATM   10  C   UNL     1       4.893  28.754  53.181  1.00  0.00     0.171 C 
HETATM   11  O   UNL     1       5.250  28.010  52.289  1.00  0.00    -0.291 OA
HETATM   12  N   UNL     1       5.100  30.561  56.274  1.00  0.00    -0.231 NA
HETATM   13  C   UNL     1       6.143  29.980  56.954  1.00  0.00     0.165 C 
HETATM   14  C   UNL     1       6.942  29.050  56.394  1.00  0.00     0.067 C 
HETATM   15  N   UNL     1       6.370  30.560  58.173  1.00  0.00    -0.200 NA
HETATM   16  C   UNL     1       7.438  30.229  58.816  1.00  0.00     0.181 C 
HETATM   17  N   UNL     1       8.339  29.342  58.328  1.00  0.00    -0.298 N 
HETATM   18  C   UNL     1       8.209  28.773  57.098  1.00  0.00     0.258 C 
HETATM   19  O   UNL     1       9.122  28.122  56.601  1.00  0.00    -0.267 OA
HETATM   20  H   UNL     1       9.184  29.133  58.833  1.00  0.00     0.171 HD
ENDROOT
BRANCH   1  21
HETATM   21  C   UNL     1       6.864  26.871  55.052  1.00  0.00    -0.048 A 
HETATM   22  C   UNL     1       6.351  26.089  56.097  1.00  0.00     0.009 A 
HETATM   23  C   UNL     1       6.546  24.701  56.126  1.00  0.00     0.019 A 
HETATM   24  C   UNL     1       7.256  24.059  55.111  1.00  0.00    -0.000 A 
HETATM   25  C   UNL     1       7.780  24.839  54.072  1.00  0.00     0.019 A 
HETATM   26  C   UNL     1       7.600  26.227  54.047  1.00  0.00     0.009 A 
BRANCH  24  27
HETATM   27  S   UNL     1       7.546  22.295  55.021  1.00  0.00    -0.134 SA
HETATM   28  C   UNL     1       7.912  22.018  53.268  1.00  0.00     0.095 C 
ENDBRANCH  24  27
ENDBRANCH   1  21
BRANCH  16  29
HETATM   29  N   UNL     1       7.713  30.784  60.021  1.00  0.00    -0.272 NA
HETATM   30  H   UNL     1       8.261  31.633  59.916  1.00  0.00     0.127 HD
HETATM   31  H   UNL     1       8.101  30.163  60.720  1.00  0.00     0.127 HD
ENDBRANCH  16  29
TORSDOF 3
ENDMDL
MODEL 9
REMARK VINA RESULT:      -7.9      4.681      8.431
REMARK  3 active torsions:
REMARK  status: ('A' for Active; 'I' for Inactive)
REMARK    1  A    between atoms: S_2  and  C_3 
REMARK    2  A    between atoms: C_6  and  C_7 
REMARK    3  A    between atoms: C_22  and  N_23 
ROOT
HETATM    1  C   UNL     1       7.062  29.512  56.371  1.00  0.00     0.078 C 
HETATM    2  C   UNL     1       5.568  29.778  56.544  1.00  0.00     0.127 C 
HETATM    3  C   UNL     1       5.340  31.170  57.074  1.00  0.00     0.060 C 
HETATM    4  C   UNL     1       4.182  31.752  56.411  1.00  0.00     0.003 A 
HETATM    5  C   UNL     1       3.845  30.956  55.322  1.00  0.00     0.023 A 
HETATM    6  C   UNL     1       2.855  31.325  54.432  1.00  0.00     0.016 A 
HETATM    7  C   UNL     1       2.196  32.536  54.670  1.00  0.00     0.001 A 
HETATM    8  C   UNL     1       2.540  33.344  55.772  1.00  0.00     0.001 A 
HETATM    9  C   UNL     1       3.553  32.957  56.654  1.00  0.00     0.014 A 
HETATM   10  C   UNL     1       4.720  29.777  55.283  1.00  0.00     0.171 C 
HETATM   11  O   UNL     1       4.710  28.959  54.384  1.00  0.00    -0.291 OA
HETATM   12  N   UNL     1       6.090  31.806  57.905  1.00  0.00    -0.231 NA
HETATM   13  C   UNL     1       7.319  31.254  58.174  1.00  0.00     0.165 C 
HETATM   14  C   UNL     1       7.847  30.266  57.425  1.00  0.00     0.067 C 
HETATM   15  N   UNL     1       7.995  31.918  59.162  1.00  0.00    -0.200 NA
HETATM   16  C   UNL     1       9.231  31.611  59.368  1.00  0.00     0.181 C 
HETATM   17  N   UNL     1       9.880  30.669  58.642  1.00  0.00    -0.298 N 
HETATM   18  C   UNL     1       9.290  30.013  57.606  1.00  0.00     0.258 C 
HETATM   19  O   UNL     1       9.945  29.304  56.849  1.00  0.00    -0.267 OA
HETATM   20  H   UNL     1      10.856  30.479  58.798  1.00  0.00     0.171 HD
ENDROOT
BRANCH   1  21
HETATM   21  C   UNL     1       7.274  27.994  56.393  1.00  0.00    -0.048 A 
HETATM   22  C   UNL     1       7.273  27.314  57.619  1.00  0.00     0.009 A 
HETATM   23  C   UNL     1       7.476  25.929  57.680  1.00  0.00     0.019 A 
HETATM   24  C   UNL     1       7.683  25.186  56.517  1.00  0.00    -0.000 A 
HETATM   25  C   UNL     1       7.696  25.864  55.291  1.00  0.00     0.019 A 
HETATM   26  C   UNL     1       7.507  27.250  55.227  1.00  0.00     0.009 A 
BRANCH  24  27
HETATM   27  S   UNL     1       7.925  23.414  56.462  1.00  0.00    -0.134 SA
HETATM   28  C   UNL     1       7.385  22.968  54.790  1.00  0.00     0.095 C 
ENDBRANCH  24  27
ENDBRANCH   1  21
BRANCH  16  29
HETATM   29  N   UNL     1       9.945  32.249  60.327  1.00  0.00    -0.272 NA
HETATM   30  H   UNL     1      10.404  33.075  59.952  1.00  0.00     0.127 HD
HETATM   31  H   UNL     1      10.577  31.674  60.869  1.00  0.00     0.127 HD
ENDBRANCH  16  29
TORSDOF 3
ENDMDL
MODEL 10
REMARK VINA RESULT:      -7.8      3.454      5.016
REMARK  3 active torsions:
REMARK  status: ('A' for Active; 'I' for Inactive)
REMARK    1  A    between atoms: S_2  and  C_3 
REMARK    2  A    between atoms: C_6  and  C_7 
REMARK    3  A    between atoms: C_22  and  N_23 
ROOT
HETATM    1  C   UNL     1       6.010  30.504  56.992  1.00  0.00     0.078 C 
HETATM    2  C   UNL     1       5.873  29.018  57.319  1.00  0.00     0.127 C 
HETATM    3  C   UNL     1       5.438  28.248  56.100  1.00  0.00     0.060 C 
HETATM    4  C   UNL     1       6.153  26.981  56.053  1.00  0.00     0.003 A 
HETATM    5  C   UNL     1       7.191  27.020  56.976  1.00  0.00     0.023 A 
HETATM    6  C   UNL     1       8.115  25.997  57.071  1.00  0.00     0.016 A 
HETATM    7  C   UNL     1       7.966  24.912  56.201  1.00  0.00     0.001 A 
HETATM    8  C   UNL     1       6.914  24.875  55.264  1.00  0.00     0.001 A 
HETATM    9  C   UNL     1       5.996  25.925  55.176  1.00  0.00     0.014 A 
HETATM   10  C   UNL     1       7.142  28.284  57.721  1.00  0.00     0.171 C 
HETATM   11  O   UNL     1       7.987  28.626  58.526  1.00  0.00    -0.291 OA
HETATM   12  N   UNL     1       4.641  28.662  55.177  1.00  0.00    -0.231 NA
HETATM   13  C   UNL     1       4.321  29.998  55.190  1.00  0.00     0.165 C 
HETATM   14  C   UNL     1       4.997  30.895  55.935  1.00  0.00     0.067 C 
HETATM   15  N   UNL     1       3.370  30.326  54.262  1.00  0.00    -0.200 NA
HETATM   16  C   UNL     1       3.129  31.576  54.051  1.00  0.00     0.181 C 
HETATM   17  N   UNL     1       3.784  32.566  54.705  1.00  0.00    -0.298 N 
HETATM   18  C   UNL     1       4.783  32.316  55.595  1.00  0.00     0.258 C 
HETATM   19  O   UNL     1       5.483  33.221  56.033  1.00  0.00    -0.267 OA
HETATM   20  H   UNL     1       3.604  33.532  54.490  1.00  0.00     0.171 HD
ENDROOT
BRANCH   1  21
HETATM   21  C   UNL     1       5.887  31.287  58.303  1.00  0.00    -0.048 A 
HETATM   22  C   UNL     1       7.047  31.712  58.965  1.00  0.00     0.009 A 
HETATM   23  C   UNL     1       6.975  32.420  60.173  1.00  0.00     0.019 A 
HETATM   24  C   UNL     1       5.741  32.724  60.749  1.00  0.00    -0.000 A 
HETATM   25  C   UNL     1       4.580  32.290  60.096  1.00  0.00     0.019 A 
HETATM   26  C   UNL     1       4.648  31.571  58.897  1.00  0.00     0.009 A 
BRANCH  24  27
HETATM   27  S   UNL     1       5.517  33.643  62.268  1.00  0.00    -0.134 SA
HETATM   28  C   UNL     1       6.951  33.160  63.266  1.00  0.00     0.095 C 
ENDBRANCH  24  27
ENDBRANCH   1  21
BRANCH  16  29
HETATM   29  N   UNL     1       2.205  31.951  53.134  1.00  0.00    -0.272 NA
HETATM   30  H   UNL     1       2.556  32.704  52.549  1.00  0.00     0.127 HD
HETATM   31  H   UNL     1       1.277  32.143  53.488  1.00  0.00     0.127 HD
ENDBRANCH  16  29
TORSDOF 3
ENDMDL
