MODEL 1
REMARK VINA RESULT:      -8.4      0.000      0.000
REMARK  3 active torsions:
REMARK  status: ('A' for Active; 'I' for Inactive)
REMARK    1  A    between atoms: C_11  and  N_12 
REMARK       I    between atoms: N_12  and  C_13 
REMARK       I    between atoms: C_13  and  N_14 
REMARK    2  A    between atoms: N_14  and  C_15 
REMARK    3  A    between atoms: C_20  and  O_21 
ROOT
HETATM    1  N   UNL     1       7.677  26.319  56.056  1.00  0.00    -0.338 N 
HETATM    2  C   UNL     1       7.851  27.281  57.040  1.00  0.00     0.321 C 
HETATM    3  N   UNL     1       8.705  28.273  56.620  1.00  0.00    -0.306 N 
HETATM    4  O   UNL     1       7.319  27.198  58.136  1.00  0.00    -0.247 OA
HETATM    5  H   UNL     1       7.845  26.708  55.137  1.00  0.00     0.164 HD
HETATM    6  H   UNL     1       9.068  28.230  55.676  1.00  0.00     0.171 HD
ENDROOT
BRANCH   1   7
HETATM    7  C   UNL     1       6.595  25.336  56.096  1.00  0.00     0.091 C 
HETATM    8  C   UNL     1       6.951  23.867  56.369  1.00  0.00     0.063 C 
HETATM    9  C   UNL     1       7.658  23.136  55.226  1.00  0.00     0.121 C 
HETATM   10  N   UNL     1       6.871  23.343  53.947  1.00  0.00    -0.059 N 
HETATM   11  C   UNL     1       9.122  23.531  55.017  1.00  0.00     0.046 C 
HETATM   12  C   UNL     1       7.625  21.618  55.504  1.00  0.00     0.046 C 
HETATM   13  C   UNL     1       6.351  24.717  53.584  1.00  0.00     0.121 C 
HETATM   14  H   UNL     1       6.059  22.711  53.994  1.00  0.00     0.279 HD
HETATM   15  H   UNL     1       7.427  22.977  53.159  1.00  0.00     0.279 HD
HETATM   16  C   UNL     1       7.452  25.535  52.900  1.00  0.00     0.046 C 
HETATM   17  C   UNL     1       5.235  24.485  52.543  1.00  0.00     0.046 C 
HETATM   18  C   UNL     1       5.744  25.408  54.821  1.00  0.00     0.063 C 
ENDBRANCH   1   7
BRANCH   3  19
HETATM   19  C   UNL     1       9.097  29.433  57.331  1.00  0.00     0.077 A 
HETATM   20  C   UNL     1      10.457  29.769  57.282  1.00  0.00     0.143 A 
HETATM   21  F   UNL     1      11.300  28.990  56.585  1.00  0.00    -0.204 F 
HETATM   22  C   UNL     1      10.952  30.897  57.923  1.00  0.00     0.047 A 
HETATM   23  C   UNL     1      10.077  31.704  58.643  1.00  0.00     0.040 A 
HETATM   24  C   UNL     1       8.717  31.383  58.724  1.00  0.00     0.070 A 
HETATM   25  C   UNL     1       8.229  30.250  58.061  1.00  0.00     0.069 A 
BRANCH  24  26
HETATM   26  O   UNL     1       7.977  32.255  59.474  1.00  0.00    -0.356 OA
HETATM   27  C   UNL     1       7.512  31.793  60.736  1.00  0.00     0.210 C 
ENDBRANCH  24  26
ENDBRANCH   3  19
TORSDOF 3
ENDMDL
MODEL 2
REMARK VINA RESULT:      -7.8      3.428      7.634
REMARK  3 active torsions:
REMARK  status: ('A' for Active; 'I' for Inactive)
REMARK    1  A    between atoms: C_11  and  N_12 
REMARK       I    between atoms: N_12  and  C_13 
REMARK       I    between atoms: C_13  and  N_14 
REMARK    2  A    between atoms: N_14  and  C_15 
REMARK    3  A    between atoms: C_20  and  O_21 
ROOT
HETATM    1  N   UNL     1       5.251  26.532  55.303  1.00  0.00    -0.338 N 
HETATM    2  C   UNL     1       5.829  25.307  55.600  1.00  0.00     0.321 C 
HETATM    3  N   UNL     1       6.366  24.726  54.475  1.00  0.00    -0.306 N 
HETATM    4  O   UNL     1       5.811  24.830  56.724  1.00  0.00    -0.247 OA
HETATM    5  H   UNL     1       5.673  26.940  54.479  1.00  0.00     0.164 HD
HETATM    6  H   UNL     1       6.327  25.236  53.602  1.00  0.00     0.171 HD
ENDROOT
BRANCH   1   7
HETATM    7  C   UNL     1       4.896  27.507  56.334  1.00  0.00     0.091 C 
HETATM    8  C   UNL     1       3.998  28.690  55.944  1.00  0.00     0.063 C 
HETATM    9  C   UNL     1       4.657  29.758  55.070  1.00  0.00     0.121 C 
HETATM   10  N   UNL     1       5.968  30.176  55.707  1.00  0.00    -0.059 N 
HETATM   11  C   UNL     1       4.882  29.350  53.612  1.00  0.00     0.046 C 
HETATM   12  C   UNL     1       3.768  31.020  55.064  1.00  0.00     0.046 C 
HETATM   13  C   UNL     1       6.922  29.131  56.244  1.00  0.00     0.121 C 
HETATM   14  H   UNL     1       5.731  30.805  56.487  1.00  0.00     0.279 HD
HETATM   15  H   UNL     1       6.474  30.781  55.043  1.00  0.00     0.279 HD
HETATM   16  C   UNL     1       7.786  28.571  55.109  1.00  0.00     0.046 C 
HETATM   17  C   UNL     1       7.863  29.878  57.214  1.00  0.00     0.046 C 
HETATM   18  C   UNL     1       6.153  28.050  57.028  1.00  0.00     0.063 C 
ENDBRANCH   1   7
BRANCH   3  19
HETATM   19  C   UNL     1       7.062  23.496  54.388  1.00  0.00     0.077 A 
HETATM   20  C   UNL     1       7.447  23.083  53.105  1.00  0.00     0.143 A 
HETATM   21  F   UNL     1       7.137  23.851  52.048  1.00  0.00    -0.204 F 
HETATM   22  C   UNL     1       8.154  21.905  52.901  1.00  0.00     0.047 A 
HETATM   23  C   UNL     1       8.477  21.111  53.997  1.00  0.00     0.040 A 
HETATM   24  C   UNL     1       8.090  21.491  55.287  1.00  0.00     0.070 A 
HETATM   25  C   UNL     1       7.390  22.687  55.481  1.00  0.00     0.069 A 
BRANCH  24  26
HETATM   26  O   UNL     1       8.461  20.611  56.267  1.00  0.00    -0.356 OA
HETATM   27  C   UNL     1       8.457  21.090  57.606  1.00  0.00     0.210 C 
ENDBRANCH  24  26
ENDBRANCH   3  19
TORSDOF 3
ENDMDL
MODEL 3
REMARK VINA RESULT:      -7.8      5.246      8.429
REMARK  3 active torsions:
REMARK  status: ('A' for Active; 'I' for Inactive)
REMARK    1  A    between atoms: C_11  and  N_12 
REMARK       I    between atoms: N_12  and  C_13 
REMARK       I    between atoms: C_13  and  N_14 
REMARK    2  A    between atoms: N_14  and  C_15 
REMARK    3  A    between atoms: C_20  and  O_21 
ROOT
HETATM    1  N   UNL     1       5.350  27.083  50.343  1.00  0.00    -0.338 N 
HETATM    2  C   UNL     1       5.481  26.391  51.538  1.00  0.00     0.321 C 
HETATM    3  N   UNL     1       6.637  25.648  51.558  1.00  0.00    -0.306 N 
HETATM    4  O   UNL     1       4.635  26.439  52.418  1.00  0.00    -0.247 OA
HETATM    5  H   UNL     1       6.255  27.248  49.921  1.00  0.00     0.164 HD
HETATM    6  H   UNL     1       7.264  25.708  50.765  1.00  0.00     0.171 HD
ENDROOT
BRANCH   1   7
HETATM    7  C   UNL     1       4.403  28.185  50.170  1.00  0.00     0.091 C 
HETATM    8  C   UNL     1       2.941  27.847  49.842  1.00  0.00     0.063 C 
HETATM    9  C   UNL     1       2.687  27.321  48.429  1.00  0.00     0.121 C 
HETATM   10  N   UNL     1       3.332  28.261  47.429  1.00  0.00    -0.059 N 
HETATM   11  C   UNL     1       3.153  25.884  48.182  1.00  0.00     0.046 C 
HETATM   12  C   UNL     1       1.171  27.370  48.140  1.00  0.00     0.046 C 
HETATM   13  C   UNL     1       4.736  28.776  47.661  1.00  0.00     0.121 C 
HETATM   14  H   UNL     1       2.714  29.081  47.352  1.00  0.00     0.279 HD
HETATM   15  H   UNL     1       3.285  27.825  46.495  1.00  0.00     0.279 HD
HETATM   16  C   UNL     1       5.762  27.745  47.179  1.00  0.00     0.046 C 
HETATM   17  C   UNL     1       4.881  30.025  46.766  1.00  0.00     0.046 C 
HETATM   18  C   UNL     1       4.921  29.192  49.133  1.00  0.00     0.063 C 
ENDBRANCH   1   7
BRANCH   3  19
HETATM   19  C   UNL     1       7.126  24.841  52.613  1.00  0.00     0.077 A 
HETATM   20  C   UNL     1       7.667  25.513  53.718  1.00  0.00     0.143 A 
HETATM   21  F   UNL     1       7.700  26.855  53.717  1.00  0.00    -0.204 F 
HETATM   22  C   UNL     1       8.157  24.825  54.821  1.00  0.00     0.047 A 
HETATM   23  C   UNL     1       8.120  23.434  54.821  1.00  0.00     0.040 A 
HETATM   24  C   UNL     1       7.601  22.737  53.724  1.00  0.00     0.070 A 
HETATM   25  C   UNL     1       7.099  23.443  52.624  1.00  0.00     0.069 A 
BRANCH  24  26
HETATM   26  O   UNL     1       7.640  21.375  53.854  1.00  0.00    -0.356 OA
HETATM   27  C   UNL     1       8.311  20.644  52.835  1.00  0.00     0.210 C 
ENDBRANCH  24  26
ENDBRANCH   3  19
TORSDOF 3
ENDMDL
MODEL 4
REMARK VINA RESULT:      -7.6      3.259      7.802
REMARK  3 active torsions:
REMARK  status: ('A' for Active; 'I' for Inactive)
REMARK    1  A    between atoms: C_11  and  N_12 
REMARK       I    between atoms: N_12  and  C_13 
REMARK       I    between atoms: C_13  and  N_14 
REMARK    2  A    between atoms: N_14  and  C_15 
REMARK    3  A    between atoms: C_20  and  O_21 
ROOT
HETATM    1  N   UNL     1       6.977  26.303  56.073  1.00  0.00    -0.338 N 
HETATM    2  C   UNL     1       6.827  24.926  56.014  1.00  0.00     0.321 C 
HETATM    3  N   UNL     1       8.037  24.302  55.821  1.00  0.00    -0.306 N 
HETATM    4  O   UNL     1       5.736  24.383  56.096  1.00  0.00    -0.247 OA
HETATM    5  H   UNL     1       7.911  26.552  56.375  1.00  0.00     0.164 HD
HETATM    6  H   UNL     1       8.873  24.870  55.785  1.00  0.00     0.171 HD
ENDROOT
BRANCH   1   7
HETATM    7  C   UNL     1       5.931  27.190  56.584  1.00  0.00     0.091 C 
HETATM    8  C   UNL     1       4.944  27.807  55.583  1.00  0.00     0.063 C 
HETATM    9  C   UNL     1       5.517  28.900  54.679  1.00  0.00     0.121 C 
HETATM   10  N   UNL     1       6.234  29.925  55.537  1.00  0.00    -0.059 N 
HETATM   11  C   UNL     1       6.445  28.397  53.569  1.00  0.00     0.046 C 
HETATM   12  C   UNL     1       4.353  29.653  54.001  1.00  0.00     0.046 C 
HETATM   13  C   UNL     1       7.163  29.477  56.644  1.00  0.00     0.121 C 
HETATM   14  H   UNL     1       5.505  30.512  55.967  1.00  0.00     0.279 HD
HETATM   15  H   UNL     1       6.741  30.572  54.915  1.00  0.00     0.279 HD
HETATM   16  C   UNL     1       8.549  29.158  56.074  1.00  0.00     0.046 C 
HETATM   17  C   UNL     1       7.319  30.694  57.582  1.00  0.00     0.046 C 
HETATM   18  C   UNL     1       6.537  28.314  57.437  1.00  0.00     0.063 C 
ENDBRANCH   1   7
BRANCH   3  19
HETATM   19  C   UNL     1       8.287  22.910  55.741  1.00  0.00     0.077 A 
HETATM   20  C   UNL     1       8.422  22.227  56.958  1.00  0.00     0.143 A 
HETATM   21  F   UNL     1       8.318  22.910  58.109  1.00  0.00    -0.204 F 
HETATM   22  C   UNL     1       8.647  20.857  57.003  1.00  0.00     0.047 A 
HETATM   23  C   UNL     1       8.754  20.150  55.809  1.00  0.00     0.040 A 
HETATM   24  C   UNL     1       8.639  20.810  54.580  1.00  0.00     0.070 A 
HETATM   25  C   UNL     1       8.399  22.189  54.550  1.00  0.00     0.069 A 
BRANCH  24  26
HETATM   26  O   UNL     1       8.778  19.995  53.490  1.00  0.00    -0.356 OA
HETATM   27  C   UNL     1       8.106  20.384  52.298  1.00  0.00     0.210 C 
ENDBRANCH  24  26
ENDBRANCH   3  19
TORSDOF 3
ENDMDL
MODEL 5
REMARK VINA RESULT:      -7.5      5.361      8.397
REMARK  3 active torsions:
REMARK  status: ('A' for Active; 'I' for Inactive)
REMARK    1  A    between atoms: C_11  and  N_12 
REMARK       I    between atoms: N_12  and  C_13 
REMARK       I    between atoms: C_13  and  N_14 
REMARK    2  A    between atoms: N_14  and  C_15 
REMARK    3  A    between atoms: C_20  and  O_21 
ROOT
HETATM    1  N   UNL     1       4.195  26.884  50.199  1.00  0.00    -0.338 N 
HETATM    2  C   UNL     1       5.114  26.395  51.116  1.00  0.00     0.321 C 
HETATM    3  N   UNL     1       4.586  26.375  52.385  1.00  0.00    -0.306 N 
HETATM    4  O   UNL     1       6.246  26.068  50.797  1.00  0.00    -0.247 OA
HETATM    5  H   UNL     1       3.248  26.739  50.524  1.00  0.00     0.164 HD
HETATM    6  H   UNL     1       3.624  26.661  52.513  1.00  0.00     0.171 HD
ENDROOT
BRANCH   1   7
HETATM    7  C   UNL     1       4.360  26.721  48.755  1.00  0.00     0.091 C 
HETATM    8  C   UNL     1       5.028  27.854  47.963  1.00  0.00     0.063 C 
HETATM    9  C   UNL     1       4.191  29.122  47.789  1.00  0.00     0.121 C 
HETATM   10  N   UNL     1       2.821  28.740  47.262  1.00  0.00    -0.059 N 
HETATM   11  C   UNL     1       4.053  29.981  49.048  1.00  0.00     0.046 C 
HETATM   12  C   UNL     1       4.834  30.003  46.697  1.00  0.00     0.046 C 
HETATM   13  C   UNL     1       2.071  27.571  47.865  1.00  0.00     0.121 C 
HETATM   14  H   UNL     1       2.934  28.546  46.257  1.00  0.00     0.279 HD
HETATM   15  H   UNL     1       2.217  29.575  47.289  1.00  0.00     0.279 HD
HETATM   16  C   UNL     1       1.331  28.016  49.131  1.00  0.00     0.046 C 
HETATM   17  C   UNL     1       1.003  27.173  46.823  1.00  0.00     0.046 C 
HETATM   18  C   UNL     1       3.020  26.378  48.088  1.00  0.00     0.063 C 
ENDBRANCH   1   7
BRANCH   3  19
HETATM   19  C   UNL     1       5.208  25.914  53.571  1.00  0.00     0.077 A 
HETATM   20  C   UNL     1       5.193  26.789  54.667  1.00  0.00     0.143 A 
HETATM   21  F   UNL     1       4.610  27.992  54.538  1.00  0.00    -0.204 F 
HETATM   22  C   UNL     1       5.752  26.436  55.888  1.00  0.00     0.047 A 
HETATM   23  C   UNL     1       6.354  25.188  56.021  1.00  0.00     0.040 A 
HETATM   24  C   UNL     1       6.398  24.302  54.938  1.00  0.00     0.070 A 
HETATM   25  C   UNL     1       5.818  24.665  53.717  1.00  0.00     0.069 A 
BRANCH  24  26
HETATM   26  O   UNL     1       7.031  23.119  55.206  1.00  0.00    -0.356 OA
HETATM   27  C   UNL     1       7.878  22.591  54.192  1.00  0.00     0.210 C 
ENDBRANCH  24  26
ENDBRANCH   3  19
TORSDOF 3
ENDMDL
MODEL 6
REMARK VINA RESULT:      -7.5      4.696      8.313
REMARK  3 active torsions:
REMARK  status: ('A' for Active; 'I' for Inactive)
REMARK    1  A    between atoms: C_11  and  N_12 
REMARK       I    between atoms: N_12  and  C_13 
REMARK       I    between atoms: C_13  and  N_14 
REMARK    2  A    between atoms: N_14  and  C_15 
REMARK    3  A    between atoms: C_20  and  O_21 
ROOT
HETATM    1  N   UNL     1       5.925  28.834  53.815  1.00  0.00    -0.338 N 
HETATM    2  C   UNL     1       5.091  28.584  52.735  1.00  0.00     0.321 C 
HETATM    3  N   UNL     1       5.815  28.234  51.620  1.00  0.00    -0.306 N 
HETATM    4  O   UNL     1       3.878  28.704  52.804  1.00  0.00    -0.247 OA
HETATM    5  H   UNL     1       6.801  28.336  53.718  1.00  0.00     0.164 HD
HETATM    6  H   UNL     1       6.820  28.156  51.701  1.00  0.00     0.171 HD
ENDROOT
BRANCH   1   7
HETATM    7  C   UNL     1       5.433  28.910  55.191  1.00  0.00     0.091 C 
HETATM    8  C   UNL     1       6.269  29.677  56.225  1.00  0.00     0.063 C 
HETATM    9  C   UNL     1       7.568  28.998  56.659  1.00  0.00     0.121 C 
HETATM   10  N   UNL     1       7.265  27.568  57.064  1.00  0.00    -0.059 N 
HETATM   11  C   UNL     1       8.690  29.027  55.618  1.00  0.00     0.046 C 
HETATM   12  C   UNL     1       8.099  29.694  57.930  1.00  0.00     0.046 C 
HETATM   13  C   UNL     1       6.365  26.706  56.205  1.00  0.00     0.121 C 
HETATM   14  H   UNL     1       6.845  27.609  58.003  1.00  0.00     0.279 HD
HETATM   15  H   UNL     1       8.159  27.075  57.211  1.00  0.00     0.279 HD
HETATM   16  C   UNL     1       7.167  26.088  55.055  1.00  0.00     0.046 C 
HETATM   17  C   UNL     1       5.896  25.550  57.114  1.00  0.00     0.046 C 
HETATM   18  C   UNL     1       5.134  27.508  55.741  1.00  0.00     0.063 C 
ENDBRANCH   1   7
BRANCH   3  19
HETATM   19  C   UNL     1       5.314  27.877  50.344  1.00  0.00     0.077 A 
HETATM   20  C   UNL     1       5.586  28.765  49.294  1.00  0.00     0.143 A 
HETATM   21  F   UNL     1       6.283  29.885  49.545  1.00  0.00    -0.204 F 
HETATM   22  C   UNL     1       5.165  28.508  47.996  1.00  0.00     0.047 A 
HETATM   23  C   UNL     1       4.444  27.346  47.736  1.00  0.00     0.040 A 
HETATM   24  C   UNL     1       4.144  26.451  48.769  1.00  0.00     0.070 A 
HETATM   25  C   UNL     1       4.587  26.715  50.070  1.00  0.00     0.069 A 
BRANCH  24  26
HETATM   26  O   UNL     1       3.419  25.359  48.374  1.00  0.00    -0.356 OA
HETATM   27  C   UNL     1       2.849  25.394  47.072  1.00  0.00     0.210 C 
ENDBRANCH  24  26
ENDBRANCH   3  19
TORSDOF 3
ENDMDL
MODEL 7
REMARK VINA RESULT:      -7.4      5.631      8.543
REMARK  3 active torsions:
REMARK  status: ('A' for Active; 'I' for Inactive)
REMARK    1  A    between atoms: C_11  and  N_12 
REMARK       I    between atoms: N_12  and  C_13 
REMARK       I    between atoms: C_13  and  N_14 
REMARK    2  A    between atoms: N_14  and  C_15 
REMARK    3  A    between atoms: C_20  and  O_21 
ROOT
HETATM    1  N   UNL     1       5.444  26.765  52.120  1.00  0.00    -0.338 N 
HETATM    2  C   UNL     1       4.623  27.606  51.384  1.00  0.00     0.321 C 
HETATM    3  N   UNL     1       5.002  27.638  50.063  1.00  0.00    -0.306 N 
HETATM    4  O   UNL     1       3.713  28.241  51.893  1.00  0.00    -0.247 OA
HETATM    5  H   UNL     1       5.858  26.056  51.529  1.00  0.00     0.164 HD
HETATM    6  H   UNL     1       5.769  27.049  49.766  1.00  0.00     0.171 HD
ENDROOT
BRANCH   1   7
HETATM    7  C   UNL     1       5.090  26.290  53.458  1.00  0.00     0.091 C 
HETATM    8  C   UNL     1       5.525  27.128  54.669  1.00  0.00     0.063 C 
HETATM    9  C   UNL     1       7.021  27.102  54.986  1.00  0.00     0.121 C 
HETATM   10  N   UNL     1       7.488  25.661  55.046  1.00  0.00    -0.059 N 
HETATM   11  C   UNL     1       7.898  27.904  54.022  1.00  0.00     0.046 C 
HETATM   12  C   UNL     1       7.244  27.679  56.401  1.00  0.00     0.046 C 
HETATM   13  C   UNL     1       7.057  24.675  53.981  1.00  0.00     0.121 C 
HETATM   14  H   UNL     1       7.179  25.286  55.954  1.00  0.00     0.279 HD
HETATM   15  H   UNL     1       8.517  25.655  55.110  1.00  0.00     0.279 HD
HETATM   16  C   UNL     1       7.963  24.796  52.752  1.00  0.00     0.046 C 
HETATM   17  C   UNL     1       7.287  23.273  54.587  1.00  0.00     0.046 C 
HETATM   18  C   UNL     1       5.558  24.843  53.666  1.00  0.00     0.063 C 
ENDBRANCH   1   7
BRANCH   3  19
HETATM   19  C   UNL     1       4.388  28.354  49.006  1.00  0.00     0.077 A 
HETATM   20  C   UNL     1       4.999  29.557  48.626  1.00  0.00     0.143 A 
HETATM   21  F   UNL     1       6.104  29.963  49.271  1.00  0.00    -0.204 F 
HETATM   22  C   UNL     1       4.499  30.331  47.587  1.00  0.00     0.047 A 
HETATM   23  C   UNL     1       3.354  29.908  46.918  1.00  0.00     0.040 A 
HETATM   24  C   UNL     1       2.714  28.720  47.289  1.00  0.00     0.070 A 
HETATM   25  C   UNL     1       3.237  27.941  48.328  1.00  0.00     0.069 A 
BRANCH  24  26
HETATM   26  O   UNL     1       1.594  28.432  46.556  1.00  0.00    -0.356 OA
HETATM   27  C   UNL     1       0.618  27.594  47.163  1.00  0.00     0.210 C 
ENDBRANCH  24  26
ENDBRANCH   3  19
TORSDOF 3
ENDMDL
MODEL 8
REMARK VINA RESULT:      -7.4      5.439      7.714
REMARK  3 active torsions:
REMARK  status: ('A' for Active; 'I' for Inactive)
REMARK    1  A    between atoms: C_11  and  N_12 
REMARK       I    between atoms: N_12  and  C_13 
REMARK       I    between atoms: C_13  and  N_14 
REMARK    2  A    between atoms: N_14  and  C_15 
REMARK    3  A    between atoms: C_20  and  O_21 
ROOT
HETATM    1  N   UNL     1       4.015  27.775  50.612  1.00  0.00    -0.338 N 
HETATM    2  C   UNL     1       4.252  27.690  51.976  1.00  0.00     0.321 C 
HETATM    3  N   UNL     1       5.364  26.927  52.241  1.00  0.00    -0.306 N 
HETATM    4  O   UNL     1       3.520  28.216  52.801  1.00  0.00    -0.247 OA
HETATM    5  H   UNL     1       4.870  27.640  50.088  1.00  0.00     0.164 HD
HETATM    6  H   UNL     1       5.894  26.559  51.462  1.00  0.00     0.171 HD
ENDROOT
BRANCH   1   7
HETATM    7  C   UNL     1       3.110  28.766  50.029  1.00  0.00     0.091 C 
HETATM    8  C   UNL     1       1.841  28.269  49.321  1.00  0.00     0.063 C 
HETATM    9  C   UNL     1       2.063  27.583  47.972  1.00  0.00     0.121 C 
HETATM   10  N   UNL     1       2.934  28.471  47.105  1.00  0.00    -0.059 N 
HETATM   11  C   UNL     1       2.658  26.176  48.055  1.00  0.00     0.046 C 
HETATM   12  C   UNL     1       0.710  27.470  47.238  1.00  0.00     0.046 C 
HETATM   13  C   UNL     1       4.169  29.128  47.683  1.00  0.00     0.121 C 
HETATM   14  H   UNL     1       2.327  29.222  46.746  1.00  0.00     0.279 HD
HETATM   15  H   UNL     1       3.201  27.941  46.261  1.00  0.00     0.279 HD
HETATM   16  C   UNL     1       5.347  28.149  47.662  1.00  0.00     0.046 C 
HETATM   17  C   UNL     1       4.516  30.289  46.727  1.00  0.00     0.046 C 
HETATM   18  C   UNL     1       3.868  29.705  49.080  1.00  0.00     0.063 C 
ENDBRANCH   1   7
BRANCH   3  19
HETATM   19  C   UNL     1       5.934  26.642  53.506  1.00  0.00     0.077 A 
HETATM   20  C   UNL     1       5.595  25.410  54.082  1.00  0.00     0.143 A 
HETATM   21  F   UNL     1       4.763  24.585  53.426  1.00  0.00    -0.204 F 
HETATM   22  C   UNL     1       6.111  25.014  55.309  1.00  0.00     0.047 A 
HETATM   23  C   UNL     1       6.976  25.868  55.987  1.00  0.00     0.040 A 
HETATM   24  C   UNL     1       7.317  27.111  55.443  1.00  0.00     0.070 A 
HETATM   25  C   UNL     1       6.800  27.493  54.199  1.00  0.00     0.069 A 
BRANCH  24  26
HETATM   26  O   UNL     1       8.163  27.853  56.221  1.00  0.00    -0.356 OA
HETATM   27  C   UNL     1       8.589  29.109  55.705  1.00  0.00     0.210 C 
ENDBRANCH  24  26
ENDBRANCH   3  19
TORSDOF 3
ENDMDL
MODEL 9
REMARK VINA RESULT:      -7.3      4.965      8.062
REMARK  3 active torsions:
REMARK  status: ('A' for Active; 'I' for Inactive)
REMARK    1  A    between atoms: C_11  and  N_12 
REMARK       I    between atoms: N_12  and  C_13 
REMARK       I    between atoms: C_13  and  N_14 
REMARK    2  A    between atoms: N_14  and  C_15 
REMARK    3  A    between atoms: C_20  and  O_21 
ROOT
HETATM    1  N   UNL     1       4.489  28.253  51.835  1.00  0.00    -0.338 N 
HETATM    2  C   UNL     1       5.427  27.687  52.686  1.00  0.00     0.321 C 
HETATM    3  N   UNL     1       4.962  26.512  53.228  1.00  0.00    -0.306 N 
HETATM    4  O   UNL     1       6.502  28.217  52.918  1.00  0.00    -0.247 OA
HETATM    5  H   UNL     1       3.868  27.546  51.461  1.00  0.00     0.164 HD
HETATM    6  H   UNL     1       4.053  26.173  52.939  1.00  0.00     0.171 HD
ENDROOT
BRANCH   1   7
HETATM    7  C   UNL     1       4.823  29.313  50.885  1.00  0.00     0.091 C 
HETATM    8  C   UNL     1       3.701  30.247  50.408  1.00  0.00     0.063 C 
HETATM    9  C   UNL     1       2.685  29.622  49.450  1.00  0.00     0.121 C 
HETATM   10  N   UNL     1       3.429  28.938  48.319  1.00  0.00    -0.059 N 
HETATM   11  C   UNL     1       1.700  28.648  50.101  1.00  0.00     0.046 C 
HETATM   12  C   UNL     1       1.857  30.747  48.793  1.00  0.00     0.046 C 
HETATM   13  C   UNL     1       4.630  28.066  48.614  1.00  0.00     0.121 C 
HETATM   14  H   UNL     1       3.740  29.681  47.677  1.00  0.00     0.279 HD
HETATM   15  H   UNL     1       2.750  28.396  47.764  1.00  0.00     0.279 HD
HETATM   16  C   UNL     1       4.175  26.657  49.011  1.00  0.00     0.046 C 
HETATM   17  C   UNL     1       5.400  27.943  47.281  1.00  0.00     0.046 C 
HETATM   18  C   UNL     1       5.543  28.739  49.657  1.00  0.00     0.063 C 
ENDBRANCH   1   7
BRANCH   3  19
HETATM   19  C   UNL     1       5.644  25.639  54.110  1.00  0.00     0.077 A 
HETATM   20  C   UNL     1       5.589  25.958  55.474  1.00  0.00     0.143 A 
HETATM   21  F   UNL     1       4.916  27.052  55.865  1.00  0.00    -0.204 F 
HETATM   22  C   UNL     1       6.202  25.163  56.433  1.00  0.00     0.047 A 
HETATM   23  C   UNL     1       6.899  24.028  56.026  1.00  0.00     0.040 A 
HETATM   24  C   UNL     1       6.984  23.696  54.670  1.00  0.00     0.070 A 
HETATM   25  C   UNL     1       6.350  24.499  53.714  1.00  0.00     0.069 A 
BRANCH  24  26
HETATM   26  O   UNL     1       7.709  22.564  54.413  1.00  0.00    -0.356 OA
HETATM   27  C   UNL     1       7.846  22.175  53.051  1.00  0.00     0.210 C 
ENDBRANCH  24  26
ENDBRANCH   3  19
TORSDOF 3
ENDMDL
MODEL 10
REMARK VINA RESULT:      -7.3      6.040      8.665
REMARK  3 active torsions:
REMARK  status: ('A' for Active; 'I' for Inactive)
REMARK    1  A    between atoms: C_11  and  N_12 
REMARK       I    between atoms: N_12  and  C_13 
REMARK       I    between atoms: C_13  and  N_14 
REMARK    2  A    between atoms: N_14  and  C_15 
REMARK    3  A    between atoms: C_20  and  O_21 
ROOT
HETATM    1  N   UNL     1       5.414  26.669  51.811  1.00  0.00    -0.338 N 
HETATM    2  C   UNL     1       4.645  27.595  51.121  1.00  0.00     0.321 C 
HETATM    3  N   UNL     1       5.030  27.678  49.804  1.00  0.00    -0.306 N 
HETATM    4  O   UNL     1       3.771  28.253  51.664  1.00  0.00    -0.247 OA
HETATM    5  H   UNL     1       5.790  25.971  51.181  1.00  0.00     0.164 HD
HETATM    6  H   UNL     1       5.763  27.063  49.475  1.00  0.00     0.171 HD
ENDROOT
BRANCH   1   7
HETATM    7  C   UNL     1       5.029  26.143  53.120  1.00  0.00     0.091 C 
HETATM    8  C   UNL     1       5.395  26.956  54.370  1.00  0.00     0.063 C 
HETATM    9  C   UNL     1       6.879  26.968  54.740  1.00  0.00     0.121 C 
HETATM   10  N   UNL     1       7.390  25.541  54.774  1.00  0.00    -0.059 N 
HETATM   11  C   UNL     1       7.762  27.826  53.832  1.00  0.00     0.046 C 
HETATM   12  C   UNL     1       7.033  27.508  56.178  1.00  0.00     0.046 C 
HETATM   13  C   UNL     1       7.029  24.575  53.666  1.00  0.00     0.121 C 
HETATM   14  H   UNL     1       7.061  25.129  55.659  1.00  0.00     0.279 HD
HETATM   15  H   UNL     1       8.416  25.565  54.875  1.00  0.00     0.279 HD
HETATM   16  C   UNL     1       7.973  24.762  52.474  1.00  0.00     0.046 C 
HETATM   17  C   UNL     1       7.282  23.163  54.238  1.00  0.00     0.046 C 
HETATM   18  C   UNL     1       5.537  24.706  53.302  1.00  0.00     0.063 C 
ENDBRANCH   1   7
BRANCH   3  19
HETATM   19  C   UNL     1       4.461  28.484  48.788  1.00  0.00     0.077 A 
HETATM   20  C   UNL     1       3.279  28.012  48.202  1.00  0.00     0.143 A 
HETATM   21  F   UNL     1       2.761  26.845  48.617  1.00  0.00    -0.204 F 
HETATM   22  C   UNL     1       2.620  28.730  47.212  1.00  0.00     0.047 A 
HETATM   23  C   UNL     1       3.157  29.941  46.783  1.00  0.00     0.040 A 
HETATM   24  C   UNL     1       4.346  30.427  47.340  1.00  0.00     0.070 A 
HETATM   25  C   UNL     1       4.992  29.700  48.347  1.00  0.00     0.069 A 
BRANCH  24  26
HETATM   26  O   UNL     1       4.765  31.620  46.816  1.00  0.00    -0.356 OA
HETATM   27  C   UNL     1       4.721  31.759  45.401  1.00  0.00     0.210 C 
ENDBRANCH  24  26
ENDBRANCH   3  19
TORSDOF 3
ENDMDL
