MODEL 1
REMARK VINA RESULT:      -9.1      0.000      0.000
REMARK  2 active torsions:
REMARK  status: ('A' for Active; 'I' for Inactive)
REMARK    1  A    between atoms: N_9  and  N_11 
REMARK       I    between atoms: N_11  and  C_12 
REMARK    2  A    between atoms: C_12  and  C_13 
ROOT
HETATM    1  C   UNL     1       7.286  26.971  52.585  1.00  0.00     0.033 C 
HETATM    2  C   UNL     1       7.387  25.880  53.652  1.00  0.00     0.086 C 
HETATM    3  N   UNL     1       6.832  24.609  53.147  1.00  0.00    -0.379 N 
HETATM    4  C   UNL     1       5.428  24.523  52.744  1.00  0.00     0.150 C 
HETATM    5  C   UNL     1       7.290  23.417  53.748  1.00  0.00     0.052 A 
HETATM    6  C   UNL     1       7.244  23.146  55.138  1.00  0.00     0.040 A 
HETATM    7  N   UNL     1       6.701  24.085  56.083  1.00  0.00    -0.246 NA
HETATM    8  C   UNL     1       7.180  25.431  56.034  1.00  0.00     0.077 C 
HETATM    9  N   UNL     1       8.076  25.749  56.953  1.00  0.00    -0.291 N 
HETATM   10  H   UNL     1       8.293  24.990  57.609  1.00  0.00     0.188 HD
HETATM   11  C   UNL     1       6.736  26.340  54.961  1.00  0.00     0.096 C 
HETATM   12  C   UNL     1       7.762  22.406  52.896  1.00  0.00     0.031 A 
HETATM   13  C   UNL     1       8.177  21.169  53.394  1.00  0.00     0.002 A 
HETATM   14  C   UNL     1       8.114  20.913  54.761  1.00  0.00     0.002 A 
HETATM   15  C   UNL     1       7.640  21.895  55.629  1.00  0.00     0.026 A 
HETATM   16  H   UNL     1       5.728  24.110  55.762  1.00  0.00     0.135 HD
ENDROOT
BRANCH   9  17
HETATM   17  N   UNL     1       8.723  26.895  57.091  1.00  0.00    -0.265 N 
HETATM   18  C   UNL     1       8.022  27.952  57.648  1.00  0.00     0.270 C 
HETATM   19  O   UNL     1       6.848  27.853  57.993  1.00  0.00    -0.266 OA
HETATM   20  H   UNL     1       9.717  26.951  56.911  1.00  0.00     0.190 HD
BRANCH  18  21
HETATM   21  C   UNL     1       8.784  29.212  57.851  1.00  0.00     0.033 A 
HETATM   22  C   UNL     1      10.010  29.456  57.214  1.00  0.00     0.017 A 
HETATM   23  C   UNL     1      10.696  30.647  57.456  1.00  0.00     0.001 A 
HETATM   24  C   UNL     1      10.162  31.599  58.324  1.00  0.00     0.000 A 
HETATM   25  C   UNL     1       8.933  31.370  58.942  1.00  0.00     0.001 A 
HETATM   26  C   UNL     1       8.242  30.181  58.704  1.00  0.00     0.017 A 
ENDBRANCH  18  21
ENDBRANCH   9  17
TORSDOF 2
ENDMDL
MODEL 2
REMARK VINA RESULT:      -9.1      4.743      8.248
REMARK  2 active torsions:
REMARK  status: ('A' for Active; 'I' for Inactive)
REMARK    1  A    between atoms: N_9  and  N_11 
REMARK       I    between atoms: N_11  and  C_12 
REMARK    2  A    between atoms: C_12  and  C_13 
ROOT
HETATM    1  C   UNL     1       4.467  28.122  54.340  1.00  0.00     0.033 C 
HETATM    2  C   UNL     1       5.232  27.044  53.571  1.00  0.00     0.086 C 
HETATM    3  N   UNL     1       6.298  26.466  54.413  1.00  0.00    -0.379 N 
HETATM    4  C   UNL     1       7.377  27.311  54.924  1.00  0.00     0.150 C 
HETATM    5  C   UNL     1       6.742  25.166  54.094  1.00  0.00     0.052 A 
HETATM    6  C   UNL     1       7.220  24.767  52.820  1.00  0.00     0.040 A 
HETATM    7  N   UNL     1       7.306  25.683  51.714  1.00  0.00    -0.246 NA
HETATM    8  C   UNL     1       6.143  26.451  51.395  1.00  0.00     0.077 C 
HETATM    9  N   UNL     1       5.439  26.015  50.364  1.00  0.00    -0.291 N 
HETATM   10  H   UNL     1       5.838  25.189  49.902  1.00  0.00     0.188 HD
HETATM   11  C   UNL     1       5.753  27.595  52.239  1.00  0.00     0.096 C 
HETATM   12  C   UNL     1       6.773  24.221  55.133  1.00  0.00     0.031 A 
HETATM   13  C   UNL     1       7.257  22.928  54.926  1.00  0.00     0.002 A 
HETATM   14  C   UNL     1       7.735  22.555  53.673  1.00  0.00     0.002 A 
HETATM   15  C   UNL     1       7.725  23.474  52.626  1.00  0.00     0.026 A 
HETATM   16  H   UNL     1       7.997  26.341  52.088  1.00  0.00     0.135 HD
ENDROOT
BRANCH   9  17
HETATM   17  N   UNL     1       4.297  26.497  49.901  1.00  0.00    -0.265 N 
HETATM   18  C   UNL     1       4.184  26.645  48.529  1.00  0.00     0.270 C 
HETATM   19  O   UNL     1       5.098  26.358  47.761  1.00  0.00    -0.266 OA
HETATM   20  H   UNL     1       3.505  26.630  50.518  1.00  0.00     0.190 HD
BRANCH  18  21
HETATM   21  C   UNL     1       2.872  27.128  48.025  1.00  0.00     0.033 A 
HETATM   22  C   UNL     1       2.169  26.461  47.012  1.00  0.00     0.017 A 
HETATM   23  C   UNL     1       0.950  26.969  46.559  1.00  0.00     0.001 A 
HETATM   24  C   UNL     1       0.426  28.135  47.119  1.00  0.00     0.000 A 
HETATM   25  C   UNL     1       1.112  28.789  48.142  1.00  0.00     0.001 A 
HETATM   26  C   UNL     1       2.331  28.285  48.598  1.00  0.00     0.017 A 
ENDBRANCH  18  21
ENDBRANCH   9  17
TORSDOF 2
ENDMDL
MODEL 3
REMARK VINA RESULT:      -9.0      3.151      7.233
REMARK  2 active torsions:
REMARK  status: ('A' for Active; 'I' for Inactive)
REMARK    1  A    between atoms: N_9  and  N_11 
REMARK       I    between atoms: N_11  and  C_12 
REMARK    2  A    between atoms: C_12  and  C_13 
ROOT
HETATM    1  C   UNL     1       7.987  24.326  53.547  1.00  0.00     0.033 C 
HETATM    2  C   UNL     1       7.168  25.384  54.289  1.00  0.00     0.086 C 
HETATM    3  N   UNL     1       7.634  25.515  55.682  1.00  0.00    -0.379 N 
HETATM    4  C   UNL     1       7.570  24.373  56.595  1.00  0.00     0.150 C 
HETATM    5  C   UNL     1       7.381  26.739  56.338  1.00  0.00     0.052 A 
HETATM    6  C   UNL     1       6.100  27.331  56.472  1.00  0.00     0.040 A 
HETATM    7  N   UNL     1       4.912  26.713  55.945  1.00  0.00    -0.246 NA
HETATM    8  C   UNL     1       4.930  26.294  54.579  1.00  0.00     0.077 C 
HETATM    9  N   UNL     1       4.316  27.098  53.728  1.00  0.00    -0.291 N 
HETATM   10  H   UNL     1       3.875  27.915  54.167  1.00  0.00     0.188 HD
HETATM   11  C   UNL     1       5.669  25.080  54.184  1.00  0.00     0.096 C 
HETATM   12  C   UNL     1       8.468  27.376  56.957  1.00  0.00     0.031 A 
HETATM   13  C   UNL     1       8.302  28.558  57.682  1.00  0.00     0.002 A 
HETATM   14  C   UNL     1       7.036  29.121  57.816  1.00  0.00     0.002 A 
HETATM   15  C   UNL     1       5.937  28.505  57.220  1.00  0.00     0.026 A 
HETATM   16  H   UNL     1       4.896  25.860  56.512  1.00  0.00     0.135 HD
ENDROOT
BRANCH   9  17
HETATM   17  N   UNL     1       4.241  26.981  52.413  1.00  0.00    -0.265 N 
HETATM   18  C   UNL     1       5.087  27.777  51.659  1.00  0.00     0.270 C 
HETATM   19  O   UNL     1       5.871  28.571  52.172  1.00  0.00    -0.266 OA
HETATM   20  H   UNL     1       3.679  26.253  51.990  1.00  0.00     0.190 HD
BRANCH  18  21
HETATM   21  C   UNL     1       5.031  27.587  50.186  1.00  0.00     0.033 A 
HETATM   22  C   UNL     1       4.549  26.406  49.603  1.00  0.00     0.017 A 
HETATM   23  C   UNL     1       4.537  26.270  48.214  1.00  0.00     0.001 A 
HETATM   24  C   UNL     1       4.997  27.309  47.404  1.00  0.00     0.000 A 
HETATM   25  C   UNL     1       5.456  28.493  47.980  1.00  0.00     0.001 A 
HETATM   26  C   UNL     1       5.470  28.635  49.368  1.00  0.00     0.017 A 
ENDBRANCH  18  21
ENDBRANCH   9  17
TORSDOF 2
ENDMDL
MODEL 4
REMARK VINA RESULT:      -8.7     10.222     13.991
REMARK  2 active torsions:
REMARK  status: ('A' for Active; 'I' for Inactive)
REMARK    1  A    between atoms: N_9  and  N_11 
REMARK       I    between atoms: N_11  and  C_12 
REMARK    2  A    between atoms: C_12  and  C_13 
ROOT
HETATM    1  C   UNL     1       5.106  37.617  64.334  1.00  0.00     0.033 C 
HETATM    2  C   UNL     1       5.252  36.095  64.382  1.00  0.00     0.086 C 
HETATM    3  N   UNL     1       4.841  35.494  63.099  1.00  0.00    -0.379 N 
HETATM    4  C   UNL     1       3.472  35.661  62.608  1.00  0.00     0.150 C 
HETATM    5  C   UNL     1       5.375  34.229  62.774  1.00  0.00     0.052 A 
HETATM    6  C   UNL     1       5.284  33.080  63.600  1.00  0.00     0.040 A 
HETATM    7  N   UNL     1       4.611  33.103  64.871  1.00  0.00    -0.246 NA
HETATM    8  C   UNL     1       4.968  34.134  65.795  1.00  0.00     0.077 C 
HETATM    9  N   UNL     1       5.784  33.769  66.768  1.00  0.00    -0.291 N 
HETATM   10  H   UNL     1       6.036  32.773  66.753  1.00  0.00     0.188 HD
HETATM   11  C   UNL     1       4.497  35.516  65.584  1.00  0.00     0.096 C 
HETATM   12  C   UNL     1       5.979  34.088  61.515  1.00  0.00     0.031 A 
HETATM   13  C   UNL     1       6.479  32.858  61.081  1.00  0.00     0.002 A 
HETATM   14  C   UNL     1       6.371  31.736  61.898  1.00  0.00     0.002 A 
HETATM   15  C   UNL     1       5.767  31.845  63.149  1.00  0.00     0.026 A 
HETATM   16  H   UNL     1       3.657  33.309  64.558  1.00  0.00     0.135 HD
ENDROOT
BRANCH   9  17
HETATM   17  N   UNL     1       6.316  34.532  67.709  1.00  0.00    -0.265 N 
HETATM   18  C   UNL     1       5.860  34.348  69.004  1.00  0.00     0.270 C 
HETATM   19  O   UNL     1       4.991  33.527  69.283  1.00  0.00    -0.266 OA
HETATM   20  H   UNL     1       7.107  35.129  67.503  1.00  0.00     0.190 HD
BRANCH  18  21
HETATM   21  C   UNL     1       6.514  35.171  70.054  1.00  0.00     0.033 A 
HETATM   22  C   UNL     1       7.521  36.101  69.756  1.00  0.00     0.017 A 
HETATM   23  C   UNL     1       8.118  36.834  70.784  1.00  0.00     0.001 A 
HETATM   24  C   UNL     1       7.710  36.649  72.105  1.00  0.00     0.000 A 
HETATM   25  C   UNL     1       6.693  35.742  72.402  1.00  0.00     0.001 A 
HETATM   26  C   UNL     1       6.092  35.007  71.379  1.00  0.00     0.017 A 
ENDBRANCH  18  21
ENDBRANCH   9  17
TORSDOF 2
ENDMDL
MODEL 5
REMARK VINA RESULT:      -8.7      3.080      7.881
REMARK  2 active torsions:
REMARK  status: ('A' for Active; 'I' for Inactive)
REMARK    1  A    between atoms: N_9  and  N_11 
REMARK       I    between atoms: N_11  and  C_12 
REMARK    2  A    between atoms: C_12  and  C_13 
ROOT
HETATM    1  C   UNL     1       9.123  29.685  57.096  1.00  0.00     0.033 C 
HETATM    2  C   UNL     1       7.595  29.631  57.056  1.00  0.00     0.086 C 
HETATM    3  N   UNL     1       7.017  30.777  57.784  1.00  0.00    -0.379 N 
HETATM    4  C   UNL     1       7.286  30.960  59.211  1.00  0.00     0.150 C 
HETATM    5  C   UNL     1       5.712  31.178  57.430  1.00  0.00     0.052 A 
HETATM    6  C   UNL     1       4.581  30.324  57.422  1.00  0.00     0.040 A 
HETATM    7  N   UNL     1       4.666  28.937  57.795  1.00  0.00    -0.246 NA
HETATM    8  C   UNL     1       5.675  28.141  57.167  1.00  0.00     0.077 C 
HETATM    9  N   UNL     1       5.255  27.361  56.186  1.00  0.00    -0.291 N 
HETATM   10  H   UNL     1       4.243  27.405  56.018  1.00  0.00     0.188 HD
HETATM   11  C   UNL     1       7.087  28.278  57.569  1.00  0.00     0.096 C 
HETATM   12  C   UNL     1       5.513  32.536  57.131  1.00  0.00     0.031 A 
HETATM   13  C   UNL     1       4.244  33.036  56.831  1.00  0.00     0.002 A 
HETATM   14  C   UNL     1       3.141  32.188  56.840  1.00  0.00     0.002 A 
HETATM   15  C   UNL     1       3.307  30.837  57.143  1.00  0.00     0.026 A 
HETATM   16  H   UNL     1       4.944  29.038  58.776  1.00  0.00     0.135 HD
ENDROOT
BRANCH   9  17
HETATM   17  N   UNL     1       5.982  26.580  55.404  1.00  0.00    -0.265 N 
HETATM   18  C   UNL     1       6.075  25.244  55.758  1.00  0.00     0.270 C 
HETATM   19  O   UNL     1       5.524  24.789  56.756  1.00  0.00    -0.266 OA
HETATM   20  H   UNL     1       6.346  26.924  54.524  1.00  0.00     0.190 HD
BRANCH  18  21
HETATM   21  C   UNL     1       6.845  24.371  54.833  1.00  0.00     0.033 A 
HETATM   22  C   UNL     1       7.176  24.770  53.530  1.00  0.00     0.017 A 
HETATM   23  C   UNL     1       7.883  23.903  52.694  1.00  0.00     0.001 A 
HETATM   24  C   UNL     1       8.268  22.644  53.156  1.00  0.00     0.000 A 
HETATM   25  C   UNL     1       7.959  22.252  54.458  1.00  0.00     0.001 A 
HETATM   26  C   UNL     1       7.254  23.115  55.298  1.00  0.00     0.017 A 
ENDBRANCH  18  21
ENDBRANCH   9  17
TORSDOF 2
ENDMDL
MODEL 6
REMARK VINA RESULT:      -8.3      2.943      7.065
REMARK  2 active torsions:
REMARK  status: ('A' for Active; 'I' for Inactive)
REMARK    1  A    between atoms: N_9  and  N_11 
REMARK       I    between atoms: N_11  and  C_12 
REMARK    2  A    between atoms: C_12  and  C_13 
ROOT
HETATM    1  C   UNL     1       5.020  26.305  50.977  1.00  0.00     0.033 C 
HETATM    2  C   UNL     1       5.460  26.981  52.277  1.00  0.00     0.086 C 
HETATM    3  N   UNL     1       5.003  28.383  52.311  1.00  0.00    -0.379 N 
HETATM    4  C   UNL     1       5.455  29.335  51.296  1.00  0.00     0.150 C 
HETATM    5  C   UNL     1       4.852  28.985  53.579  1.00  0.00     0.052 A 
HETATM    6  C   UNL     1       5.869  29.055  54.564  1.00  0.00     0.040 A 
HETATM    7  N   UNL     1       7.184  28.514  54.346  1.00  0.00    -0.246 NA
HETATM    8  C   UNL     1       7.279  27.165  53.882  1.00  0.00     0.077 C 
HETATM    9  N   UNL     1       7.579  26.266  54.804  1.00  0.00    -0.291 N 
HETATM   10  H   UNL     1       7.735  26.660  55.739  1.00  0.00     0.188 HD
HETATM   11  C   UNL     1       6.973  26.839  52.477  1.00  0.00     0.096 C 
HETATM   12  C   UNL     1       3.627  29.615  53.852  1.00  0.00     0.031 A 
HETATM   13  C   UNL     1       3.409  30.291  55.054  1.00  0.00     0.002 A 
HETATM   14  C   UNL     1       4.422  30.363  56.006  1.00  0.00     0.002 A 
HETATM   15  C   UNL     1       5.651  29.754  55.758  1.00  0.00     0.026 A 
HETATM   16  H   UNL     1       7.491  29.110  53.571  1.00  0.00     0.135 HD
ENDROOT
BRANCH   9  17
HETATM   17  N   UNL     1       7.664  24.954  54.659  1.00  0.00    -0.265 N 
HETATM   18  C   UNL     1       8.113  24.226  55.748  1.00  0.00     0.270 C 
HETATM   19  O   UNL     1       8.434  24.760  56.806  1.00  0.00    -0.266 OA
HETATM   20  H   UNL     1       7.298  24.501  53.831  1.00  0.00     0.190 HD
BRANCH  18  21
HETATM   21  C   UNL     1       8.143  22.749  55.586  1.00  0.00     0.033 A 
HETATM   22  C   UNL     1       8.461  21.887  56.646  1.00  0.00     0.017 A 
HETATM   23  C   UNL     1       8.496  20.507  56.435  1.00  0.00     0.001 A 
HETATM   24  C   UNL     1       8.205  19.984  55.175  1.00  0.00     0.000 A 
HETATM   25  C   UNL     1       7.866  20.837  54.125  1.00  0.00     0.001 A 
HETATM   26  C   UNL     1       7.830  22.216  54.330  1.00  0.00     0.017 A 
ENDBRANCH  18  21
ENDBRANCH   9  17
TORSDOF 2
ENDMDL
MODEL 7
REMARK VINA RESULT:      -8.3      4.367      7.883
REMARK  2 active torsions:
REMARK  status: ('A' for Active; 'I' for Inactive)
REMARK    1  A    between atoms: N_9  and  N_11 
REMARK       I    between atoms: N_11  and  C_12 
REMARK    2  A    between atoms: C_12  and  C_13 
ROOT
HETATM    1  C   UNL     1       5.565  29.992  55.674  1.00  0.00     0.033 C 
HETATM    2  C   UNL     1       4.862  29.593  54.375  1.00  0.00     0.086 C 
HETATM    3  N   UNL     1       4.251  30.774  53.735  1.00  0.00    -0.379 N 
HETATM    4  C   UNL     1       3.214  31.539  54.429  1.00  0.00     0.150 C 
HETATM    5  C   UNL     1       4.029  30.714  52.343  1.00  0.00     0.052 A 
HETATM    6  C   UNL     1       3.294  29.695  51.687  1.00  0.00     0.040 A 
HETATM    7  N   UNL     1       2.682  28.609  52.405  1.00  0.00    -0.246 NA
HETATM    8  C   UNL     1       3.498  27.876  53.323  1.00  0.00     0.077 C 
HETATM    9  N   UNL     1       3.941  26.711  52.884  1.00  0.00    -0.291 N 
HETATM   10  H   UNL     1       3.615  26.465  51.941  1.00  0.00     0.188 HD
HETATM   11  C   UNL     1       3.860  28.461  54.627  1.00  0.00     0.096 C 
HETATM   12  C   UNL     1       4.518  31.777  51.566  1.00  0.00     0.031 A 
HETATM   13  C   UNL     1       4.291  31.835  50.189  1.00  0.00     0.002 A 
HETATM   14  C   UNL     1       3.556  30.834  49.561  1.00  0.00     0.002 A 
HETATM   15  C   UNL     1       3.051  29.772  50.309  1.00  0.00     0.026 A 
HETATM   16  H   UNL     1       2.008  29.134  52.970  1.00  0.00     0.135 HD
ENDROOT
BRANCH   9  17
HETATM   17  N   UNL     1       4.758  25.871  53.498  1.00  0.00    -0.265 N 
HETATM   18  C   UNL     1       5.730  25.257  52.725  1.00  0.00     0.270 C 
HETATM   19  O   UNL     1       5.837  25.462  51.520  1.00  0.00    -0.266 OA
HETATM   20  H   UNL     1       4.746  25.783  54.506  1.00  0.00     0.190 HD
BRANCH  18  21
HETATM   21  C   UNL     1       6.677  24.366  53.445  1.00  0.00     0.033 A 
HETATM   22  C   UNL     1       7.584  23.537  52.769  1.00  0.00     0.017 A 
HETATM   23  C   UNL     1       8.438  22.702  53.492  1.00  0.00     0.001 A 
HETATM   24  C   UNL     1       8.396  22.697  54.887  1.00  0.00     0.000 A 
HETATM   25  C   UNL     1       7.512  23.536  55.563  1.00  0.00     0.001 A 
HETATM   26  C   UNL     1       6.656  24.373  54.845  1.00  0.00     0.017 A 
ENDBRANCH  18  21
ENDBRANCH   9  17
TORSDOF 2
ENDMDL
MODEL 8
REMARK VINA RESULT:      -8.2     14.791     16.864
REMARK  2 active torsions:
REMARK  status: ('A' for Active; 'I' for Inactive)
REMARK    1  A    between atoms: N_9  and  N_11 
REMARK       I    between atoms: N_11  and  C_12 
REMARK    2  A    between atoms: C_12  and  C_13 
ROOT
HETATM    1  C   UNL     1      13.159   8.908  55.411  1.00  0.00     0.033 C 
HETATM    2  C   UNL     1      12.601  10.066  54.581  1.00  0.00     0.086 C 
HETATM    3  N   UNL     1      13.674  10.703  53.795  1.00  0.00    -0.379 N 
HETATM    4  C   UNL     1      14.817  11.323  54.467  1.00  0.00     0.150 C 
HETATM    5  C   UNL     1      13.296  11.402  52.629  1.00  0.00     0.052 A 
HETATM    6  C   UNL     1      12.339  12.447  52.591  1.00  0.00     0.040 A 
HETATM    7  N   UNL     1      11.658  12.905  53.773  1.00  0.00    -0.246 NA
HETATM    8  C   UNL     1      11.030  11.923  54.601  1.00  0.00     0.077 C 
HETATM    9  N   UNL     1       9.719  11.817  54.463  1.00  0.00    -0.291 N 
HETATM   10  H   UNL     1       9.313  12.481  53.793  1.00  0.00     0.188 HD
HETATM   11  C   UNL     1      11.843  11.056  55.473  1.00  0.00     0.096 C 
HETATM   12  C   UNL     1      13.968  11.082  51.438  1.00  0.00     0.031 A 
HETATM   13  C   UNL     1      13.705  11.765  50.249  1.00  0.00     0.002 A 
HETATM   14  C   UNL     1      12.771  12.797  50.230  1.00  0.00     0.002 A 
HETATM   15  C   UNL     1      12.097  13.143  51.399  1.00  0.00     0.026 A 
HETATM   16  H   UNL     1      12.457  13.265  54.304  1.00  0.00     0.135 HD
ENDROOT
BRANCH   9  17
HETATM   17  N   UNL     1       8.910  10.954  55.054  1.00  0.00    -0.265 N 
HETATM   18  C   UNL     1       7.569  11.010  54.711  1.00  0.00     0.270 C 
HETATM   19  O   UNL     1       7.131  11.826  53.905  1.00  0.00    -0.266 OA
HETATM   20  H   UNL     1       9.280  10.211  55.633  1.00  0.00     0.190 HD
BRANCH  18  21
HETATM   21  C   UNL     1       6.686   9.992  55.339  1.00  0.00     0.033 A 
HETATM   22  C   UNL     1       6.544   9.881  56.729  1.00  0.00     0.017 A 
HETATM   23  C   UNL     1       5.718   8.893  57.269  1.00  0.00     0.001 A 
HETATM   24  C   UNL     1       5.027   8.022  56.427  1.00  0.00     0.000 A 
HETATM   25  C   UNL     1       5.148   8.143  55.043  1.00  0.00     0.001 A 
HETATM   26  C   UNL     1       5.972   9.129  54.498  1.00  0.00     0.017 A 
ENDBRANCH  18  21
ENDBRANCH   9  17
TORSDOF 2
ENDMDL
MODEL 9
REMARK VINA RESULT:      -7.9      3.448      4.113
REMARK  2 active torsions:
REMARK  status: ('A' for Active; 'I' for Inactive)
REMARK    1  A    between atoms: N_9  and  N_11 
REMARK       I    between atoms: N_11  and  C_12 
REMARK    2  A    between atoms: C_12  and  C_13 
ROOT
HETATM    1  C   UNL     1       5.538  29.294  50.796  1.00  0.00     0.033 C 
HETATM    2  C   UNL     1       5.424  28.172  51.830  1.00  0.00     0.086 C 
HETATM    3  N   UNL     1       5.772  26.873  51.224  1.00  0.00    -0.379 N 
HETATM    4  C   UNL     1       4.992  26.345  50.104  1.00  0.00     0.150 C 
HETATM    5  C   UNL     1       6.221  25.853  52.090  1.00  0.00     0.052 A 
HETATM    6  C   UNL     1       5.510  25.389  53.225  1.00  0.00     0.040 A 
HETATM    7  N   UNL     1       4.228  25.925  53.597  1.00  0.00    -0.246 NA
HETATM    8  C   UNL     1       4.106  27.346  53.700  1.00  0.00     0.077 C 
HETATM    9  N   UNL     1       4.135  27.832  54.929  1.00  0.00    -0.291 N 
HETATM   10  H   UNL     1       4.213  27.116  55.662  1.00  0.00     0.188 HD
HETATM   11  C   UNL     1       4.038  28.176  52.484  1.00  0.00     0.096 C 
HETATM   12  C   UNL     1       7.426  25.211  51.761  1.00  0.00     0.031 A 
HETATM   13  C   UNL     1       7.916  24.149  52.523  1.00  0.00     0.002 A 
HETATM   14  C   UNL     1       7.200  23.696  53.628  1.00  0.00     0.002 A 
HETATM   15  C   UNL     1       5.997  24.308  53.973  1.00  0.00     0.026 A 
HETATM   16  H   UNL     1       3.679  25.644  52.779  1.00  0.00     0.135 HD
ENDROOT
BRANCH   9  17
HETATM   17  N   UNL     1       4.107  29.102  55.300  1.00  0.00    -0.265 N 
HETATM   18  C   UNL     1       4.823  29.444  56.435  1.00  0.00     0.270 C 
HETATM   19  O   UNL     1       5.453  28.616  57.088  1.00  0.00    -0.266 OA
HETATM   20  H   UNL     1       3.683  29.803  54.706  1.00  0.00     0.190 HD
BRANCH  18  21
HETATM   21  C   UNL     1       4.830  30.885  56.799  1.00  0.00     0.033 A 
HETATM   22  C   UNL     1       4.616  31.896  55.851  1.00  0.00     0.017 A 
HETATM   23  C   UNL     1       4.654  33.236  56.242  1.00  0.00     0.001 A 
HETATM   24  C   UNL     1       4.895  33.570  57.574  1.00  0.00     0.000 A 
HETATM   25  C   UNL     1       5.086  32.567  58.523  1.00  0.00     0.001 A 
HETATM   26  C   UNL     1       5.049  31.226  58.139  1.00  0.00     0.017 A 
ENDBRANCH  18  21
ENDBRANCH   9  17
TORSDOF 2
ENDMDL
MODEL 10
REMARK VINA RESULT:      -7.8      4.150      7.928
REMARK  2 active torsions:
REMARK  status: ('A' for Active; 'I' for Inactive)
REMARK    1  A    between atoms: N_9  and  N_11 
REMARK       I    between atoms: N_11  and  C_12 
REMARK    2  A    between atoms: C_12  and  C_13 
ROOT
HETATM    1  C   UNL     1       6.054  29.387  57.679  1.00  0.00     0.033 C 
HETATM    2  C   UNL     1       5.424  29.475  56.287  1.00  0.00     0.086 C 
HETATM    3  N   UNL     1       4.605  30.696  56.167  1.00  0.00    -0.379 N 
HETATM    4  C   UNL     1       3.452  30.904  57.044  1.00  0.00     0.150 C 
HETATM    5  C   UNL     1       4.387  31.205  54.869  1.00  0.00     0.052 A 
HETATM    6  C   UNL     1       3.843  30.461  53.792  1.00  0.00     0.040 A 
HETATM    7  N   UNL     1       3.443  29.086  53.936  1.00  0.00    -0.246 NA
HETATM    8  C   UNL     1       4.385  28.177  54.511  1.00  0.00     0.077 C 
HETATM    9  N   UNL     1       5.028  27.405  53.652  1.00  0.00    -0.291 N 
HETATM   10  H   UNL     1       4.745  27.538  52.674  1.00  0.00     0.188 HD
HETATM   11  C   UNL     1       4.645  28.196  55.963  1.00  0.00     0.096 C 
HETATM   12  C   UNL     1       4.669  32.564  54.653  1.00  0.00     0.031 A 
HETATM   13  C   UNL     1       4.426  33.170  53.419  1.00  0.00     0.002 A 
HETATM   14  C   UNL     1       3.879  32.429  52.375  1.00  0.00     0.002 A 
HETATM   15  C   UNL     1       3.580  31.081  52.563  1.00  0.00     0.026 A 
HETATM   16  H   UNL     1       2.689  29.196  54.621  1.00  0.00     0.135 HD
ENDROOT
BRANCH   9  17
HETATM   17  N   UNL     1       5.988  26.532  53.909  1.00  0.00    -0.265 N 
HETATM   18  C   UNL     1       5.703  25.195  53.682  1.00  0.00     0.270 C 
HETATM   19  O   UNL     1       4.609  24.818  53.272  1.00  0.00    -0.266 OA
HETATM   20  H   UNL     1       6.923  26.845  54.139  1.00  0.00     0.190 HD
BRANCH  18  21
HETATM   21  C   UNL     1       6.814  24.236  53.916  1.00  0.00     0.033 A 
HETATM   22  C   UNL     1       7.317  23.412  52.900  1.00  0.00     0.017 A 
HETATM   23  C   UNL     1       8.348  22.513  53.178  1.00  0.00     0.001 A 
HETATM   24  C   UNL     1       8.884  22.439  54.464  1.00  0.00     0.000 A 
HETATM   25  C   UNL     1       8.402  23.273  55.472  1.00  0.00     0.001 A 
HETATM   26  C   UNL     1       7.372  24.174  55.199  1.00  0.00     0.017 A 
ENDBRANCH  18  21
ENDBRANCH   9  17
TORSDOF 2
ENDMDL
