MODEL 1
REMARK VINA RESULT:      -9.6      0.000      0.000
REMARK  3 active torsions:
REMARK  status: ('A' for Active; 'I' for Inactive)
REMARK    1  A    between atoms: C_10  and  C_11 
REMARK       I    between atoms: C_11  and  N_12 
REMARK    2  A    between atoms: N_12  and  C_13 
REMARK    3  A    between atoms: C_16  and  N_17 
ROOT
HETATM    1  C   UNL     1       7.296  31.601  59.951  1.00  0.00     0.258 C 
HETATM    2  N   UNL     1       7.311  31.100  61.234  1.00  0.00    -0.322 N 
HETATM    3  O   UNL     1       6.731  32.641  59.624  1.00  0.00    -0.267 OA
HETATM    4  H   UNL     1       7.742  30.196  61.369  1.00  0.00     0.169 HD
ENDROOT
BRANCH   2   5
HETATM    5  C   UNL     1       6.885  31.753  62.409  1.00  0.00     0.052 A 
HETATM    6  C   UNL     1       5.588  31.781  62.896  1.00  0.00     0.148 A 
HETATM    7  N   UNL     1       5.193  32.509  63.976  1.00  0.00    -0.247 NA
HETATM    8  C   UNL     1       6.106  33.253  64.633  1.00  0.00     0.105 A 
HETATM    9  C   UNL     1       7.438  33.248  64.221  1.00  0.00     0.047 A 
HETATM   10  C   UNL     1       7.829  32.492  63.112  1.00  0.00     0.034 A 
BRANCH   8  11
HETATM   11  N   UNL     1       5.684  34.100  65.669  1.00  0.00    -0.258 NA
HETATM   12  C   UNL     1       6.520  34.056  66.892  1.00  0.00     0.199 C 
HETATM   13  C   UNL     1       5.986  34.936  68.039  1.00  0.00     0.231 C 
HETATM   14  O   UNL     1       6.694  35.267  68.991  1.00  0.00    -0.272 OA
HETATM   15  N   UNL     1       4.658  35.285  68.036  1.00  0.00    -0.359 N 
HETATM   16  C   UNL     1       3.859  35.221  66.829  1.00  0.00     0.137 C 
HETATM   17  H   UNL     1       4.393  35.921  68.776  1.00  0.00     0.162 HD
HETATM   18  C   UNL     1       4.237  34.037  65.934  1.00  0.00     0.117 C 
ENDBRANCH   8  11
ENDBRANCH   2   5
BRANCH   1  19
HETATM   19  C   UNL     1       8.038  30.812  58.953  1.00  0.00     0.063 A 
HETATM   20  C   UNL     1       7.614  29.887  57.928  1.00  0.00     0.046 A 
HETATM   21  C   UNL     1       6.379  29.400  57.446  1.00  0.00     0.130 A 
HETATM   22  C   UNL     1       8.770  29.376  57.320  1.00  0.00     0.046 A 
HETATM   23  C   UNL     1       6.321  28.453  56.422  1.00  0.00     0.043 A 
HETATM   24  F   UNL     1       5.223  29.842  57.962  1.00  0.00    -0.205 F 
HETATM   25  C   UNL     1       7.492  27.966  55.854  1.00  0.00     0.005 A 
HETATM   26  C   UNL     1       8.738  28.421  56.293  1.00  0.00     0.030 A 
HETATM   27  N   UNL     1       9.848  29.974  57.922  1.00  0.00    -0.364 N 
HETATM   28  H   UNL     1      10.816  29.792  57.687  1.00  0.00     0.165 HD
HETATM   29  C   UNL     1       9.425  30.831  58.895  1.00  0.00     0.106 A 
ENDBRANCH   1  19
TORSDOF 3
ENDMDL
MODEL 2
REMARK VINA RESULT:      -9.5      1.502      2.147
REMARK  3 active torsions:
REMARK  status: ('A' for Active; 'I' for Inactive)
REMARK    1  A    between atoms: C_10  and  C_11 
REMARK       I    between atoms: C_11  and  N_12 
REMARK    2  A    between atoms: N_12  and  C_13 
REMARK    3  A    between atoms: C_16  and  N_17 
ROOT
HETATM    1  C   UNL     1       6.772  31.756  59.767  1.00  0.00     0.258 C 
HETATM    2  N   UNL     1       6.791  31.180  61.018  1.00  0.00    -0.322 N 
HETATM    3  O   UNL     1       6.357  32.888  59.536  1.00  0.00    -0.267 OA
HETATM    4  H   UNL     1       7.083  30.214  61.075  1.00  0.00     0.169 HD
ENDROOT
BRANCH   2   5
HETATM    5  C   UNL     1       6.551  31.817  62.253  1.00  0.00     0.052 A 
HETATM    6  C   UNL     1       5.340  31.846  62.928  1.00  0.00     0.148 A 
HETATM    7  N   UNL     1       5.117  32.559  64.065  1.00  0.00    -0.247 NA
HETATM    8  C   UNL     1       6.125  33.287  64.591  1.00  0.00     0.105 A 
HETATM    9  C   UNL     1       7.381  33.278  63.985  1.00  0.00     0.047 A 
HETATM   10  C   UNL     1       7.596  32.538  62.819  1.00  0.00     0.034 A 
BRANCH   8  11
HETATM   11  N   UNL     1       5.870  34.119  65.691  1.00  0.00    -0.258 NA
HETATM   12  C   UNL     1       6.806  33.957  66.828  1.00  0.00     0.199 C 
HETATM   13  C   UNL     1       6.452  34.827  68.050  1.00  0.00     0.231 C 
HETATM   14  O   UNL     1       7.268  35.060  68.943  1.00  0.00    -0.272 OA
HETATM   15  N   UNL     1       5.163  35.280  68.183  1.00  0.00    -0.359 N 
HETATM   16  C   UNL     1       4.256  35.332  67.054  1.00  0.00     0.137 C 
HETATM   17  H   UNL     1       5.019  35.904  68.966  1.00  0.00     0.162 HD
HETATM   18  C   UNL     1       4.453  34.161  66.087  1.00  0.00     0.117 C 
ENDBRANCH   8  11
ENDBRANCH   2   5
BRANCH   1  19
HETATM   19  C   UNL     1       7.313  30.925  58.678  1.00  0.00     0.063 A 
HETATM   20  C   UNL     1       8.656  30.692  58.203  1.00  0.00     0.046 A 
HETATM   21  C   UNL     1       9.954  31.107  58.577  1.00  0.00     0.130 A 
HETATM   22  C   UNL     1       8.565  29.856  57.081  1.00  0.00     0.046 A 
HETATM   23  C   UNL     1      11.081  30.706  57.858  1.00  0.00     0.043 A 
HETATM   24  F   UNL     1      10.136  31.899  59.644  1.00  0.00    -0.205 F 
HETATM   25  C   UNL     1      10.944  29.884  56.747  1.00  0.00     0.005 A 
HETATM   26  C   UNL     1       9.682  29.442  56.339  1.00  0.00     0.030 A 
HETATM   27  N   UNL     1       7.238  29.567  56.892  1.00  0.00    -0.364 N 
HETATM   28  H   UNL     1       6.873  28.984  56.149  1.00  0.00     0.165 HD
HETATM   29  C   UNL     1       6.482  30.197  57.837  1.00  0.00     0.106 A 
ENDBRANCH   1  19
TORSDOF 3
ENDMDL
MODEL 3
REMARK VINA RESULT:      -9.4      2.777      9.461
REMARK  3 active torsions:
REMARK  status: ('A' for Active; 'I' for Inactive)
REMARK    1  A    between atoms: C_10  and  C_11 
REMARK       I    between atoms: C_11  and  N_12 
REMARK    2  A    between atoms: N_12  and  C_13 
REMARK    3  A    between atoms: C_16  and  N_17 
ROOT
HETATM    1  C   UNL     1       4.864  33.061  63.281  1.00  0.00     0.258 C 
HETATM    2  N   UNL     1       6.035  33.437  62.662  1.00  0.00    -0.322 N 
HETATM    3  O   UNL     1       4.166  32.117  62.921  1.00  0.00    -0.267 OA
HETATM    4  H   UNL     1       6.484  34.277  63.000  1.00  0.00     0.169 HD
ENDROOT
BRANCH   2   5
HETATM    5  C   UNL     1       6.745  32.722  61.676  1.00  0.00     0.052 A 
HETATM    6  C   UNL     1       6.345  32.541  60.361  1.00  0.00     0.148 A 
HETATM    7  N   UNL     1       7.002  31.757  59.463  1.00  0.00    -0.247 NA
HETATM    8  C   UNL     1       8.120  31.110  59.854  1.00  0.00     0.105 A 
HETATM    9  C   UNL     1       8.602  31.272  61.152  1.00  0.00     0.047 A 
HETATM   10  C   UNL     1       7.918  32.083  62.062  1.00  0.00     0.034 A 
BRANCH   8  11
HETATM   11  N   UNL     1       8.733  30.206  58.974  1.00  0.00    -0.258 NA
HETATM   12  C   UNL     1       9.973  30.700  58.333  1.00  0.00     0.199 C 
HETATM   13  C   UNL     1      10.579  29.716  57.312  1.00  0.00     0.231 C 
HETATM   14  O   UNL     1      11.744  29.811  56.926  1.00  0.00    -0.272 OA
HETATM   15  N   UNL     1       9.763  28.761  56.758  1.00  0.00    -0.359 N 
HETATM   16  C   UNL     1       8.511  28.378  57.379  1.00  0.00     0.137 C 
HETATM   17  H   UNL     1      10.241  28.105  56.155  1.00  0.00     0.162 HD
HETATM   18  C   UNL     1       7.796  29.560  58.040  1.00  0.00     0.117 C 
ENDBRANCH   8  11
ENDBRANCH   2   5
BRANCH   1  19
HETATM   19  C   UNL     1       4.481  33.863  64.456  1.00  0.00     0.063 A 
HETATM   20  C   UNL     1       5.166  34.182  65.686  1.00  0.00     0.046 A 
HETATM   21  C   UNL     1       6.435  33.908  66.244  1.00  0.00     0.130 A 
HETATM   22  C   UNL     1       4.283  34.931  66.476  1.00  0.00     0.046 A 
HETATM   23  C   UNL     1       6.781  34.359  67.519  1.00  0.00     0.043 A 
HETATM   24  F   UNL     1       7.347  33.207  65.554  1.00  0.00    -0.205 F 
HETATM   25  C   UNL     1       5.871  35.091  68.271  1.00  0.00     0.005 A 
HETATM   26  C   UNL     1       4.605  35.392  67.761  1.00  0.00     0.030 A 
HETATM   27  N   UNL     1       3.124  35.089  65.759  1.00  0.00    -0.364 N 
HETATM   28  H   UNL     1       2.306  35.587  66.084  1.00  0.00     0.165 HD
HETATM   29  C   UNL     1       3.231  34.458  64.554  1.00  0.00     0.106 A 
ENDBRANCH   1  19
TORSDOF 3
ENDMDL
MODEL 4
REMARK VINA RESULT:      -9.4     10.723     13.369
REMARK  3 active torsions:
REMARK  status: ('A' for Active; 'I' for Inactive)
REMARK    1  A    between atoms: C_10  and  C_11 
REMARK       I    between atoms: C_11  and  N_12 
REMARK    2  A    between atoms: N_12  and  C_13 
REMARK    3  A    between atoms: C_16  and  N_17 
ROOT
HETATM    1  C   UNL     1       6.564  24.923  54.847  1.00  0.00     0.258 C 
HETATM    2  N   UNL     1       7.156  25.420  53.707  1.00  0.00    -0.322 N 
HETATM    3  O   UNL     1       5.474  25.293  55.274  1.00  0.00    -0.267 OA
HETATM    4  H   UNL     1       8.090  25.096  53.495  1.00  0.00     0.169 HD
ENDROOT
BRANCH   2   5
HETATM    5  C   UNL     1       6.567  26.255  52.735  1.00  0.00     0.052 A 
HETATM    6  C   UNL     1       6.410  27.629  52.834  1.00  0.00     0.148 A 
HETATM    7  N   UNL     1       5.742  28.389  51.925  1.00  0.00    -0.247 NA
HETATM    8  C   UNL     1       5.195  27.790  50.846  1.00  0.00     0.105 A 
HETATM    9  C   UNL     1       5.342  26.416  50.662  1.00  0.00     0.047 A 
HETATM   10  C   UNL     1       6.033  25.648  51.604  1.00  0.00     0.034 A 
BRANCH   8  11
HETATM   11  N   UNL     1       4.402  28.545  49.970  1.00  0.00    -0.258 NA
HETATM   12  C   UNL     1       3.864  27.796  48.810  1.00  0.00     0.199 C 
HETATM   13  C   UNL     1       3.064  28.671  47.824  1.00  0.00     0.231 C 
HETATM   14  O   UNL     1       2.296  28.183  46.994  1.00  0.00    -0.272 OA
HETATM   15  N   UNL     1       3.286  30.026  47.820  1.00  0.00    -0.359 N 
HETATM   16  C   UNL     1       3.902  30.698  48.946  1.00  0.00     0.137 C 
HETATM   17  H   UNL     1       2.676  30.545  47.202  1.00  0.00     0.162 HD
HETATM   18  C   UNL     1       4.986  29.850  49.617  1.00  0.00     0.117 C 
ENDBRANCH   8  11
ENDBRANCH   2   5
BRANCH   1  19
HETATM   19  C   UNL     1       7.320  23.869  55.546  1.00  0.00     0.063 A 
HETATM   20  C   UNL     1       7.793  22.569  55.132  1.00  0.00     0.046 A 
HETATM   21  C   UNL     1       7.769  21.810  53.941  1.00  0.00     0.130 A 
HETATM   22  C   UNL     1       8.395  21.969  56.247  1.00  0.00     0.046 A 
HETATM   23  C   UNL     1       8.313  20.525  53.888  1.00  0.00     0.043 A 
HETATM   24  F   UNL     1       7.223  22.310  52.824  1.00  0.00    -0.205 F 
HETATM   25  C   UNL     1       8.892  19.965  55.019  1.00  0.00     0.005 A 
HETATM   26  C   UNL     1       8.945  20.678  56.220  1.00  0.00     0.030 A 
HETATM   27  N   UNL     1       8.320  22.862  57.285  1.00  0.00    -0.364 N 
HETATM   28  H   UNL     1       8.672  22.695  58.219  1.00  0.00     0.165 HD
HETATM   29  C   UNL     1       7.682  23.998  56.879  1.00  0.00     0.106 A 
ENDBRANCH   1  19
TORSDOF 3
ENDMDL
MODEL 5
REMARK VINA RESULT:      -9.4      4.877      8.101
REMARK  3 active torsions:
REMARK  status: ('A' for Active; 'I' for Inactive)
REMARK    1  A    between atoms: C_10  and  C_11 
REMARK       I    between atoms: C_11  and  N_12 
REMARK    2  A    between atoms: N_12  and  C_13 
REMARK    3  A    between atoms: C_16  and  N_17 
ROOT
HETATM    1  C   UNL     1       7.138  25.021  55.983  1.00  0.00     0.258 C 
HETATM    2  N   UNL     1       7.861  26.164  55.723  1.00  0.00    -0.322 N 
HETATM    3  O   UNL     1       6.379  24.890  56.940  1.00  0.00    -0.267 OA
HETATM    4  H   UNL     1       8.513  26.130  54.950  1.00  0.00     0.169 HD
ENDROOT
BRANCH   2   5
HETATM    5  C   UNL     1       7.722  27.422  56.345  1.00  0.00     0.052 A 
HETATM    6  C   UNL     1       8.342  27.818  57.520  1.00  0.00     0.148 A 
HETATM    7  N   UNL     1       8.103  29.000  58.149  1.00  0.00    -0.247 NA
HETATM    8  C   UNL     1       7.214  29.861  57.611  1.00  0.00     0.105 A 
HETATM    9  C   UNL     1       6.577  29.545  56.411  1.00  0.00     0.047 A 
HETATM   10  C   UNL     1       6.835  28.327  55.775  1.00  0.00     0.034 A 
BRANCH   8  11
HETATM   11  N   UNL     1       6.871  31.024  58.315  1.00  0.00    -0.258 NA
HETATM   12  C   UNL     1       7.475  31.141  59.662  1.00  0.00     0.199 C 
HETATM   13  C   UNL     1       7.016  32.390  60.441  1.00  0.00     0.231 C 
HETATM   14  O   UNL     1       7.633  32.812  61.420  1.00  0.00    -0.272 OA
HETATM   15  N   UNL     1       5.836  32.991  60.080  1.00  0.00    -0.359 N 
HETATM   16  C   UNL     1       5.237  32.770  58.780  1.00  0.00     0.137 C 
HETATM   17  H   UNL     1       5.633  33.845  60.584  1.00  0.00     0.162 HD
HETATM   18  C   UNL     1       5.433  31.337  58.278  1.00  0.00     0.117 C 
ENDBRANCH   8  11
ENDBRANCH   2   5
BRANCH   1  19
HETATM   19  C   UNL     1       7.307  23.928  55.011  1.00  0.00     0.063 A 
HETATM   20  C   UNL     1       7.818  22.583  55.133  1.00  0.00     0.046 A 
HETATM   21  C   UNL     1       8.312  21.774  56.181  1.00  0.00     0.130 A 
HETATM   22  C   UNL     1       7.809  22.013  53.852  1.00  0.00     0.046 A 
HETATM   23  C   UNL     1       8.770  20.477  55.943  1.00  0.00     0.043 A 
HETATM   24  F   UNL     1       8.347  22.234  57.440  1.00  0.00    -0.205 F 
HETATM   25  C   UNL     1       8.752  19.955  54.656  1.00  0.00     0.005 A 
HETATM   26  C   UNL     1       8.269  20.715  53.587  1.00  0.00     0.030 A 
HETATM   27  N   UNL     1       7.295  22.949  52.991  1.00  0.00    -0.364 N 
HETATM   28  H   UNL     1       7.174  22.814  51.995  1.00  0.00     0.165 HD
HETATM   29  C   UNL     1       6.992  24.093  53.670  1.00  0.00     0.106 A 
ENDBRANCH   1  19
TORSDOF 3
ENDMDL
MODEL 6
REMARK VINA RESULT:      -9.0      4.192     10.869
REMARK  3 active torsions:
REMARK  status: ('A' for Active; 'I' for Inactive)
REMARK    1  A    between atoms: C_10  and  C_11 
REMARK       I    between atoms: C_11  and  N_12 
REMARK    2  A    between atoms: N_12  and  C_13 
REMARK    3  A    between atoms: C_16  and  N_17 
ROOT
HETATM    1  C   UNL     1       7.618  30.524  58.476  1.00  0.00     0.258 C 
HETATM    2  N   UNL     1       6.781  29.478  58.157  1.00  0.00    -0.322 N 
HETATM    3  O   UNL     1       8.755  30.658  58.029  1.00  0.00    -0.267 OA
HETATM    4  H   UNL     1       5.897  29.431  58.646  1.00  0.00     0.169 HD
ENDROOT
BRANCH   2   5
HETATM    5  C   UNL     1       6.968  28.515  57.144  1.00  0.00     0.052 A 
HETATM    6  C   UNL     1       6.468  28.591  55.853  1.00  0.00     0.148 A 
HETATM    7  N   UNL     1       6.578  27.595  54.932  1.00  0.00    -0.247 NA
HETATM    8  C   UNL     1       7.214  26.455  55.273  1.00  0.00     0.105 A 
HETATM    9  C   UNL     1       7.772  26.320  56.544  1.00  0.00     0.047 A 
HETATM   10  C   UNL     1       7.654  27.354  57.478  1.00  0.00     0.034 A 
BRANCH   8  11
HETATM   11  N   UNL     1       7.224  25.378  54.374  1.00  0.00    -0.258 NA
HETATM   12  C   UNL     1       7.638  24.081  54.956  1.00  0.00     0.199 C 
HETATM   13  C   UNL     1       7.716  22.936  53.926  1.00  0.00     0.231 C 
HETATM   14  O   UNL     1       7.732  21.752  54.266  1.00  0.00    -0.272 OA
HETATM   15  N   UNL     1       7.859  23.256  52.598  1.00  0.00    -0.359 N 
HETATM   16  C   UNL     1       7.526  24.573  52.095  1.00  0.00     0.137 C 
HETATM   17  H   UNL     1       7.829  22.461  51.974  1.00  0.00     0.162 HD
HETATM   18  C   UNL     1       7.870  25.687  53.087  1.00  0.00     0.117 C 
ENDBRANCH   8  11
ENDBRANCH   2   5
BRANCH   1  19
HETATM   19  C   UNL     1       7.058  31.527  59.397  1.00  0.00     0.063 A 
HETATM   20  C   UNL     1       7.369  31.881  60.762  1.00  0.00     0.046 A 
HETATM   21  C   UNL     1       8.312  31.468  61.730  1.00  0.00     0.130 A 
HETATM   22  C   UNL     1       6.456  32.869  61.158  1.00  0.00     0.046 A 
HETATM   23  C   UNL     1       8.323  32.016  63.014  1.00  0.00     0.043 A 
HETATM   24  F   UNL     1       9.230  30.537  61.434  1.00  0.00    -0.205 F 
HETATM   25  C   UNL     1       7.393  32.986  63.367  1.00  0.00     0.005 A 
HETATM   26  C   UNL     1       6.443  33.431  62.443  1.00  0.00     0.030 A 
HETATM   27  N   UNL     1       5.642  33.128  60.085  1.00  0.00    -0.364 N 
HETATM   28  H   UNL     1       4.883  33.798  60.083  1.00  0.00     0.165 HD
HETATM   29  C   UNL     1       5.991  32.336  59.030  1.00  0.00     0.106 A 
ENDBRANCH   1  19
TORSDOF 3
ENDMDL
MODEL 7
REMARK VINA RESULT:      -8.9     10.596     14.170
REMARK  3 active torsions:
REMARK  status: ('A' for Active; 'I' for Inactive)
REMARK    1  A    between atoms: C_10  and  C_11 
REMARK       I    between atoms: C_11  and  N_12 
REMARK    2  A    between atoms: N_12  and  C_13 
REMARK    3  A    between atoms: C_16  and  N_17 
ROOT
HETATM    1  C   UNL     1       5.213  25.267  53.469  1.00  0.00     0.258 C 
HETATM    2  N   UNL     1       5.662  26.347  52.743  1.00  0.00    -0.322 N 
HETATM    3  O   UNL     1       4.130  24.717  53.286  1.00  0.00    -0.267 OA
HETATM    4  H   UNL     1       6.536  26.765  53.034  1.00  0.00     0.169 HD
ENDROOT
BRANCH   2   5
HETATM    5  C   UNL     1       5.096  26.879  51.566  1.00  0.00     0.052 A 
HETATM    6  C   UNL     1       4.469  28.110  51.453  1.00  0.00     0.148 A 
HETATM    7  N   UNL     1       3.841  28.547  50.328  1.00  0.00    -0.247 NA
HETATM    8  C   UNL     1       3.819  27.750  49.239  1.00  0.00     0.105 A 
HETATM    9  C   UNL     1       4.459  26.511  49.268  1.00  0.00     0.047 A 
HETATM   10  C   UNL     1       5.103  26.078  50.430  1.00  0.00     0.034 A 
BRANCH   8  11
HETATM   11  N   UNL     1       3.070  28.139  48.118  1.00  0.00    -0.258 NA
HETATM   12  C   UNL     1       3.259  29.546  47.697  1.00  0.00     0.199 C 
HETATM   13  C   UNL     1       2.364  29.965  46.514  1.00  0.00     0.231 C 
HETATM   14  O   UNL     1       2.601  30.968  45.840  1.00  0.00    -0.272 OA
HETATM   15  N   UNL     1       1.223  29.242  46.266  1.00  0.00    -0.359 N 
HETATM   16  C   UNL     1       1.049  27.899  46.781  1.00  0.00     0.137 C 
HETATM   17  H   UNL     1       0.724  29.526  45.433  1.00  0.00     0.162 HD
HETATM   18  C   UNL     1       1.660  27.718  48.172  1.00  0.00     0.117 C 
ENDBRANCH   8  11
ENDBRANCH   2   5
BRANCH   1  19
HETATM   19  C   UNL     1       6.137  24.767  54.501  1.00  0.00     0.063 A 
HETATM   20  C   UNL     1       7.230  23.825  54.460  1.00  0.00     0.046 A 
HETATM   21  C   UNL     1       7.869  23.052  53.465  1.00  0.00     0.130 A 
HETATM   22  C   UNL     1       7.710  23.682  55.769  1.00  0.00     0.046 A 
HETATM   23  C   UNL     1       8.919  22.187  53.780  1.00  0.00     0.043 A 
HETATM   24  F   UNL     1       7.483  23.134  52.184  1.00  0.00    -0.205 F 
HETATM   25  C   UNL     1       9.356  22.069  55.093  1.00  0.00     0.005 A 
HETATM   26  C   UNL     1       8.760  22.816  56.112  1.00  0.00     0.030 A 
HETATM   27  N   UNL     1       6.968  24.512  56.571  1.00  0.00    -0.364 N 
HETATM   28  H   UNL     1       7.091  24.612  57.571  1.00  0.00     0.165 HD
HETATM   29  C   UNL     1       6.029  25.164  55.827  1.00  0.00     0.106 A 
ENDBRANCH   1  19
TORSDOF 3
ENDMDL
MODEL 8
REMARK VINA RESULT:      -8.9     10.940     14.594
REMARK  3 active torsions:
REMARK  status: ('A' for Active; 'I' for Inactive)
REMARK    1  A    between atoms: C_10  and  C_11 
REMARK       I    between atoms: C_11  and  N_12 
REMARK    2  A    between atoms: N_12  and  C_13 
REMARK    3  A    between atoms: C_16  and  N_17 
ROOT
HETATM    1  C   UNL     1       5.484  25.352  52.540  1.00  0.00     0.258 C 
HETATM    2  N   UNL     1       5.846  26.093  51.437  1.00  0.00    -0.322 N 
HETATM    3  O   UNL     1       4.341  25.292  52.984  1.00  0.00    -0.267 OA
HETATM    4  H   UNL     1       6.831  26.128  51.210  1.00  0.00     0.169 HD
ENDROOT
BRANCH   2   5
HETATM    5  C   UNL     1       4.987  26.727  50.516  1.00  0.00     0.052 A 
HETATM    6  C   UNL     1       4.496  28.019  50.624  1.00  0.00     0.148 A 
HETATM    7  N   UNL     1       3.585  28.563  49.772  1.00  0.00    -0.247 NA
HETATM    8  C   UNL     1       3.120  27.818  48.747  1.00  0.00     0.105 A 
HETATM    9  C   UNL     1       3.595  26.521  48.556  1.00  0.00     0.047 A 
HETATM   10  C   UNL     1       4.533  25.977  49.438  1.00  0.00     0.034 A 
BRANCH   8  11
HETATM   11  N   UNL     1       2.092  28.327  47.939  1.00  0.00    -0.258 NA
HETATM   12  C   UNL     1       1.160  27.310  47.399  1.00  0.00     0.199 C 
HETATM   13  C   UNL     1       0.091  27.890  46.452  1.00  0.00     0.231 C 
HETATM   14  O   UNL     1      -0.934  27.269  46.166  1.00  0.00    -0.272 OA
HETATM   15  N   UNL     1       0.337  29.097  45.845  1.00  0.00    -0.359 N 
HETATM   16  C   UNL     1       1.328  30.018  46.362  1.00  0.00     0.137 C 
HETATM   17  H   UNL     1      -0.435  29.451  45.297  1.00  0.00     0.162 HD
HETATM   18  C   UNL     1       2.553  29.303  46.938  1.00  0.00     0.117 C 
ENDBRANCH   8  11
ENDBRANCH   2   5
BRANCH   1  19
HETATM   19  C   UNL     1       6.571  24.587  53.175  1.00  0.00     0.063 A 
HETATM   20  C   UNL     1       7.001  24.458  54.547  1.00  0.00     0.046 A 
HETATM   21  C   UNL     1       6.570  24.951  55.799  1.00  0.00     0.130 A 
HETATM   22  C   UNL     1       8.144  23.646  54.554  1.00  0.00     0.046 A 
HETATM   23  C   UNL     1       7.256  24.644  56.976  1.00  0.00     0.043 A 
HETATM   24  F   UNL     1       5.479  25.726  55.888  1.00  0.00    -0.205 F 
HETATM   25  C   UNL     1       8.389  23.843  56.935  1.00  0.00     0.005 A 
HETATM   26  C   UNL     1       8.853  23.328  55.722  1.00  0.00     0.030 A 
HETATM   27  N   UNL     1       8.389  23.273  53.256  1.00  0.00    -0.364 N 
HETATM   28  H   UNL     1       9.158  22.686  52.959  1.00  0.00     0.165 HD
HETATM   29  C   UNL     1       7.458  23.827  52.427  1.00  0.00     0.106 A 
ENDBRANCH   1  19
TORSDOF 3
ENDMDL
MODEL 9
REMARK VINA RESULT:      -8.9      3.749     10.493
REMARK  3 active torsions:
REMARK  status: ('A' for Active; 'I' for Inactive)
REMARK    1  A    between atoms: C_10  and  C_11 
REMARK       I    between atoms: C_11  and  N_12 
REMARK    2  A    between atoms: N_12  and  C_13 
REMARK    3  A    between atoms: C_16  and  N_17 
ROOT
HETATM    1  C   UNL     1       7.557  31.162  59.209  1.00  0.00     0.258 C 
HETATM    2  N   UNL     1       7.773  29.882  58.750  1.00  0.00    -0.322 N 
HETATM    3  O   UNL     1       7.130  32.080  58.513  1.00  0.00    -0.267 OA
HETATM    4  H   UNL     1       8.201  29.229  59.393  1.00  0.00     0.169 HD
ENDROOT
BRANCH   2   5
HETATM    5  C   UNL     1       7.368  29.339  57.513  1.00  0.00     0.052 A 
HETATM    6  C   UNL     1       6.094  28.890  57.204  1.00  0.00     0.148 A 
HETATM    7  N   UNL     1       5.763  28.275  56.036  1.00  0.00    -0.247 NA
HETATM    8  C   UNL     1       6.718  28.085  55.102  1.00  0.00     0.105 A 
HETATM    9  C   UNL     1       8.016  28.542  55.329  1.00  0.00     0.047 A 
HETATM   10  C   UNL     1       8.340  29.175  56.533  1.00  0.00     0.034 A 
BRANCH   8  11
HETATM   11  N   UNL     1       6.415  27.345  53.950  1.00  0.00    -0.258 NA
HETATM   12  C   UNL     1       7.485  26.425  53.499  1.00  0.00     0.199 C 
HETATM   13  C   UNL     1       7.155  25.686  52.187  1.00  0.00     0.231 C 
HETATM   14  O   UNL     1       7.765  24.675  51.836  1.00  0.00    -0.272 OA
HETATM   15  N   UNL     1       6.210  26.226  51.349  1.00  0.00    -0.359 N 
HETATM   16  C   UNL     1       5.242  27.195  51.821  1.00  0.00     0.137 C 
HETATM   17  H   UNL     1       5.991  25.653  50.545  1.00  0.00     0.162 HD
HETATM   18  C   UNL     1       5.825  28.149  52.867  1.00  0.00     0.117 C 
ENDBRANCH   8  11
ENDBRANCH   2   5
BRANCH   1  19
HETATM   19  C   UNL     1       7.854  31.384  60.634  1.00  0.00     0.063 A 
HETATM   20  C   UNL     1       7.322  32.306  61.610  1.00  0.00     0.046 A 
HETATM   21  C   UNL     1       6.324  33.305  61.627  1.00  0.00     0.130 A 
HETATM   22  C   UNL     1       8.037  32.113  62.801  1.00  0.00     0.046 A 
HETATM   23  C   UNL     1       6.073  34.062  62.774  1.00  0.00     0.043 A 
HETATM   24  F   UNL     1       5.584  33.549  60.536  1.00  0.00    -0.205 F 
HETATM   25  C   UNL     1       6.811  33.844  63.929  1.00  0.00     0.005 A 
HETATM   26  C   UNL     1       7.807  32.863  63.964  1.00  0.00     0.030 A 
HETATM   27  N   UNL     1       8.943  31.107  62.578  1.00  0.00    -0.364 N 
HETATM   28  H   UNL     1       9.600  30.758  63.264  1.00  0.00     0.165 HD
HETATM   29  C   UNL     1       8.843  30.665  61.291  1.00  0.00     0.106 A 
ENDBRANCH   1  19
TORSDOF 3
ENDMDL
MODEL 10
REMARK VINA RESULT:      -8.8     11.929     13.710
REMARK  3 active torsions:
REMARK  status: ('A' for Active; 'I' for Inactive)
REMARK    1  A    between atoms: C_10  and  C_11 
REMARK       I    between atoms: C_11  and  N_12 
REMARK    2  A    between atoms: N_12  and  C_13 
REMARK    3  A    between atoms: C_16  and  N_17 
ROOT
HETATM    1  C   UNL     1       4.689  28.021  51.216  1.00  0.00     0.258 C 
HETATM    2  N   UNL     1       4.468  26.731  51.646  1.00  0.00    -0.322 N 
HETATM    3  O   UNL     1       5.685  28.680  51.501  1.00  0.00    -0.267 OA
HETATM    4  H   UNL     1       3.576  26.315  51.412  1.00  0.00     0.169 HD
ENDROOT
BRANCH   2   5
HETATM    5  C   UNL     1       5.388  25.876  52.287  1.00  0.00     0.052 A 
HETATM    6  C   UNL     1       6.528  25.336  51.712  1.00  0.00     0.148 A 
HETATM    7  N   UNL     1       7.337  24.431  52.327  1.00  0.00    -0.247 NA
HETATM    8  C   UNL     1       7.034  24.023  53.577  1.00  0.00     0.105 A 
HETATM    9  C   UNL     1       5.921  24.550  54.231  1.00  0.00     0.047 A 
HETATM   10  C   UNL     1       5.100  25.482  53.588  1.00  0.00     0.034 A 
BRANCH   8  11
HETATM   11  N   UNL     1       7.791  23.002  54.169  1.00  0.00    -0.258 NA
HETATM   12  C   UNL     1       7.829  21.731  53.409  1.00  0.00     0.199 C 
HETATM   13  C   UNL     1       8.601  20.604  54.124  1.00  0.00     0.231 C 
HETATM   14  O   UNL     1       9.000  19.605  53.525  1.00  0.00    -0.272 OA
HETATM   15  N   UNL     1       8.769  20.684  55.484  1.00  0.00    -0.359 N 
HETATM   16  C   UNL     1       8.629  21.939  56.194  1.00  0.00     0.137 C 
HETATM   17  H   UNL     1       9.346  19.951  55.875  1.00  0.00     0.162 HD
HETATM   18  C   UNL     1       7.529  22.828  55.607  1.00  0.00     0.117 C 
ENDBRANCH   8  11
ENDBRANCH   2   5
BRANCH   1  19
HETATM   19  C   UNL     1       3.644  28.588  50.347  1.00  0.00     0.063 A 
HETATM   20  C   UNL     1       2.955  28.076  49.186  1.00  0.00     0.046 A 
HETATM   21  C   UNL     1       2.960  26.870  48.451  1.00  0.00     0.130 A 
HETATM   22  C   UNL     1       2.105  29.090  48.722  1.00  0.00     0.046 A 
HETATM   23  C   UNL     1       2.162  26.707  47.316  1.00  0.00     0.043 A 
HETATM   24  F   UNL     1       3.734  25.843  48.829  1.00  0.00    -0.205 F 
HETATM   25  C   UNL     1       1.341  27.742  46.886  1.00  0.00     0.005 A 
HETATM   26  C   UNL     1       1.297  28.952  47.583  1.00  0.00     0.030 A 
HETATM   27  N   UNL     1       2.243  30.161  49.568  1.00  0.00    -0.364 N 
HETATM   28  H   UNL     1       1.751  31.040  49.474  1.00  0.00     0.165 HD
HETATM   29  C   UNL     1       3.157  29.873  50.540  1.00  0.00     0.106 A 
ENDBRANCH   1  19
TORSDOF 3
ENDMDL
