MODEL 1
REMARK VINA RESULT:      -9.5      0.000      0.000
REMARK  8 active torsions:
REMARK  status: ('A' for Active; 'I' for Inactive)
REMARK    1  A    between atoms: O_2  and  C_3 
REMARK    2  A    between atoms: C_5  and  O_6 
REMARK    3  A    between atoms: C_9  and  C_10 
REMARK    4  A    between atoms: C_10  and  N_11 
REMARK    5  A    between atoms: C_20  and  C_21 
REMARK    6  A    between atoms: C_21  and  N_22 
REMARK    7  A    between atoms: C_26  and  O_27 
REMARK    8  A    between atoms: C_26  and  C_28 
ROOT
HETATM    1  N   UNL     1       5.740  25.220  52.250  1.00  0.00    -0.061 N 
HETATM    2  H   UNL     1       5.700  24.222  52.014  1.00  0.00     0.280 HD
HETATM    3  C   UNL     1       4.698  25.417  53.331  1.00  0.00     0.276 C 
HETATM    4  C   UNL     1       4.763  26.773  53.983  1.00  0.00     0.002 A 
HETATM    5  C   UNL     1       4.440  27.905  53.234  1.00  0.00     0.076 A 
HETATM    6  O   UNL     1       4.067  27.776  51.925  1.00  0.00    -0.349 OA
HETATM    7  C   UNL     1       5.198  27.451  51.099  1.00  0.00     0.203 C 
HETATM    8  C   UNL     1       5.386  25.933  50.951  1.00  0.00     0.262 C 
HETATM    9  C   UNL     1       5.221  26.948  55.302  1.00  0.00     0.020 A 
HETATM   10  C   UNL     1       5.353  28.235  55.862  1.00  0.00    -0.032 A 
HETATM   11  C   UNL     1       4.967  29.347  55.095  1.00  0.00     0.011 A 
HETATM   12  C   UNL     1       4.496  29.178  53.791  1.00  0.00     0.038 A 
ENDROOT
BRANCH  10  13
HETATM   13  C   UNL     1       5.997  28.411  57.218  1.00  0.00     0.273 C 
BRANCH  13  14
HETATM   14  N   UNL     1       6.989  29.547  57.352  1.00  0.00    -0.067 N 
HETATM   15  H   UNL     1       7.253  29.836  56.399  1.00  0.00     0.280 HD
HETATM   16  C   UNL     1       6.402  30.756  58.043  1.00  0.00     0.238 C 
HETATM   17  C   UNL     1       7.454  31.844  58.153  1.00  0.00     0.071 C 
HETATM   18  C   UNL     1       8.682  31.378  58.962  1.00  0.00     0.089 C 
HETATM   19  C   UNL     1       9.260  30.159  58.219  1.00  0.00     0.071 C 
HETATM   20  C   UNL     1       8.247  29.041  58.028  1.00  0.00     0.238 C 
BRANCH  18  21
HETATM   21  O   UNL     1       9.660  32.412  58.843  1.00  0.00    -0.385 OA
HETATM   22  H   UNL     1      10.517  32.034  58.564  1.00  0.00     0.211 HD
ENDBRANCH  18  21
BRANCH  18  23
HETATM   23  C   UNL     1       8.369  31.185  60.441  1.00  0.00    -0.006 A 
HETATM   24  C   UNL     1       7.224  31.685  61.059  1.00  0.00     0.126 A 
HETATM   25  N   UNL     1       6.964  31.600  62.381  1.00  0.00    -0.272 NA
HETATM   26  C   UNL     1       7.831  30.903  63.140  1.00  0.00     0.116 A 
HETATM   27  C   UNL     1       8.964  30.303  62.630  1.00  0.00     0.020 A 
HETATM   28  C   UNL     1       9.230  30.445  61.269  1.00  0.00     0.013 A 
ENDBRANCH  18  23
ENDBRANCH  13  14
ENDBRANCH  10  13
BRANCH   1  29
HETATM   29  C   UNL     1       7.139  25.472  52.760  1.00  0.00     0.274 C 
BRANCH  29  30
HETATM   30  C   UNL     1       7.706  24.436  53.682  1.00  0.00    -0.027 A 
HETATM   31  C   UNL     1       8.126  23.203  53.164  1.00  0.00     0.045 A 
HETATM   32  C   UNL     1       8.800  22.277  53.964  1.00  0.00     0.071 A 
HETATM   33  C   UNL     1       9.031  22.558  55.311  1.00  0.00     0.073 A 
HETATM   34  C   UNL     1       8.616  23.780  55.844  1.00  0.00     0.071 A 
HETATM   35  C   UNL     1       7.960  24.712  55.031  1.00  0.00     0.045 A 
BRANCH  32  36
HETATM   36  O   UNL     1       9.185  21.144  53.301  1.00  0.00    -0.356 OA
HETATM   37  C   UNL     1       8.146  20.351  52.732  1.00  0.00     0.210 C 
ENDBRANCH  32  36
BRANCH  34  38
HETATM   38  O   UNL     1       8.796  24.201  57.132  1.00  0.00    -0.356 OA
HETATM   39  C   UNL     1       8.271  25.481  57.474  1.00  0.00     0.210 C 
ENDBRANCH  34  38
ENDBRANCH  29  30
ENDBRANCH   1  29
TORSDOF 8
ENDMDL
MODEL 2
REMARK VINA RESULT:      -9.4      0.289      2.131
REMARK  8 active torsions:
REMARK  status: ('A' for Active; 'I' for Inactive)
REMARK    1  A    between atoms: O_2  and  C_3 
REMARK    2  A    between atoms: C_5  and  O_6 
REMARK    3  A    between atoms: C_9  and  C_10 
REMARK    4  A    between atoms: C_10  and  N_11 
REMARK    5  A    between atoms: C_20  and  C_21 
REMARK    6  A    between atoms: C_21  and  N_22 
REMARK    7  A    between atoms: C_26  and  O_27 
REMARK    8  A    between atoms: C_26  and  C_28 
ROOT
HETATM    1  N   UNL     1       5.810  25.344  52.246  1.00  0.00    -0.061 N 
HETATM    2  H   UNL     1       5.814  24.348  51.998  1.00  0.00     0.280 HD
HETATM    3  C   UNL     1       4.757  25.482  53.326  1.00  0.00     0.276 C 
HETATM    4  C   UNL     1       4.760  26.830  53.994  1.00  0.00     0.002 A 
HETATM    5  C   UNL     1       4.389  27.956  53.258  1.00  0.00     0.076 A 
HETATM    6  O   UNL     1       4.026  27.826  51.947  1.00  0.00    -0.349 OA
HETATM    7  C   UNL     1       5.172  27.561  51.120  1.00  0.00     0.203 C 
HETATM    8  C   UNL     1       5.427  26.056  50.954  1.00  0.00     0.262 C 
HETATM    9  C   UNL     1       5.207  27.010  55.316  1.00  0.00     0.020 A 
HETATM   10  C   UNL     1       5.280  28.294  55.892  1.00  0.00    -0.032 A 
HETATM   11  C   UNL     1       4.847  29.397  55.137  1.00  0.00     0.011 A 
HETATM   12  C   UNL     1       4.388  29.224  53.830  1.00  0.00     0.038 A 
ENDROOT
BRANCH  10  13
HETATM   13  C   UNL     1       5.913  28.483  57.252  1.00  0.00     0.273 C 
BRANCH  13  14
HETATM   14  N   UNL     1       6.900  29.623  57.386  1.00  0.00    -0.067 N 
HETATM   15  H   UNL     1       7.142  29.931  56.433  1.00  0.00     0.280 HD
HETATM   16  C   UNL     1       6.319  30.815  58.110  1.00  0.00     0.238 C 
HETATM   17  C   UNL     1       7.366  31.909  58.218  1.00  0.00     0.071 C 
HETATM   18  C   UNL     1       8.613  31.437  58.994  1.00  0.00     0.089 C 
HETATM   19  C   UNL     1       9.183  30.236  58.217  1.00  0.00     0.071 C 
HETATM   20  C   UNL     1       8.175  29.114  58.027  1.00  0.00     0.238 C 
BRANCH  18  21
HETATM   21  O   UNL     1       9.581  32.480  58.873  1.00  0.00    -0.385 OA
HETATM   22  H   UNL     1      10.443  32.109  58.601  1.00  0.00     0.211 HD
ENDBRANCH  18  21
BRANCH  18  23
HETATM   23  C   UNL     1       8.331  31.216  60.475  1.00  0.00    -0.006 A 
HETATM   24  C   UNL     1       7.196  31.696  61.125  1.00  0.00     0.126 A 
HETATM   25  N   UNL     1       6.962  31.586  62.450  1.00  0.00    -0.272 NA
HETATM   26  C   UNL     1       7.850  30.883  63.179  1.00  0.00     0.116 A 
HETATM   27  C   UNL     1       8.977  30.301  62.636  1.00  0.00     0.020 A 
HETATM   28  C   UNL     1       9.214  30.468  61.272  1.00  0.00     0.013 A 
ENDBRANCH  18  23
ENDBRANCH  13  14
ENDBRANCH  10  13
BRANCH   1  29
HETATM   29  C   UNL     1       7.194  25.651  52.763  1.00  0.00     0.274 C 
BRANCH  29  30
HETATM   30  C   UNL     1       7.842  24.588  53.597  1.00  0.00    -0.027 A 
HETATM   31  C   UNL     1       8.054  24.814  54.964  1.00  0.00     0.045 A 
HETATM   32  C   UNL     1       8.511  23.793  55.802  1.00  0.00     0.071 A 
HETATM   33  C   UNL     1       8.798  22.535  55.272  1.00  0.00     0.073 A 
HETATM   34  C   UNL     1       8.595  22.293  53.912  1.00  0.00     0.071 A 
HETATM   35  C   UNL     1       8.117  23.315  53.083  1.00  0.00     0.045 A 
BRANCH  32  36
HETATM   36  O   UNL     1       8.623  24.158  57.115  1.00  0.00    -0.356 OA
HETATM   37  C   UNL     1       8.187  25.472  57.455  1.00  0.00     0.210 C 
ENDBRANCH  32  36
BRANCH  34  38
HETATM   38  O   UNL     1       8.807  21.109  53.263  1.00  0.00    -0.356 OA
HETATM   39  C   UNL     1       8.790  19.924  54.056  1.00  0.00     0.210 C 
ENDBRANCH  34  38
ENDBRANCH  29  30
ENDBRANCH   1  29
TORSDOF 8
ENDMDL
MODEL 3
REMARK VINA RESULT:      -9.2      1.227      4.970
REMARK  8 active torsions:
REMARK  status: ('A' for Active; 'I' for Inactive)
REMARK    1  A    between atoms: O_2  and  C_3 
REMARK    2  A    between atoms: C_5  and  O_6 
REMARK    3  A    between atoms: C_9  and  C_10 
REMARK    4  A    between atoms: C_10  and  N_11 
REMARK    5  A    between atoms: C_20  and  C_21 
REMARK    6  A    between atoms: C_21  and  N_22 
REMARK    7  A    between atoms: C_26  and  O_27 
REMARK    8  A    between atoms: C_26  and  C_28 
ROOT
HETATM    1  N   UNL     1       7.072  24.131  52.691  1.00  0.00    -0.061 N 
HETATM    2  H   UNL     1       7.163  24.232  51.674  1.00  0.00     0.280 HD
HETATM    3  C   UNL     1       8.055  25.121  53.281  1.00  0.00     0.276 C 
HETATM    4  C   UNL     1       7.906  25.296  54.768  1.00  0.00     0.002 A 
HETATM    5  C   UNL     1       8.216  24.232  55.615  1.00  0.00     0.076 A 
HETATM    6  O   UNL     1       8.654  23.047  55.091  1.00  0.00    -0.349 OA
HETATM    7  C   UNL     1       7.576  22.337  54.458  1.00  0.00     0.203 C 
HETATM    8  C   UNL     1       7.456  22.682  52.966  1.00  0.00     0.262 C 
HETATM    9  C   UNL     1       7.381  26.473  55.334  1.00  0.00     0.020 A 
HETATM   10  C   UNL     1       7.172  26.583  56.724  1.00  0.00    -0.032 A 
HETATM   11  C   UNL     1       7.547  25.509  57.549  1.00  0.00     0.011 A 
HETATM   12  C   UNL     1       8.083  24.344  56.994  1.00  0.00     0.038 A 
ENDROOT
BRANCH  10  13
HETATM   13  C   UNL     1       6.459  27.788  57.293  1.00  0.00     0.273 C 
BRANCH  13  14
HETATM   14  N   UNL     1       7.250  29.078  57.345  1.00  0.00    -0.067 N 
HETATM   15  H   UNL     1       7.475  29.337  56.374  1.00  0.00     0.280 HD
HETATM   16  C   UNL     1       6.463  30.221  57.943  1.00  0.00     0.238 C 
HETATM   17  C   UNL     1       7.320  31.473  57.975  1.00  0.00     0.071 C 
HETATM   18  C   UNL     1       8.596  31.275  58.819  1.00  0.00     0.089 C 
HETATM   19  C   UNL     1       9.376  30.117  58.168  1.00  0.00     0.071 C 
HETATM   20  C   UNL     1       8.564  28.837  58.059  1.00  0.00     0.238 C 
BRANCH  18  21
HETATM   21  O   UNL     1       9.393  32.444  58.626  1.00  0.00    -0.385 OA
HETATM   22  H   UNL     1      10.071  32.280  57.941  1.00  0.00     0.211 HD
ENDBRANCH  18  21
BRANCH  18  23
HETATM   23  C   UNL     1       8.298  31.140  60.307  1.00  0.00    -0.006 A 
HETATM   24  C   UNL     1       7.154  31.654  60.915  1.00  0.00     0.126 A 
HETATM   25  N   UNL     1       6.906  31.622  62.241  1.00  0.00    -0.272 NA
HETATM   26  C   UNL     1       7.788  30.966  63.021  1.00  0.00     0.116 A 
HETATM   27  C   UNL     1       8.922  30.356  62.526  1.00  0.00     0.020 A 
HETATM   28  C   UNL     1       9.174  30.444  61.157  1.00  0.00     0.013 A 
ENDBRANCH  18  23
ENDBRANCH  13  14
ENDBRANCH  10  13
BRANCH   1  29
HETATM   29  C   UNL     1       5.643  24.489  53.019  1.00  0.00     0.274 C 
BRANCH  29  30
HETATM   30  C   UNL     1       5.079  25.685  52.314  1.00  0.00    -0.027 A 
HETATM   31  C   UNL     1       4.519  26.730  53.061  1.00  0.00     0.045 A 
HETATM   32  C   UNL     1       4.128  27.924  52.450  1.00  0.00     0.071 A 
HETATM   33  C   UNL     1       4.258  28.074  51.069  1.00  0.00     0.073 A 
HETATM   34  C   UNL     1       4.811  27.042  50.309  1.00  0.00     0.071 A 
HETATM   35  C   UNL     1       5.221  25.857  50.931  1.00  0.00     0.045 A 
BRANCH  32  36
HETATM   36  O   UNL     1       3.643  28.862  53.319  1.00  0.00    -0.356 OA
HETATM   37  C   UNL     1       4.344  29.017  54.551  1.00  0.00     0.210 C 
ENDBRANCH  32  36
BRANCH  34  38
HETATM   38  O   UNL     1       5.023  27.058  48.958  1.00  0.00    -0.356 OA
HETATM   39  C   UNL     1       4.056  26.399  48.144  1.00  0.00     0.210 C 
ENDBRANCH  34  38
ENDBRANCH  29  30
ENDBRANCH   1  29
TORSDOF 8
ENDMDL
MODEL 4
REMARK VINA RESULT:      -9.1      2.976      9.574
REMARK  8 active torsions:
REMARK  status: ('A' for Active; 'I' for Inactive)
REMARK    1  A    between atoms: O_2  and  C_3 
REMARK    2  A    between atoms: C_5  and  O_6 
REMARK    3  A    between atoms: C_9  and  C_10 
REMARK    4  A    between atoms: C_10  and  N_11 
REMARK    5  A    between atoms: C_20  and  C_21 
REMARK    6  A    between atoms: C_21  and  N_22 
REMARK    7  A    between atoms: C_26  and  O_27 
REMARK    8  A    between atoms: C_26  and  C_28 
ROOT
HETATM    1  N   UNL     1       7.574  25.714  57.368  1.00  0.00    -0.061 N 
HETATM    2  H   UNL     1       7.445  25.956  58.357  1.00  0.00     0.280 HD
HETATM    3  C   UNL     1       6.223  25.217  56.897  1.00  0.00     0.276 C 
HETATM    4  C   UNL     1       6.141  25.033  55.406  1.00  0.00     0.002 A 
HETATM    5  C   UNL     1       6.903  24.035  54.800  1.00  0.00     0.076 A 
HETATM    6  O   UNL     1       7.711  23.235  55.559  1.00  0.00    -0.349 OA
HETATM    7  C   UNL     1       8.868  23.958  56.013  1.00  0.00     0.203 C 
HETATM    8  C   UNL     1       8.635  24.620  57.379  1.00  0.00     0.262 C 
HETATM    9  C   UNL     1       5.383  25.891  54.587  1.00  0.00     0.020 A 
HETATM   10  C   UNL     1       5.388  25.750  53.184  1.00  0.00    -0.032 A 
HETATM   11  C   UNL     1       6.126  24.700  52.614  1.00  0.00     0.011 A 
HETATM   12  C   UNL     1       6.868  23.835  53.424  1.00  0.00     0.038 A 
ENDROOT
BRANCH  10  13
HETATM   13  C   UNL     1       4.700  26.777  52.315  1.00  0.00     0.273 C 
BRANCH  13  14
HETATM   14  N   UNL     1       5.217  26.921  50.899  1.00  0.00    -0.067 N 
HETATM   15  H   UNL     1       6.180  26.555  50.887  1.00  0.00     0.280 HD
HETATM   16  C   UNL     1       4.417  26.116  49.901  1.00  0.00     0.238 C 
HETATM   17  C   UNL     1       4.984  26.318  48.508  1.00  0.00     0.071 C 
HETATM   18  C   UNL     1       4.937  27.799  48.077  1.00  0.00     0.089 C 
HETATM   19  C   UNL     1       5.774  28.581  49.107  1.00  0.00     0.071 C 
HETATM   20  C   UNL     1       5.295  28.390  50.536  1.00  0.00     0.238 C 
BRANCH  18  21
HETATM   21  O   UNL     1       5.650  27.884  46.843  1.00  0.00    -0.385 OA
HETATM   22  H   UNL     1       6.451  28.432  46.954  1.00  0.00     0.211 HD
ENDBRANCH  18  21
BRANCH  18  23
HETATM   23  C   UNL     1       3.515  28.295  47.843  1.00  0.00    -0.006 A 
HETATM   24  C   UNL     1       3.102  29.602  48.093  1.00  0.00     0.126 A 
HETATM   25  N   UNL     1       1.833  30.046  47.973  1.00  0.00    -0.272 NA
HETATM   26  C   UNL     1       0.918  29.183  47.491  1.00  0.00     0.116 A 
HETATM   27  C   UNL     1       1.221  27.882  47.142  1.00  0.00     0.020 A 
HETATM   28  C   UNL     1       2.531  27.440  47.318  1.00  0.00     0.013 A 
ENDBRANCH  18  23
ENDBRANCH  13  14
ENDBRANCH  10  13
BRANCH   1  29
HETATM   29  C   UNL     1       7.979  26.993  56.675  1.00  0.00     0.274 C 
BRANCH  29  30
HETATM   30  C   UNL     1       7.445  28.264  57.262  1.00  0.00    -0.027 A 
HETATM   31  C   UNL     1       8.230  28.995  58.164  1.00  0.00     0.045 A 
HETATM   32  C   UNL     1       7.831  30.257  58.610  1.00  0.00     0.071 A 
HETATM   33  C   UNL     1       6.615  30.792  58.185  1.00  0.00     0.073 A 
HETATM   34  C   UNL     1       5.818  30.077  57.289  1.00  0.00     0.071 A 
HETATM   35  C   UNL     1       6.235  28.822  56.830  1.00  0.00     0.045 A 
BRANCH  32  36
HETATM   36  O   UNL     1       8.726  30.861  59.449  1.00  0.00    -0.356 OA
HETATM   37  C   UNL     1       9.784  31.595  58.838  1.00  0.00     0.210 C 
ENDBRANCH  32  36
BRANCH  34  38
HETATM   38  O   UNL     1       4.622  30.486  56.769  1.00  0.00    -0.356 OA
HETATM   39  C   UNL     1       3.846  29.506  56.082  1.00  0.00     0.210 C 
ENDBRANCH  34  38
ENDBRANCH  29  30
ENDBRANCH   1  29
TORSDOF 8
ENDMDL
MODEL 5
REMARK VINA RESULT:      -9.0      2.952      9.464
REMARK  8 active torsions:
REMARK  status: ('A' for Active; 'I' for Inactive)
REMARK    1  A    between atoms: O_2  and  C_3 
REMARK    2  A    between atoms: C_5  and  O_6 
REMARK    3  A    between atoms: C_9  and  C_10 
REMARK    4  A    between atoms: C_10  and  N_11 
REMARK    5  A    between atoms: C_20  and  C_21 
REMARK    6  A    between atoms: C_21  and  N_22 
REMARK    7  A    between atoms: C_26  and  O_27 
REMARK    8  A    between atoms: C_26  and  C_28 
ROOT
HETATM    1  N   UNL     1       7.673  25.977  57.375  1.00  0.00    -0.061 N 
HETATM    2  H   UNL     1       7.608  26.302  58.347  1.00  0.00     0.280 HD
HETATM    3  C   UNL     1       6.262  25.581  56.992  1.00  0.00     0.276 C 
HETATM    4  C   UNL     1       6.100  25.298  55.523  1.00  0.00     0.002 A 
HETATM    5  C   UNL     1       6.739  24.189  54.968  1.00  0.00     0.076 A 
HETATM    6  O   UNL     1       7.500  23.372  55.757  1.00  0.00    -0.349 OA
HETATM    7  C   UNL     1       8.738  24.011  56.114  1.00  0.00     0.203 C 
HETATM    8  C   UNL     1       8.625  24.790  57.433  1.00  0.00     0.262 C 
HETATM    9  C   UNL     1       5.392  26.162  54.668  1.00  0.00     0.020 A 
HETATM   10  C   UNL     1       5.324  25.921  53.281  1.00  0.00    -0.032 A 
HETATM   11  C   UNL     1       5.936  24.765  52.768  1.00  0.00     0.011 A 
HETATM   12  C   UNL     1       6.627  23.894  53.614  1.00  0.00     0.038 A 
ENDROOT
BRANCH  10  13
HETATM   13  C   UNL     1       4.700  26.944  52.360  1.00  0.00     0.273 C 
BRANCH  13  14
HETATM   14  N   UNL     1       5.247  27.009  50.950  1.00  0.00    -0.067 N 
HETATM   15  H   UNL     1       6.208  26.640  50.979  1.00  0.00     0.280 HD
HETATM   16  C   UNL     1       4.466  26.152  49.981  1.00  0.00     0.238 C 
HETATM   17  C   UNL     1       5.062  26.278  48.591  1.00  0.00     0.071 C 
HETATM   18  C   UNL     1       5.029  27.733  48.080  1.00  0.00     0.089 C 
HETATM   19  C   UNL     1       5.848  28.568  49.083  1.00  0.00     0.071 C 
HETATM   20  C   UNL     1       5.338  28.456  50.510  1.00  0.00     0.238 C 
BRANCH  18  21
HETATM   21  O   UNL     1       5.769  27.748  46.858  1.00  0.00    -0.385 OA
HETATM   22  H   UNL     1       6.457  27.055  46.873  1.00  0.00     0.211 HD
ENDBRANCH  18  21
BRANCH  18  23
HETATM   23  C   UNL     1       3.615  28.218  47.788  1.00  0.00    -0.006 A 
HETATM   24  C   UNL     1       3.182  29.522  48.027  1.00  0.00     0.126 A 
HETATM   25  N   UNL     1       1.915  29.956  47.856  1.00  0.00    -0.272 NA
HETATM   26  C   UNL     1       1.028  29.087  47.332  1.00  0.00     0.116 A 
HETATM   27  C   UNL     1       1.355  27.791  46.991  1.00  0.00     0.020 A 
HETATM   28  C   UNL     1       2.660  27.358  47.219  1.00  0.00     0.013 A 
ENDBRANCH  18  23
ENDBRANCH  13  14
ENDBRANCH  10  13
BRANCH   1  29
HETATM   29  C   UNL     1       8.166  27.157  56.573  1.00  0.00     0.274 C 
BRANCH  29  30
HETATM   30  C   UNL     1       7.699  28.508  57.024  1.00  0.00    -0.027 A 
HETATM   31  C   UNL     1       6.653  29.143  56.339  1.00  0.00     0.045 A 
HETATM   32  C   UNL     1       6.089  30.326  56.822  1.00  0.00     0.071 A 
HETATM   33  C   UNL     1       6.591  30.913  57.983  1.00  0.00     0.073 A 
HETATM   34  C   UNL     1       7.634  30.296  58.677  1.00  0.00     0.071 A 
HETATM   35  C   UNL     1       8.180  29.099  58.198  1.00  0.00     0.045 A 
BRANCH  32  36
HETATM   36  O   UNL     1       5.050  30.797  56.067  1.00  0.00    -0.356 OA
HETATM   37  C   UNL     1       4.703  30.038  54.910  1.00  0.00     0.210 C 
ENDBRANCH  32  36
BRANCH  34  38
HETATM   38  O   UNL     1       8.206  30.739  59.836  1.00  0.00    -0.356 OA
HETATM   39  C   UNL     1       9.096  31.848  59.736  1.00  0.00     0.210 C 
ENDBRANCH  34  38
ENDBRANCH  29  30
ENDBRANCH   1  29
TORSDOF 8
ENDMDL
MODEL 6
REMARK VINA RESULT:      -8.7      4.234      8.556
REMARK  8 active torsions:
REMARK  status: ('A' for Active; 'I' for Inactive)
REMARK    1  A    between atoms: O_2  and  C_3 
REMARK    2  A    between atoms: C_5  and  O_6 
REMARK    3  A    between atoms: C_9  and  C_10 
REMARK    4  A    between atoms: C_10  and  N_11 
REMARK    5  A    between atoms: C_20  and  C_21 
REMARK    6  A    between atoms: C_21  and  N_22 
REMARK    7  A    between atoms: C_26  and  O_27 
REMARK    8  A    between atoms: C_26  and  C_28 
ROOT
HETATM    1  N   UNL     1       4.087  31.403  50.971  1.00  0.00    -0.061 N 
HETATM    2  H   UNL     1       4.408  32.210  51.518  1.00  0.00     0.280 HD
HETATM    3  C   UNL     1       5.342  30.623  50.637  1.00  0.00     0.276 C 
HETATM    4  C   UNL     1       5.062  29.272  50.035  1.00  0.00     0.002 A 
HETATM    5  C   UNL     1       4.480  29.197  48.769  1.00  0.00     0.076 A 
HETATM    6  O   UNL     1       4.173  30.342  48.089  1.00  0.00    -0.349 OA
HETATM    7  C   UNL     1       3.028  30.992  48.668  1.00  0.00     0.203 C 
HETATM    8  C   UNL     1       3.428  32.016  49.741  1.00  0.00     0.262 C 
HETATM    9  C   UNL     1       5.290  28.076  50.741  1.00  0.00     0.020 A 
HETATM   10  C   UNL     1       4.941  26.826  50.189  1.00  0.00    -0.032 A 
HETATM   11  C   UNL     1       4.407  26.789  48.891  1.00  0.00     0.011 A 
HETATM   12  C   UNL     1       4.193  27.971  48.178  1.00  0.00     0.038 A 
ENDROOT
BRANCH  10  13
HETATM   13  C   UNL     1       5.043  25.571  51.025  1.00  0.00     0.273 C 
BRANCH  13  14
HETATM   14  N   UNL     1       5.732  25.707  52.366  1.00  0.00    -0.067 N 
HETATM   15  H   UNL     1       5.606  26.680  52.677  1.00  0.00     0.280 HD
HETATM   16  C   UNL     1       5.126  24.815  53.425  1.00  0.00     0.238 C 
HETATM   17  C   UNL     1       5.874  24.994  54.734  1.00  0.00     0.071 C 
HETATM   18  C   UNL     1       7.367  24.632  54.599  1.00  0.00     0.089 C 
HETATM   19  C   UNL     1       7.949  25.572  53.526  1.00  0.00     0.071 C 
HETATM   20  C   UNL     1       7.220  25.483  52.195  1.00  0.00     0.238 C 
BRANCH  18  21
HETATM   21  O   UNL     1       7.987  25.008  55.829  1.00  0.00    -0.385 OA
HETATM   22  H   UNL     1       7.723  25.916  56.076  1.00  0.00     0.211 HD
ENDBRANCH  18  21
BRANCH  18  23
HETATM   23  C   UNL     1       7.591  23.140  54.387  1.00  0.00    -0.006 A 
HETATM   24  C   UNL     1       7.869  22.569  53.147  1.00  0.00     0.126 A 
HETATM   25  N   UNL     1       7.989  21.244  52.918  1.00  0.00    -0.272 NA
HETATM   26  C   UNL     1       7.922  20.423  53.983  1.00  0.00     0.116 A 
HETATM   27  C   UNL     1       7.720  20.876  55.271  1.00  0.00     0.020 A 
HETATM   28  C   UNL     1       7.556  22.246  55.471  1.00  0.00     0.013 A 
ENDBRANCH  18  23
ENDBRANCH  13  14
ENDBRANCH  10  13
BRANCH   1  29
HETATM   29  C   UNL     1       3.162  30.626  51.875  1.00  0.00     0.274 C 
BRANCH  29  30
HETATM   30  C   UNL     1       3.472  30.672  53.340  1.00  0.00    -0.027 A 
HETATM   31  C   UNL     1       2.855  31.637  54.149  1.00  0.00     0.045 A 
HETATM   32  C   UNL     1       2.999  31.612  55.539  1.00  0.00     0.071 A 
HETATM   33  C   UNL     1       3.799  30.638  56.138  1.00  0.00     0.073 A 
HETATM   34  C   UNL     1       4.423  29.672  55.347  1.00  0.00     0.071 A 
HETATM   35  C   UNL     1       4.256  29.690  53.958  1.00  0.00     0.045 A 
BRANCH  32  36
HETATM   36  O   UNL     1       2.300  32.590  56.189  1.00  0.00    -0.356 OA
HETATM   37  C   UNL     1       1.768  33.641  55.385  1.00  0.00     0.210 C 
ENDBRANCH  32  36
BRANCH  34  38
HETATM   38  O   UNL     1       5.210  28.648  55.796  1.00  0.00    -0.356 OA
HETATM   39  C   UNL     1       6.502  28.518  55.207  1.00  0.00     0.210 C 
ENDBRANCH  34  38
ENDBRANCH  29  30
ENDBRANCH   1  29
TORSDOF 8
ENDMDL
MODEL 7
REMARK VINA RESULT:      -8.5      4.147      8.470
REMARK  8 active torsions:
REMARK  status: ('A' for Active; 'I' for Inactive)
REMARK    1  A    between atoms: O_2  and  C_3 
REMARK    2  A    between atoms: C_5  and  O_6 
REMARK    3  A    between atoms: C_9  and  C_10 
REMARK    4  A    between atoms: C_10  and  N_11 
REMARK    5  A    between atoms: C_20  and  C_21 
REMARK    6  A    between atoms: C_21  and  N_22 
REMARK    7  A    between atoms: C_26  and  O_27 
REMARK    8  A    between atoms: C_26  and  C_28 
ROOT
HETATM    1  N   UNL     1       4.041  31.387  51.187  1.00  0.00    -0.061 N 
HETATM    2  H   UNL     1       4.391  32.185  51.730  1.00  0.00     0.280 HD
HETATM    3  C   UNL     1       5.277  30.638  50.737  1.00  0.00     0.276 C 
HETATM    4  C   UNL     1       4.972  29.298  50.122  1.00  0.00     0.002 A 
HETATM    5  C   UNL     1       4.296  29.246  48.903  1.00  0.00     0.076 A 
HETATM    6  O   UNL     1       3.920  30.403  48.279  1.00  0.00    -0.349 OA
HETATM    7  C   UNL     1       2.814  31.018  48.962  1.00  0.00     0.203 C 
HETATM    8  C   UNL     1       3.279  32.021  50.029  1.00  0.00     0.262 C 
HETATM    9  C   UNL     1       5.272  28.089  50.775  1.00  0.00     0.020 A 
HETATM   10  C   UNL     1       4.901  26.848  50.218  1.00  0.00    -0.032 A 
HETATM   11  C   UNL     1       4.268  26.835  48.964  1.00  0.00     0.011 A 
HETATM   12  C   UNL     1       3.983  28.032  48.302  1.00  0.00     0.038 A 
ENDROOT
BRANCH  10  13
HETATM   13  C   UNL     1       5.086  25.573  51.009  1.00  0.00     0.273 C 
BRANCH  13  14
HETATM   14  N   UNL     1       5.756  25.708  52.360  1.00  0.00    -0.067 N 
HETATM   15  H   UNL     1       5.637  26.684  52.664  1.00  0.00     0.280 HD
HETATM   16  C   UNL     1       5.125  24.828  53.414  1.00  0.00     0.238 C 
HETATM   17  C   UNL     1       5.855  25.005  54.733  1.00  0.00     0.071 C 
HETATM   18  C   UNL     1       7.346  24.626  54.621  1.00  0.00     0.089 C 
HETATM   19  C   UNL     1       7.955  25.553  53.552  1.00  0.00     0.071 C 
HETATM   20  C   UNL     1       7.245  25.466  52.211  1.00  0.00     0.238 C 
BRANCH  18  21
HETATM   21  O   UNL     1       7.953  25.000  55.859  1.00  0.00    -0.385 OA
HETATM   22  H   UNL     1       7.292  25.420  56.444  1.00  0.00     0.211 HD
ENDBRANCH  18  21
BRANCH  18  23
HETATM   23  C   UNL     1       7.556  23.130  54.420  1.00  0.00    -0.006 A 
HETATM   24  C   UNL     1       7.554  22.204  55.462  1.00  0.00     0.126 A 
HETATM   25  N   UNL     1       7.819  20.887  55.322  1.00  0.00    -0.272 NA
HETATM   26  C   UNL     1       8.010  20.423  54.072  1.00  0.00     0.116 A 
HETATM   27  C   UNL     1       7.966  21.231  52.954  1.00  0.00     0.020 A 
HETATM   28  C   UNL     1       7.734  22.593  53.134  1.00  0.00     0.013 A 
ENDBRANCH  18  23
ENDBRANCH  13  14
ENDBRANCH  10  13
BRANCH   1  29
HETATM   29  C   UNL     1       3.199  30.571  52.138  1.00  0.00     0.274 C 
BRANCH  29  30
HETATM   30  C   UNL     1       3.461  30.778  53.599  1.00  0.00    -0.027 A 
HETATM   31  C   UNL     1       4.520  30.098  54.217  1.00  0.00     0.045 A 
HETATM   32  C   UNL     1       4.889  30.382  55.534  1.00  0.00     0.071 A 
HETATM   33  C   UNL     1       4.175  31.330  56.267  1.00  0.00     0.073 A 
HETATM   34  C   UNL     1       3.115  32.014  55.669  1.00  0.00     0.071 A 
HETATM   35  C   UNL     1       2.765  31.739  54.342  1.00  0.00     0.045 A 
BRANCH  32  36
HETATM   36  O   UNL     1       5.969  29.669  55.976  1.00  0.00    -0.356 OA
HETATM   37  C   UNL     1       6.402  28.587  55.155  1.00  0.00     0.210 C 
ENDBRANCH  32  36
BRANCH  34  38
HETATM   38  O   UNL     1       2.347  32.982  56.254  1.00  0.00    -0.356 OA
HETATM   39  C   UNL     1       1.614  33.841  55.384  1.00  0.00     0.210 C 
ENDBRANCH  34  38
ENDBRANCH  29  30
ENDBRANCH   1  29
TORSDOF 8
ENDMDL
MODEL 8
REMARK VINA RESULT:      -8.5      2.701      8.742
REMARK  8 active torsions:
REMARK  status: ('A' for Active; 'I' for Inactive)
REMARK    1  A    between atoms: O_2  and  C_3 
REMARK    2  A    between atoms: C_5  and  O_6 
REMARK    3  A    between atoms: C_9  and  C_10 
REMARK    4  A    between atoms: C_10  and  N_11 
REMARK    5  A    between atoms: C_20  and  C_21 
REMARK    6  A    between atoms: C_21  and  N_22 
REMARK    7  A    between atoms: C_26  and  O_27 
REMARK    8  A    between atoms: C_26  and  C_28 
ROOT
HETATM    1  N   UNL     1       7.409  25.683  57.381  1.00  0.00    -0.061 N 
HETATM    2  H   UNL     1       7.133  25.998  58.318  1.00  0.00     0.280 HD
HETATM    3  C   UNL     1       6.216  24.918  56.849  1.00  0.00     0.276 C 
HETATM    4  C   UNL     1       6.331  24.574  55.388  1.00  0.00     0.002 A 
HETATM    5  C   UNL     1       7.306  23.664  54.978  1.00  0.00     0.076 A 
HETATM    6  O   UNL     1       8.141  23.094  55.898  1.00  0.00    -0.349 OA
HETATM    7  C   UNL     1       9.109  24.046  56.370  1.00  0.00     0.203 C 
HETATM    8  C   UNL     1       8.622  24.793  57.621  1.00  0.00     0.262 C 
HETATM    9  C   UNL     1       5.543  25.202  54.406  1.00  0.00     0.020 A 
HETATM   10  C   UNL     1       5.728  24.924  53.036  1.00  0.00    -0.032 A 
HETATM   11  C   UNL     1       6.683  23.963  52.666  1.00  0.00     0.011 A 
HETATM   12  C   UNL     1       7.457  23.323  53.638  1.00  0.00     0.038 A 
ENDROOT
BRANCH  10  13
HETATM   13  C   UNL     1       4.987  25.726  51.991  1.00  0.00     0.273 C 
BRANCH  13  14
HETATM   14  N   UNL     1       5.234  27.220  51.984  1.00  0.00    -0.067 N 
HETATM   15  H   UNL     1       6.060  27.395  52.575  1.00  0.00     0.280 HD
HETATM   16  C   UNL     1       5.546  27.753  50.605  1.00  0.00     0.238 C 
HETATM   17  C   UNL     1       5.768  29.253  50.674  1.00  0.00     0.071 C 
HETATM   18  C   UNL     1       4.525  29.995  51.206  1.00  0.00     0.089 C 
HETATM   19  C   UNL     1       4.251  29.437  52.615  1.00  0.00     0.071 C 
HETATM   20  C   UNL     1       4.063  27.929  52.634  1.00  0.00     0.238 C 
BRANCH  18  21
HETATM   21  O   UNL     1       4.916  31.356  51.390  1.00  0.00    -0.385 OA
HETATM   22  H   UNL     1       5.051  31.788  50.524  1.00  0.00     0.211 HD
ENDBRANCH  18  21
BRANCH  18  23
HETATM   23  C   UNL     1       3.360  29.961  50.225  1.00  0.00    -0.006 A 
HETATM   24  C   UNL     1       3.495  30.195  48.857  1.00  0.00     0.126 A 
HETATM   25  N   UNL     1       2.470  30.253  47.981  1.00  0.00    -0.272 NA
HETATM   26  C   UNL     1       1.237  29.977  48.449  1.00  0.00     0.116 A 
HETATM   27  C   UNL     1       0.987  29.663  49.769  1.00  0.00     0.020 A 
HETATM   28  C   UNL     1       2.059  29.653  50.660  1.00  0.00     0.013 A 
ENDBRANCH  18  23
ENDBRANCH  13  14
ENDBRANCH  10  13
BRANCH   1  29
HETATM   29  C   UNL     1       7.680  26.936  56.584  1.00  0.00     0.274 C 
BRANCH  29  30
HETATM   30  C   UNL     1       7.332  28.234  57.247  1.00  0.00    -0.027 A 
HETATM   31  C   UNL     1       8.234  28.816  58.148  1.00  0.00     0.045 A 
HETATM   32  C   UNL     1       8.013  30.096  58.664  1.00  0.00     0.071 A 
HETATM   33  C   UNL     1       6.861  30.798  58.312  1.00  0.00     0.073 A 
HETATM   34  C   UNL     1       5.950  30.232  57.418  1.00  0.00     0.071 A 
HETATM   35  C   UNL     1       6.189  28.959  56.889  1.00  0.00     0.045 A 
BRANCH  32  36
HETATM   36  O   UNL     1       9.006  30.541  59.492  1.00  0.00    -0.356 OA
HETATM   37  C   UNL     1       9.111  31.952  59.665  1.00  0.00     0.210 C 
ENDBRANCH  32  36
BRANCH  34  38
HETATM   38  O   UNL     1       4.798  30.812  56.965  1.00  0.00    -0.356 OA
HETATM   39  C   UNL     1       3.856  29.960  56.318  1.00  0.00     0.210 C 
ENDBRANCH  34  38
ENDBRANCH  29  30
ENDBRANCH   1  29
TORSDOF 8
ENDMDL
MODEL 9
REMARK VINA RESULT:      -8.5      1.718      2.164
REMARK  8 active torsions:
REMARK  status: ('A' for Active; 'I' for Inactive)
REMARK    1  A    between atoms: O_2  and  C_3 
REMARK    2  A    between atoms: C_5  and  O_6 
REMARK    3  A    between atoms: C_9  and  C_10 
REMARK    4  A    between atoms: C_10  and  N_11 
REMARK    5  A    between atoms: C_20  and  C_21 
REMARK    6  A    between atoms: C_21  and  N_22 
REMARK    7  A    between atoms: C_26  and  O_27 
REMARK    8  A    between atoms: C_26  and  C_28 
ROOT
HETATM    1  N   UNL     1       5.641  25.619  52.086  1.00  0.00    -0.061 N 
HETATM    2  H   UNL     1       5.636  24.599  51.970  1.00  0.00     0.280 HD
HETATM    3  C   UNL     1       4.439  25.928  52.955  1.00  0.00     0.276 C 
HETATM    4  C   UNL     1       4.403  27.353  53.439  1.00  0.00     0.002 A 
HETATM    5  C   UNL     1       4.207  28.380  52.516  1.00  0.00     0.076 A 
HETATM    6  O   UNL     1       4.048  28.088  51.190  1.00  0.00    -0.349 OA
HETATM    7  C   UNL     1       5.296  27.685  50.601  1.00  0.00     0.203 C 
HETATM    8  C   UNL     1       5.501  26.164  50.670  1.00  0.00     0.262 C 
HETATM    9  C   UNL     1       4.644  27.693  54.783  1.00  0.00     0.020 A 
HETATM   10  C   UNL     1       4.688  29.041  55.196  1.00  0.00    -0.032 A 
HETATM   11  C   UNL     1       4.433  30.045  54.248  1.00  0.00     0.011 A 
HETATM   12  C   UNL     1       4.177  29.712  52.915  1.00  0.00     0.038 A 
ENDROOT
BRANCH  10  13
HETATM   13  C   UNL     1       5.108  29.390  56.605  1.00  0.00     0.273 C 
BRANCH  13  14
HETATM   14  N   UNL     1       4.655  30.736  57.131  1.00  0.00    -0.067 N 
HETATM   15  H   UNL     1       4.031  31.146  56.423  1.00  0.00     0.280 HD
HETATM   16  C   UNL     1       3.866  30.625  58.415  1.00  0.00     0.238 C 
HETATM   17  C   UNL     1       3.459  32.008  58.888  1.00  0.00     0.071 C 
HETATM   18  C   UNL     1       4.684  32.909  59.153  1.00  0.00     0.089 C 
HETATM   19  C   UNL     1       5.450  33.010  57.821  1.00  0.00     0.071 C 
HETATM   20  C   UNL     1       5.852  31.656  57.258  1.00  0.00     0.238 C 
BRANCH  18  21
HETATM   21  O   UNL     1       4.174  34.217  59.415  1.00  0.00    -0.385 OA
HETATM   22  H   UNL     1       3.645  34.214  60.237  1.00  0.00     0.211 HD
ENDBRANCH  18  21
BRANCH  18  23
HETATM   23  C   UNL     1       5.489  32.459  60.366  1.00  0.00    -0.006 A 
HETATM   24  C   UNL     1       4.943  32.296  61.638  1.00  0.00     0.126 A 
HETATM   25  N   UNL     1       5.649  31.980  62.744  1.00  0.00    -0.272 NA
HETATM   26  C   UNL     1       6.961  31.716  62.588  1.00  0.00     0.116 A 
HETATM   27  C   UNL     1       7.600  31.776  61.367  1.00  0.00     0.020 A 
HETATM   28  C   UNL     1       6.855  32.148  60.249  1.00  0.00     0.013 A 
ENDBRANCH  18  23
ENDBRANCH  13  14
ENDBRANCH  10  13
BRANCH   1  29
HETATM   29  C   UNL     1       6.940  25.954  52.778  1.00  0.00     0.274 C 
BRANCH  29  30
HETATM   30  C   UNL     1       7.451  24.942  53.758  1.00  0.00    -0.027 A 
HETATM   31  C   UNL     1       7.917  23.704  53.296  1.00  0.00     0.045 A 
HETATM   32  C   UNL     1       8.542  22.801  54.160  1.00  0.00     0.071 A 
HETATM   33  C   UNL     1       8.675  23.112  55.514  1.00  0.00     0.073 A 
HETATM   34  C   UNL     1       8.213  24.339  55.992  1.00  0.00     0.071 A 
HETATM   35  C   UNL     1       7.608  25.248  55.116  1.00  0.00     0.045 A 
BRANCH  32  36
HETATM   36  O   UNL     1       8.982  21.659  53.550  1.00  0.00    -0.356 OA
HETATM   37  C   UNL     1       7.985  20.717  53.158  1.00  0.00     0.210 C 
ENDBRANCH  32  36
BRANCH  34  38
HETATM   38  O   UNL     1       8.299  24.787  57.280  1.00  0.00    -0.356 OA
HETATM   39  C   UNL     1       7.376  25.798  57.677  1.00  0.00     0.210 C 
ENDBRANCH  34  38
ENDBRANCH  29  30
ENDBRANCH   1  29
TORSDOF 8
ENDMDL
MODEL 10
REMARK VINA RESULT:      -8.5      3.400      9.813
REMARK  8 active torsions:
REMARK  status: ('A' for Active; 'I' for Inactive)
REMARK    1  A    between atoms: O_2  and  C_3 
REMARK    2  A    between atoms: C_5  and  O_6 
REMARK    3  A    between atoms: C_9  and  C_10 
REMARK    4  A    between atoms: C_10  and  N_11 
REMARK    5  A    between atoms: C_20  and  C_21 
REMARK    6  A    between atoms: C_21  and  N_22 
REMARK    7  A    between atoms: C_26  and  O_27 
REMARK    8  A    between atoms: C_26  and  C_28 
ROOT
HETATM    1  N   UNL     1       6.876  26.091  56.732  1.00  0.00    -0.061 N 
HETATM    2  H   UNL     1       6.614  26.353  57.689  1.00  0.00     0.280 HD
HETATM    3  C   UNL     1       5.566  25.822  56.019  1.00  0.00     0.276 C 
HETATM    4  C   UNL     1       5.720  25.650  54.532  1.00  0.00     0.002 A 
HETATM    5  C   UNL     1       6.405  24.539  54.042  1.00  0.00     0.076 A 
HETATM    6  O   UNL     1       6.925  23.618  54.908  1.00  0.00    -0.349 OA
HETATM    7  C   UNL     1       8.085  24.142  55.577  1.00  0.00     0.203 C 
HETATM    8  C   UNL     1       7.725  24.837  56.899  1.00  0.00     0.262 C 
HETATM    9  C   UNL     1       5.269  26.619  53.616  1.00  0.00     0.020 A 
HETATM   10  C   UNL     1       5.499  26.476  52.233  1.00  0.00    -0.032 A 
HETATM   11  C   UNL     1       6.145  25.317  51.773  1.00  0.00     0.011 A 
HETATM   12  C   UNL     1       6.581  24.344  52.676  1.00  0.00     0.038 A 
ENDROOT
BRANCH  10  13
HETATM   13  C   UNL     1       5.151  27.601  51.284  1.00  0.00     0.273 C 
BRANCH  13  14
HETATM   14  N   UNL     1       3.856  27.459  50.513  1.00  0.00    -0.067 N 
HETATM   15  H   UNL     1       3.274  26.775  51.018  1.00  0.00     0.280 HD
HETATM   16  C   UNL     1       3.075  28.750  50.443  1.00  0.00     0.238 C 
HETATM   17  C   UNL     1       1.801  28.535  49.646  1.00  0.00     0.071 C 
HETATM   18  C   UNL     1       2.095  28.073  48.204  1.00  0.00     0.089 C 
HETATM   19  C   UNL     1       2.875  26.750  48.319  1.00  0.00     0.071 C 
HETATM   20  C   UNL     1       4.144  26.875  49.145  1.00  0.00     0.238 C 
BRANCH  18  21
HETATM   21  O   UNL     1       0.834  27.737  47.623  1.00  0.00    -0.385 OA
HETATM   22  H   UNL     1       0.315  28.548  47.455  1.00  0.00     0.211 HD
ENDBRANCH  18  21
BRANCH  18  23
HETATM   23  C   UNL     1       2.735  29.166  47.358  1.00  0.00    -0.006 A 
HETATM   24  C   UNL     1       4.112  29.342  47.237  1.00  0.00     0.126 A 
HETATM   25  N   UNL     1       4.704  30.351  46.563  1.00  0.00    -0.272 NA
HETATM   26  C   UNL     1       3.903  31.197  45.885  1.00  0.00     0.116 A 
HETATM   27  C   UNL     1       2.528  31.083  45.872  1.00  0.00     0.020 A 
HETATM   28  C   UNL     1       1.943  30.058  46.613  1.00  0.00     0.013 A 
ENDBRANCH  18  23
ENDBRANCH  13  14
ENDBRANCH  10  13
BRANCH   1  29
HETATM   29  C   UNL     1       7.599  27.283  56.155  1.00  0.00     0.274 C 
BRANCH  29  30
HETATM   30  C   UNL     1       7.446  28.576  56.898  1.00  0.00    -0.027 A 
HETATM   31  C   UNL     1       6.450  29.483  56.512  1.00  0.00     0.045 A 
HETATM   32  C   UNL     1       6.177  30.622  57.275  1.00  0.00     0.071 A 
HETATM   33  C   UNL     1       6.927  30.888  58.421  1.00  0.00     0.073 A 
HETATM   34  C   UNL     1       7.925  29.996  58.818  1.00  0.00     0.071 A 
HETATM   35  C   UNL     1       8.178  28.846  58.061  1.00  0.00     0.045 A 
BRANCH  32  36
HETATM   36  O   UNL     1       5.148  31.382  56.792  1.00  0.00    -0.356 OA
HETATM   37  C   UNL     1       3.877  31.212  57.416  1.00  0.00     0.210 C 
ENDBRANCH  32  36
BRANCH  34  38
HETATM   38  O   UNL     1       8.717  30.113  59.926  1.00  0.00    -0.356 OA
HETATM   39  C   UNL     1       8.366  31.124  60.868  1.00  0.00     0.210 C 
ENDBRANCH  34  38
ENDBRANCH  29  30
ENDBRANCH   1  29
TORSDOF 8
ENDMDL
