MODEL 1
REMARK VINA RESULT:      -9.7      0.000      0.000
REMARK  6 active torsions:
REMARK  status: ('A' for Active; 'I' for Inactive)
REMARK    1  A    between atoms: C_2  and  N_3 
REMARK    2  A    between atoms: C_2  and  C_24 
REMARK       I    between atoms: N_3  and  C_4 
REMARK    3  A    between atoms: C_4  and  C_5 
REMARK    4  A    between atoms: C_5  and  N_6 
REMARK    5  A    between atoms: C_10  and  N_11 
REMARK       I    between atoms: N_11  and  C_12 
REMARK       I    between atoms: C_12  and  N_13 
REMARK    6  A    between atoms: N_13  and  C_14 
ROOT
HETATM    1  N   UNL     1       7.483  27.861  56.704  1.00  0.00    -0.063 N 
HETATM    2  H   UNL     1       7.560  28.030  55.690  1.00  0.00     0.280 HD
HETATM    3  C   UNL     1       6.281  28.643  57.177  1.00  0.00     0.237 C 
HETATM    4  C   UNL     1       6.580  30.125  57.286  1.00  0.00     0.053 C 
HETATM    5  C   UNL     1       7.815  30.437  58.123  1.00  0.00     0.089 C 
HETATM    6  C   UNL     1       9.024  29.659  57.611  1.00  0.00     0.053 C 
HETATM    7  C   UNL     1       8.799  28.177  57.365  1.00  0.00     0.237 C 
ENDROOT
BRANCH   1   8
HETATM    8  C   UNL     1       7.212  26.349  56.840  1.00  0.00     0.337 C 
BRANCH   8   9
HETATM    9  C   UNL     1       6.706  25.728  55.538  1.00  0.00     0.244 C 
HETATM   10  N   UNL     1       7.577  24.863  54.931  1.00  0.00    -0.351 N 
HETATM   11  H   UNL     1       8.534  24.766  55.256  1.00  0.00     0.163 HD
HETATM   12  O   UNL     1       5.566  25.962  55.141  1.00  0.00    -0.272 OA
BRANCH  10  13
HETATM   13  C   UNL     1       7.260  24.165  53.692  1.00  0.00     0.120 C 
HETATM   14  C   UNL     1       7.966  24.800  52.497  1.00  0.00     0.038 C 
BRANCH  13  15
HETATM   15  C   UNL     1       7.629  22.712  53.865  1.00  0.00     0.005 A 
HETATM   16  S   UNL     1       7.771  21.998  55.424  1.00  0.00    -0.104 SA
HETATM   17  C   UNL     1       8.179  20.475  54.768  1.00  0.00     0.050 A 
HETATM   18  C   UNL     1       8.211  20.498  53.393  1.00  0.00     0.008 A 
HETATM   19  C   UNL     1       7.895  21.786  52.872  1.00  0.00     0.017 A 
ENDBRANCH  13  15
ENDBRANCH  10  13
ENDBRANCH   8   9
ENDBRANCH   1   8
BRANCH   5  20
HETATM   20  N   UNL     1       7.565  30.380  59.564  1.00  0.00    -0.338 N 
HETATM   21  C   UNL     1       7.114  31.401  60.366  1.00  0.00     0.321 C 
HETATM   22  N   UNL     1       7.298  31.126  61.698  1.00  0.00    -0.309 N 
HETATM   23  O   UNL     1       6.693  32.452  59.901  1.00  0.00    -0.247 OA
HETATM   24  H   UNL     1       7.914  30.356  61.916  1.00  0.00     0.170 HD
HETATM   25  H   UNL     1       7.595  29.464  59.997  1.00  0.00     0.164 HD
BRANCH  22  26
HETATM   26  C   UNL     1       7.000  31.994  62.771  1.00  0.00     0.036 A 
HETATM   27  C   UNL     1       7.975  32.658  63.520  1.00  0.00     0.029 A 
HETATM   28  C   UNL     1       7.612  33.478  64.592  1.00  0.00     0.002 A 
HETATM   29  C   UNL     1       6.269  33.644  64.921  1.00  0.00     0.000 A 
HETATM   30  C   UNL     1       5.289  33.003  64.169  1.00  0.00     0.002 A 
HETATM   31  C   UNL     1       5.651  32.191  63.091  1.00  0.00     0.029 A 
ENDBRANCH  22  26
ENDBRANCH   5  20
TORSDOF 6
ENDMDL
MODEL 2
REMARK VINA RESULT:      -8.9      3.103     10.945
REMARK  6 active torsions:
REMARK  status: ('A' for Active; 'I' for Inactive)
REMARK    1  A    between atoms: C_2  and  N_3 
REMARK    2  A    between atoms: C_2  and  C_24 
REMARK       I    between atoms: N_3  and  C_4 
REMARK    3  A    between atoms: C_4  and  C_5 
REMARK    4  A    between atoms: C_5  and  N_6 
REMARK    5  A    between atoms: C_10  and  N_11 
REMARK       I    between atoms: N_11  and  C_12 
REMARK       I    between atoms: C_12  and  N_13 
REMARK    6  A    between atoms: N_13  and  C_14 
ROOT
HETATM    1  N   UNL     1       6.142  29.566  56.943  1.00  0.00    -0.063 N 
HETATM    2  H   UNL     1       5.408  30.264  56.751  1.00  0.00     0.280 HD
HETATM    3  C   UNL     1       6.971  29.461  55.685  1.00  0.00     0.237 C 
HETATM    4  C   UNL     1       6.266  28.658  54.610  1.00  0.00     0.053 C 
HETATM    5  C   UNL     1       5.792  27.289  55.084  1.00  0.00     0.089 C 
HETATM    6  C   UNL     1       4.933  27.420  56.338  1.00  0.00     0.053 C 
HETATM    7  C   UNL     1       5.504  28.295  57.441  1.00  0.00     0.237 C 
ENDROOT
BRANCH   1   8
HETATM    8  C   UNL     1       6.988  30.173  58.080  1.00  0.00     0.337 C 
BRANCH   8   9
HETATM    9  C   UNL     1       6.386  31.467  58.627  1.00  0.00     0.244 C 
HETATM   10  N   UNL     1       6.262  31.519  59.990  1.00  0.00    -0.351 N 
HETATM   11  H   UNL     1       6.426  30.699  60.564  1.00  0.00     0.163 HD
HETATM   12  O   UNL     1       6.115  32.394  57.867  1.00  0.00    -0.272 OA
BRANCH  10  13
HETATM   13  C   UNL     1       5.726  32.679  60.689  1.00  0.00     0.120 C 
HETATM   14  C   UNL     1       4.207  32.602  60.816  1.00  0.00     0.038 C 
BRANCH  13  15
HETATM   15  C   UNL     1       6.406  32.772  62.033  1.00  0.00     0.005 A 
HETATM   16  S   UNL     1       5.541  33.227  63.450  1.00  0.00    -0.104 SA
HETATM   17  C   UNL     1       6.934  33.092  64.429  1.00  0.00     0.050 A 
HETATM   18  C   UNL     1       8.039  32.710  63.704  1.00  0.00     0.008 A 
HETATM   19  C   UNL     1       7.736  32.526  62.323  1.00  0.00     0.017 A 
ENDBRANCH  13  15
ENDBRANCH  10  13
ENDBRANCH   8   9
ENDBRANCH   1   8
BRANCH   5  20
HETATM   20  N   UNL     1       6.863  26.291  55.128  1.00  0.00    -0.338 N 
HETATM   21  C   UNL     1       6.832  25.023  54.601  1.00  0.00     0.321 C 
HETATM   22  N   UNL     1       7.848  24.240  55.089  1.00  0.00    -0.309 N 
HETATM   23  O   UNL     1       5.932  24.651  53.859  1.00  0.00    -0.247 OA
HETATM   24  H   UNL     1       8.333  24.591  55.903  1.00  0.00     0.170 HD
HETATM   25  H   UNL     1       7.768  26.607  55.457  1.00  0.00     0.164 HD
BRANCH  22  26
HETATM   26  C   UNL     1       8.056  22.874  54.795  1.00  0.00     0.036 A 
HETATM   27  C   UNL     1       8.543  22.414  53.569  1.00  0.00     0.029 A 
HETATM   28  C   UNL     1       8.694  21.045  53.332  1.00  0.00     0.002 A 
HETATM   29  C   UNL     1       8.360  20.125  54.322  1.00  0.00     0.000 A 
HETATM   30  C   UNL     1       7.891  20.573  55.554  1.00  0.00     0.002 A 
HETATM   31  C   UNL     1       7.750  21.942  55.794  1.00  0.00     0.029 A 
ENDBRANCH  22  26
ENDBRANCH   5  20
TORSDOF 6
ENDMDL
MODEL 3
REMARK VINA RESULT:      -8.8      2.939     10.598
REMARK  6 active torsions:
REMARK  status: ('A' for Active; 'I' for Inactive)
REMARK    1  A    between atoms: C_2  and  N_3 
REMARK    2  A    between atoms: C_2  and  C_24 
REMARK       I    between atoms: N_3  and  C_4 
REMARK    3  A    between atoms: C_4  and  C_5 
REMARK    4  A    between atoms: C_5  and  N_6 
REMARK    5  A    between atoms: C_10  and  N_11 
REMARK       I    between atoms: N_11  and  C_12 
REMARK       I    between atoms: C_12  and  N_13 
REMARK    6  A    between atoms: N_13  and  C_14 
ROOT
HETATM    1  N   UNL     1       5.383  29.328  55.698  1.00  0.00    -0.063 N 
HETATM    2  H   UNL     1       5.455  30.232  55.208  1.00  0.00     0.280 HD
HETATM    3  C   UNL     1       6.782  28.761  55.757  1.00  0.00     0.237 C 
HETATM    4  C   UNL     1       7.213  28.184  54.424  1.00  0.00     0.053 C 
HETATM    5  C   UNL     1       6.225  27.177  53.847  1.00  0.00     0.089 C 
HETATM    6  C   UNL     1       4.824  27.778  53.770  1.00  0.00     0.053 C 
HETATM    7  C   UNL     1       4.336  28.477  55.027  1.00  0.00     0.237 C 
ENDROOT
BRANCH   1   8
HETATM    8  C   UNL     1       4.899  29.678  57.120  1.00  0.00     0.337 C 
BRANCH   8   9
HETATM    9  C   UNL     1       5.382  31.054  57.577  1.00  0.00     0.244 C 
HETATM   10  N   UNL     1       5.811  31.115  58.877  1.00  0.00    -0.351 N 
HETATM   11  H   UNL     1       5.676  30.336  59.512  1.00  0.00     0.163 HD
HETATM   12  O   UNL     1       5.430  31.990  56.783  1.00  0.00    -0.272 OA
BRANCH  10  13
HETATM   13  C   UNL     1       6.322  32.338  59.481  1.00  0.00     0.120 C 
HETATM   14  C   UNL     1       5.209  33.135  60.156  1.00  0.00     0.038 C 
BRANCH  13  15
HETATM   15  C   UNL     1       7.418  31.961  60.448  1.00  0.00     0.005 A 
HETATM   16  S   UNL     1       8.542  30.709  60.090  1.00  0.00    -0.104 SA
HETATM   17  C   UNL     1       9.359  30.920  61.575  1.00  0.00     0.050 A 
HETATM   18  C   UNL     1       8.796  31.919  62.336  1.00  0.00     0.008 A 
HETATM   19  C   UNL     1       7.677  32.519  61.687  1.00  0.00     0.017 A 
ENDBRANCH  13  15
ENDBRANCH  10  13
ENDBRANCH   8   9
ENDBRANCH   1   8
BRANCH   5  20
HETATM   20  N   UNL     1       6.332  25.850  54.457  1.00  0.00    -0.338 N 
HETATM   21  C   UNL     1       7.222  24.858  54.125  1.00  0.00     0.321 C 
HETATM   22  N   UNL     1       6.853  23.643  54.647  1.00  0.00    -0.309 N 
HETATM   23  O   UNL     1       8.168  25.060  53.374  1.00  0.00    -0.247 OA
HETATM   24  H   UNL     1       5.909  23.574  54.997  1.00  0.00     0.170 HD
HETATM   25  H   UNL     1       5.791  25.689  55.299  1.00  0.00     0.164 HD
BRANCH  22  26
HETATM   26  C   UNL     1       7.520  22.415  54.436  1.00  0.00     0.036 A 
HETATM   27  C   UNL     1       7.727  21.857  53.172  1.00  0.00     0.029 A 
HETATM   28  C   UNL     1       8.366  20.621  53.037  1.00  0.00     0.002 A 
HETATM   29  C   UNL     1       8.804  19.935  54.167  1.00  0.00     0.000 A 
HETATM   30  C   UNL     1       8.619  20.491  55.430  1.00  0.00     0.002 A 
HETATM   31  C   UNL     1       7.990  21.731  55.564  1.00  0.00     0.029 A 
ENDBRANCH  22  26
ENDBRANCH   5  20
TORSDOF 6
ENDMDL
MODEL 4
REMARK VINA RESULT:      -8.5      2.585      3.559
REMARK  6 active torsions:
REMARK  status: ('A' for Active; 'I' for Inactive)
REMARK    1  A    between atoms: C_2  and  N_3 
REMARK    2  A    between atoms: C_2  and  C_24 
REMARK       I    between atoms: N_3  and  C_4 
REMARK    3  A    between atoms: C_4  and  C_5 
REMARK    4  A    between atoms: C_5  and  N_6 
REMARK    5  A    between atoms: C_10  and  N_11 
REMARK       I    between atoms: N_11  and  C_12 
REMARK       I    between atoms: C_12  and  N_13 
REMARK    6  A    between atoms: N_13  and  C_14 
ROOT
HETATM    1  N   UNL     1       6.775  28.257  56.750  1.00  0.00    -0.063 N 
HETATM    2  H   UNL     1       6.954  28.448  55.753  1.00  0.00     0.280 HD
HETATM    3  C   UNL     1       5.849  29.347  57.235  1.00  0.00     0.237 C 
HETATM    4  C   UNL     1       6.583  30.654  57.454  1.00  0.00     0.053 C 
HETATM    5  C   UNL     1       7.808  30.523  58.350  1.00  0.00     0.089 C 
HETATM    6  C   UNL     1       8.744  29.436  57.828  1.00  0.00     0.053 C 
HETATM    7  C   UNL     1       8.088  28.113  57.476  1.00  0.00     0.237 C 
ENDROOT
BRANCH   1   8
HETATM    8  C   UNL     1       6.045  26.898  56.775  1.00  0.00     0.337 C 
BRANCH   8   9
HETATM    9  C   UNL     1       6.265  26.096  55.494  1.00  0.00     0.244 C 
HETATM   10  N   UNL     1       5.612  26.576  54.389  1.00  0.00    -0.351 N 
HETATM   11  H   UNL     1       4.927  27.320  54.466  1.00  0.00     0.163 HD
HETATM   12  O   UNL     1       7.035  25.138  55.486  1.00  0.00    -0.272 OA
BRANCH  10  13
HETATM   13  C   UNL     1       5.717  25.950  53.078  1.00  0.00     0.120 C 
HETATM   14  C   UNL     1       4.707  24.817  52.917  1.00  0.00     0.038 C 
BRANCH  13  15
HETATM   15  C   UNL     1       5.540  27.023  52.031  1.00  0.00     0.005 A 
HETATM   16  S   UNL     1       5.032  26.645  50.431  1.00  0.00    -0.104 SA
HETATM   17  C   UNL     1       5.085  28.283  49.951  1.00  0.00     0.050 A 
HETATM   18  C   UNL     1       5.481  29.109  50.978  1.00  0.00     0.008 A 
HETATM   19  C   UNL     1       5.743  28.384  52.177  1.00  0.00     0.017 A 
ENDBRANCH  13  15
ENDBRANCH  10  13
ENDBRANCH   8   9
ENDBRANCH   1   8
BRANCH   5  20
HETATM   20  N   UNL     1       7.478  30.468  59.775  1.00  0.00    -0.338 N 
HETATM   21  C   UNL     1       7.082  31.516  60.572  1.00  0.00     0.321 C 
HETATM   22  N   UNL     1       7.167  31.205  61.906  1.00  0.00    -0.309 N 
HETATM   23  O   UNL     1       6.786  32.608  60.106  1.00  0.00    -0.247 OA
HETATM   24  H   UNL     1       7.696  30.378  62.141  1.00  0.00     0.170 HD
HETATM   25  H   UNL     1       7.398  29.548  60.191  1.00  0.00     0.164 HD
BRANCH  22  26
HETATM   26  C   UNL     1       6.894  32.083  62.979  1.00  0.00     0.036 A 
HETATM   27  C   UNL     1       7.887  32.753  63.699  1.00  0.00     0.029 A 
HETATM   28  C   UNL     1       7.549  33.582  64.772  1.00  0.00     0.002 A 
HETATM   29  C   UNL     1       6.215  33.749  65.132  1.00  0.00     0.000 A 
HETATM   30  C   UNL     1       5.217  33.101  64.409  1.00  0.00     0.002 A 
HETATM   31  C   UNL     1       5.554  32.281  63.330  1.00  0.00     0.029 A 
ENDBRANCH  22  26
ENDBRANCH   5  20
TORSDOF 6
ENDMDL
MODEL 5
REMARK VINA RESULT:      -8.3      3.949     11.625
REMARK  6 active torsions:
REMARK  status: ('A' for Active; 'I' for Inactive)
REMARK    1  A    between atoms: C_2  and  N_3 
REMARK    2  A    between atoms: C_2  and  C_24 
REMARK       I    between atoms: N_3  and  C_4 
REMARK    3  A    between atoms: C_4  and  C_5 
REMARK    4  A    between atoms: C_5  and  N_6 
REMARK    5  A    between atoms: C_10  and  N_11 
REMARK       I    between atoms: N_11  and  C_12 
REMARK       I    between atoms: C_12  and  N_13 
REMARK    6  A    between atoms: N_13  and  C_14 
ROOT
HETATM    1  N   UNL     1       7.449  31.912  61.030  1.00  0.00    -0.063 N 
HETATM    2  H   UNL     1       7.886  32.845  61.016  1.00  0.00     0.280 HD
HETATM    3  C   UNL     1       8.575  30.911  60.925  1.00  0.00     0.237 C 
HETATM    4  C   UNL     1       9.113  30.814  59.511  1.00  0.00     0.053 C 
HETATM    5  C   UNL     1       8.035  30.553  58.466  1.00  0.00     0.089 C 
HETATM    6  C   UNL     1       6.921  31.592  58.570  1.00  0.00     0.053 C 
HETATM    7  C   UNL     1       6.382  31.843  59.968  1.00  0.00     0.237 C 
ENDROOT
BRANCH   1   8
HETATM    8  C   UNL     1       6.776  31.802  62.413  1.00  0.00     0.337 C 
BRANCH   8   9
HETATM    9  C   UNL     1       7.013  33.040  63.276  1.00  0.00     0.244 C 
HETATM   10  N   UNL     1       6.034  33.995  63.203  1.00  0.00    -0.351 N 
HETATM   11  H   UNL     1       5.291  33.933  62.515  1.00  0.00     0.163 HD
HETATM   12  O   UNL     1       7.990  33.100  64.020  1.00  0.00    -0.272 OA
BRANCH  10  13
HETATM   13  C   UNL     1       6.082  35.234  63.967  1.00  0.00     0.120 C 
HETATM   14  C   UNL     1       5.743  36.442  63.097  1.00  0.00     0.038 C 
BRANCH  13  15
HETATM   15  C   UNL     1       5.144  35.097  65.141  1.00  0.00     0.005 A 
HETATM   16  S   UNL     1       5.598  34.239  66.562  1.00  0.00    -0.104 SA
HETATM   17  C   UNL     1       4.096  34.545  67.314  1.00  0.00     0.050 A 
HETATM   18  C   UNL     1       3.258  35.283  66.510  1.00  0.00     0.008 A 
HETATM   19  C   UNL     1       3.861  35.602  65.258  1.00  0.00     0.017 A 
ENDBRANCH  13  15
ENDBRANCH  10  13
ENDBRANCH   8   9
ENDBRANCH   1   8
BRANCH   5  20
HETATM   20  N   UNL     1       7.616  29.152  58.404  1.00  0.00    -0.338 N 
HETATM   21  C   UNL     1       8.190  28.150  57.659  1.00  0.00     0.321 C 
HETATM   22  N   UNL     1       7.377  27.049  57.569  1.00  0.00    -0.309 N 
HETATM   23  O   UNL     1       9.260  28.303  57.084  1.00  0.00    -0.247 OA
HETATM   24  H   UNL     1       6.415  27.178  57.847  1.00  0.00     0.170 HD
HETATM   25  H   UNL     1       6.922  28.853  59.079  1.00  0.00     0.164 HD
BRANCH  22  26
HETATM   26  C   UNL     1       7.646  25.880  56.823  1.00  0.00     0.036 A 
HETATM   27  C   UNL     1       8.525  24.879  57.248  1.00  0.00     0.029 A 
HETATM   28  C   UNL     1       8.772  23.762  56.445  1.00  0.00     0.002 A 
HETATM   29  C   UNL     1       8.139  23.636  55.212  1.00  0.00     0.000 A 
HETATM   30  C   UNL     1       7.247  24.617  54.788  1.00  0.00     0.002 A 
HETATM   31  C   UNL     1       6.992  25.728  55.595  1.00  0.00     0.029 A 
ENDBRANCH  22  26
ENDBRANCH   5  20
TORSDOF 6
ENDMDL
MODEL 6
REMARK VINA RESULT:      -8.3      1.468      2.040
REMARK  6 active torsions:
REMARK  status: ('A' for Active; 'I' for Inactive)
REMARK    1  A    between atoms: C_2  and  N_3 
REMARK    2  A    between atoms: C_2  and  C_24 
REMARK       I    between atoms: N_3  and  C_4 
REMARK    3  A    between atoms: C_4  and  C_5 
REMARK    4  A    between atoms: C_5  and  N_6 
REMARK    5  A    between atoms: C_10  and  N_11 
REMARK       I    between atoms: N_11  and  C_12 
REMARK       I    between atoms: C_12  and  N_13 
REMARK    6  A    between atoms: N_13  and  C_14 
ROOT
HETATM    1  N   UNL     1       6.520  29.022  57.079  1.00  0.00    -0.063 N 
HETATM    2  H   UNL     1       6.741  29.271  56.103  1.00  0.00     0.280 HD
HETATM    3  C   UNL     1       5.472  30.006  57.542  1.00  0.00     0.237 C 
HETATM    4  C   UNL     1       6.070  31.362  57.856  1.00  0.00     0.053 C 
HETATM    5  C   UNL     1       7.246  31.301  58.824  1.00  0.00     0.089 C 
HETATM    6  C   UNL     1       8.306  30.324  58.323  1.00  0.00     0.053 C 
HETATM    7  C   UNL     1       7.794  28.964  57.881  1.00  0.00     0.237 C 
ENDROOT
BRANCH   1   8
HETATM    8  C   UNL     1       5.916  27.606  57.007  1.00  0.00     0.337 C 
BRANCH   8   9
HETATM    9  C   UNL     1       6.015  27.000  55.608  1.00  0.00     0.244 C 
HETATM   10  N   UNL     1       5.168  25.950  55.368  1.00  0.00    -0.351 N 
HETATM   11  H   UNL     1       4.630  25.528  56.118  1.00  0.00     0.163 HD
HETATM   12  O   UNL     1       6.762  27.497  54.768  1.00  0.00    -0.272 OA
BRANCH  10  13
HETATM   13  C   UNL     1       5.111  25.259  54.087  1.00  0.00     0.120 C 
HETATM   14  C   UNL     1       4.906  26.237  52.933  1.00  0.00     0.038 C 
BRANCH  13  15
HETATM   15  C   UNL     1       6.377  24.453  53.932  1.00  0.00     0.005 A 
HETATM   16  S   UNL     1       7.061  23.587  55.253  1.00  0.00    -0.104 SA
HETATM   17  C   UNL     1       8.352  23.008  54.298  1.00  0.00     0.050 A 
HETATM   18  C   UNL     1       8.276  23.458  53.000  1.00  0.00     0.008 A 
HETATM   19  C   UNL     1       7.138  24.291  52.788  1.00  0.00     0.017 A 
ENDBRANCH  13  15
ENDBRANCH  10  13
ENDBRANCH   8   9
ENDBRANCH   1   8
BRANCH   5  20
HETATM   20  N   UNL     1       6.836  31.158  60.221  1.00  0.00    -0.338 N 
HETATM   21  C   UNL     1       6.562  32.170  61.110  1.00  0.00     0.321 C 
HETATM   22  N   UNL     1       6.528  31.719  62.405  1.00  0.00    -0.309 N 
HETATM   23  O   UNL     1       6.461  33.337  60.752  1.00  0.00    -0.247 OA
HETATM   24  H   UNL     1       6.912  30.799  62.570  1.00  0.00     0.170 HD
HETATM   25  H   UNL     1       6.594  30.224  60.533  1.00  0.00     0.164 HD
BRANCH  22  26
HETATM   26  C   UNL     1       6.336  32.517  63.555  1.00  0.00     0.036 A 
HETATM   27  C   UNL     1       5.077  32.899  64.028  1.00  0.00     0.029 A 
HETATM   28  C   UNL     1       4.959  33.718  65.154  1.00  0.00     0.002 A 
HETATM   29  C   UNL     1       6.101  34.160  65.818  1.00  0.00     0.000 A 
HETATM   30  C   UNL     1       7.359  33.770  65.366  1.00  0.00     0.002 A 
HETATM   31  C   UNL     1       7.476  32.943  64.247  1.00  0.00     0.029 A 
ENDBRANCH  22  26
ENDBRANCH   5  20
TORSDOF 6
ENDMDL
MODEL 7
REMARK VINA RESULT:      -8.1      5.804      9.740
REMARK  6 active torsions:
REMARK  status: ('A' for Active; 'I' for Inactive)
REMARK    1  A    between atoms: C_2  and  N_3 
REMARK    2  A    between atoms: C_2  and  C_24 
REMARK       I    between atoms: N_3  and  C_4 
REMARK    3  A    between atoms: C_4  and  C_5 
REMARK    4  A    between atoms: C_5  and  N_6 
REMARK    5  A    between atoms: C_10  and  N_11 
REMARK       I    between atoms: N_11  and  C_12 
REMARK       I    between atoms: C_12  and  N_13 
REMARK    6  A    between atoms: N_13  and  C_14 
ROOT
HETATM    1  N   UNL     1       4.806  28.858  54.233  1.00  0.00    -0.063 N 
HETATM    2  H   UNL     1       5.031  29.832  54.484  1.00  0.00     0.280 HD
HETATM    3  C   UNL     1       4.461  28.153  55.524  1.00  0.00     0.237 C 
HETATM    4  C   UNL     1       5.698  27.825  56.335  1.00  0.00     0.053 C 
HETATM    5  C   UNL     1       6.759  27.064  55.548  1.00  0.00     0.089 C 
HETATM    6  C   UNL     1       7.113  27.807  54.263  1.00  0.00     0.053 C 
HETATM    7  C   UNL     1       5.936  28.275  53.425  1.00  0.00     0.237 C 
ENDROOT
BRANCH   1   8
HETATM    8  C   UNL     1       3.555  28.952  53.336  1.00  0.00     0.337 C 
BRANCH   8   9
HETATM    9  C   UNL     1       3.883  29.450  51.929  1.00  0.00     0.244 C 
HETATM   10  N   UNL     1       3.691  28.533  50.930  1.00  0.00    -0.351 N 
HETATM   11  H   UNL     1       3.487  27.562  51.140  1.00  0.00     0.163 HD
HETATM   12  O   UNL     1       4.223  30.617  51.748  1.00  0.00    -0.272 OA
BRANCH  10  13
HETATM   13  C   UNL     1       3.936  28.835  49.526  1.00  0.00     0.120 C 
HETATM   14  C   UNL     1       5.384  28.551  49.137  1.00  0.00     0.038 C 
BRANCH  13  15
HETATM   15  C   UNL     1       2.958  28.038  48.698  1.00  0.00     0.005 A 
HETATM   16  S   UNL     1       3.490  26.906  47.517  1.00  0.00    -0.104 SA
HETATM   17  C   UNL     1       1.890  26.491  47.089  1.00  0.00     0.050 A 
HETATM   18  C   UNL     1       0.962  27.194  47.821  1.00  0.00     0.008 A 
HETATM   19  C   UNL     1       1.576  28.086  48.748  1.00  0.00     0.017 A 
ENDBRANCH  13  15
ENDBRANCH  10  13
ENDBRANCH   8   9
ENDBRANCH   1   8
BRANCH   5  20
HETATM   20  N   UNL     1       6.466  25.636  55.416  1.00  0.00    -0.338 N 
HETATM   21  C   UNL     1       7.372  24.603  55.414  1.00  0.00     0.321 C 
HETATM   22  N   UNL     1       6.818  23.436  54.950  1.00  0.00    -0.309 N 
HETATM   23  O   UNL     1       8.548  24.772  55.711  1.00  0.00    -0.247 OA
HETATM   24  H   UNL     1       5.931  23.519  54.475  1.00  0.00     0.170 HD
HETATM   25  H   UNL     1       5.491  25.363  55.469  1.00  0.00     0.164 HD
BRANCH  22  26
HETATM   26  C   UNL     1       7.500  22.213  54.764  1.00  0.00     0.036 A 
HETATM   27  C   UNL     1       7.777  21.319  55.802  1.00  0.00     0.029 A 
HETATM   28  C   UNL     1       8.485  20.140  55.554  1.00  0.00     0.002 A 
HETATM   29  C   UNL     1       8.920  19.845  54.265  1.00  0.00     0.000 A 
HETATM   30  C   UNL     1       8.633  20.719  53.221  1.00  0.00     0.002 A 
HETATM   31  C   UNL     1       7.916  21.893  53.467  1.00  0.00     0.029 A 
ENDBRANCH  22  26
ENDBRANCH   5  20
TORSDOF 6
ENDMDL
MODEL 8
REMARK VINA RESULT:      -7.9      4.927     10.926
REMARK  6 active torsions:
REMARK  status: ('A' for Active; 'I' for Inactive)
REMARK    1  A    between atoms: C_2  and  N_3 
REMARK    2  A    between atoms: C_2  and  C_24 
REMARK       I    between atoms: N_3  and  C_4 
REMARK    3  A    between atoms: C_4  and  C_5 
REMARK    4  A    between atoms: C_5  and  N_6 
REMARK    5  A    between atoms: C_10  and  N_11 
REMARK       I    between atoms: N_11  and  C_12 
REMARK       I    between atoms: C_12  and  N_13 
REMARK    6  A    between atoms: N_13  and  C_14 
ROOT
HETATM    1  N   UNL     1       6.732  27.371  55.645  1.00  0.00    -0.063 N 
HETATM    2  H   UNL     1       7.394  26.737  56.115  1.00  0.00     0.280 HD
HETATM    3  C   UNL     1       5.411  26.641  55.586  1.00  0.00     0.237 C 
HETATM    4  C   UNL     1       5.402  25.576  54.509  1.00  0.00     0.053 C 
HETATM    5  C   UNL     1       5.816  26.093  53.137  1.00  0.00     0.089 C 
HETATM    6  C   UNL     1       7.166  26.801  53.212  1.00  0.00     0.053 C 
HETATM    7  C   UNL     1       7.315  27.819  54.330  1.00  0.00     0.237 C 
ENDROOT
BRANCH   1   8
HETATM    8  C   UNL     1       6.615  28.595  56.575  1.00  0.00     0.337 C 
BRANCH   8   9
HETATM    9  C   UNL     1       7.789  28.702  57.548  1.00  0.00     0.244 C 
HETATM   10  N   UNL     1       8.209  29.978  57.812  1.00  0.00    -0.351 N 
HETATM   11  H   UNL     1       7.853  30.769  57.284  1.00  0.00     0.163 HD
HETATM   12  O   UNL     1       8.244  27.694  58.083  1.00  0.00    -0.272 OA
BRANCH  10  13
HETATM   13  C   UNL     1       9.304  30.275  58.726  1.00  0.00     0.120 C 
HETATM   14  C   UNL     1      10.287  31.270  58.117  1.00  0.00     0.038 C 
BRANCH  13  15
HETATM   15  C   UNL     1       8.711  30.779  60.019  1.00  0.00     0.005 A 
HETATM   16  S   UNL     1       7.291  31.751  60.041  1.00  0.00    -0.104 SA
HETATM   17  C   UNL     1       7.311  31.868  61.744  1.00  0.00     0.050 A 
HETATM   18  C   UNL     1       8.371  31.186  62.296  1.00  0.00     0.008 A 
HETATM   19  C   UNL     1       9.179  30.559  61.303  1.00  0.00     0.017 A 
ENDBRANCH  13  15
ENDBRANCH  10  13
ENDBRANCH   8   9
ENDBRANCH   1   8
BRANCH   5  20
HETATM   20  N   UNL     1       4.743  26.806  52.441  1.00  0.00    -0.338 N 
HETATM   21  C   UNL     1       4.584  26.937  51.082  1.00  0.00     0.321 C 
HETATM   22  N   UNL     1       3.683  27.922  50.765  1.00  0.00    -0.309 N 
HETATM   23  O   UNL     1       5.256  26.294  50.286  1.00  0.00    -0.247 OA
HETATM   24  H   UNL     1       3.430  28.555  51.510  1.00  0.00     0.170 HD
HETATM   25  H   UNL     1       3.963  27.120  53.005  1.00  0.00     0.164 HD
BRANCH  22  26
HETATM   26  C   UNL     1       3.346  28.346  49.460  1.00  0.00     0.036 A 
HETATM   27  C   UNL     1       4.193  29.113  48.655  1.00  0.00     0.029 A 
HETATM   28  C   UNL     1       3.783  29.527  47.384  1.00  0.00     0.002 A 
HETATM   29  C   UNL     1       2.523  29.174  46.908  1.00  0.00     0.000 A 
HETATM   30  C   UNL     1       1.679  28.395  47.695  1.00  0.00     0.002 A 
HETATM   31  C   UNL     1       2.093  27.973  48.960  1.00  0.00     0.029 A 
ENDBRANCH  22  26
ENDBRANCH   5  20
TORSDOF 6
ENDMDL
MODEL 9
REMARK VINA RESULT:      -7.7      3.316     10.835
REMARK  6 active torsions:
REMARK  status: ('A' for Active; 'I' for Inactive)
REMARK    1  A    between atoms: C_2  and  N_3 
REMARK    2  A    between atoms: C_2  and  C_24 
REMARK       I    between atoms: N_3  and  C_4 
REMARK    3  A    between atoms: C_4  and  C_5 
REMARK    4  A    between atoms: C_5  and  N_6 
REMARK    5  A    between atoms: C_10  and  N_11 
REMARK       I    between atoms: N_11  and  C_12 
REMARK       I    between atoms: C_12  and  N_13 
REMARK    6  A    between atoms: N_13  and  C_14 
ROOT
HETATM    1  N   UNL     1       4.066  31.172  57.672  1.00  0.00    -0.063 N 
HETATM    2  H   UNL     1       4.087  32.173  57.428  1.00  0.00     0.280 HD
HETATM    3  C   UNL     1       5.502  30.701  57.662  1.00  0.00     0.237 C 
HETATM    4  C   UNL     1       6.023  30.510  56.252  1.00  0.00     0.053 C 
HETATM    5  C   UNL     1       5.137  29.619  55.390  1.00  0.00     0.089 C 
HETATM    6  C   UNL     1       3.698  30.128  55.390  1.00  0.00     0.053 C 
HETATM    7  C   UNL     1       3.113  30.452  56.754  1.00  0.00     0.237 C 
ENDROOT
BRANCH   1   8
HETATM    8  C   UNL     1       3.506  31.118  59.107  1.00  0.00     0.337 C 
BRANCH   8   9
HETATM    9  C   UNL     1       3.681  32.441  59.851  1.00  0.00     0.244 C 
HETATM   10  N   UNL     1       4.102  32.326  61.149  1.00  0.00    -0.351 N 
HETATM   11  H   UNL     1       4.148  31.421  61.608  1.00  0.00     0.163 HD
HETATM   12  O   UNL     1       3.514  33.509  59.266  1.00  0.00    -0.272 OA
BRANCH  10  13
HETATM   13  C   UNL     1       4.339  33.479  62.007  1.00  0.00     0.120 C 
HETATM   14  C   UNL     1       3.155  33.739  62.934  1.00  0.00     0.038 C 
BRANCH  13  15
HETATM   15  C   UNL     1       5.618  33.239  62.772  1.00  0.00     0.005 A 
HETATM   16  S   UNL     1       7.006  32.560  62.015  1.00  0.00    -0.104 SA
HETATM   17  C   UNL     1       7.915  32.629  63.459  1.00  0.00     0.050 A 
HETATM   18  C   UNL     1       7.188  33.155  64.501  1.00  0.00     0.008 A 
HETATM   19  C   UNL     1       5.864  33.506  64.107  1.00  0.00     0.017 A 
ENDBRANCH  13  15
ENDBRANCH  10  13
ENDBRANCH   8   9
ENDBRANCH   1   8
BRANCH   5  20
HETATM   20  N   UNL     1       5.323  28.191  55.653  1.00  0.00    -0.338 N 
HETATM   21  C   UNL     1       6.283  27.370  55.112  1.00  0.00     0.321 C 
HETATM   22  N   UNL     1       5.989  26.043  55.304  1.00  0.00    -0.309 N 
HETATM   23  O   UNL     1       7.223  27.811  54.464  1.00  0.00    -0.247 OA
HETATM   24  H   UNL     1       5.046  25.831  55.597  1.00  0.00     0.170 HD
HETATM   25  H   UNL     1       4.782  27.792  56.412  1.00  0.00     0.164 HD
BRANCH  22  26
HETATM   26  C   UNL     1       6.739  24.950  54.815  1.00  0.00     0.036 A 
HETATM   27  C   UNL     1       7.702  24.276  55.570  1.00  0.00     0.029 A 
HETATM   28  C   UNL     1       8.432  23.222  55.013  1.00  0.00     0.002 A 
HETATM   29  C   UNL     1       8.202  22.833  53.696  1.00  0.00     0.000 A 
HETATM   30  C   UNL     1       7.231  23.485  52.941  1.00  0.00     0.002 A 
HETATM   31  C   UNL     1       6.494  24.532  53.501  1.00  0.00     0.029 A 
ENDBRANCH  22  26
ENDBRANCH   5  20
TORSDOF 6
ENDMDL
MODEL 10
REMARK VINA RESULT:      -7.5      6.355     10.562
REMARK  6 active torsions:
REMARK  status: ('A' for Active; 'I' for Inactive)
REMARK    1  A    between atoms: C_2  and  N_3 
REMARK    2  A    between atoms: C_2  and  C_24 
REMARK       I    between atoms: N_3  and  C_4 
REMARK    3  A    between atoms: C_4  and  C_5 
REMARK    4  A    between atoms: C_5  and  N_6 
REMARK    5  A    between atoms: C_10  and  N_11 
REMARK       I    between atoms: N_11  and  C_12 
REMARK       I    between atoms: C_12  and  N_13 
REMARK    6  A    between atoms: N_13  and  C_14 
ROOT
HETATM    1  N   UNL     1       5.758  28.853  53.322  1.00  0.00    -0.063 N 
HETATM    2  H   UNL     1       5.795  29.826  53.661  1.00  0.00     0.280 HD
HETATM    3  C   UNL     1       4.628  28.185  54.070  1.00  0.00     0.237 C 
HETATM    4  C   UNL     1       5.018  27.843  55.493  1.00  0.00     0.053 C 
HETATM    5  C   UNL     1       6.308  27.039  55.596  1.00  0.00     0.089 C 
HETATM    6  C   UNL     1       7.443  27.745  54.859  1.00  0.00     0.053 C 
HETATM    7  C   UNL     1       7.121  28.225  53.455  1.00  0.00     0.237 C 
ENDROOT
BRANCH   1   8
HETATM    8  C   UNL     1       5.406  28.960  51.825  1.00  0.00     0.337 C 
BRANCH   8   9
HETATM    9  C   UNL     1       4.727  30.284  51.479  1.00  0.00     0.244 C 
HETATM   10  N   UNL     1       5.569  31.270  51.035  1.00  0.00    -0.351 N 
HETATM   11  H   UNL     1       6.577  31.158  51.078  1.00  0.00     0.163 HD
HETATM   12  O   UNL     1       3.504  30.389  51.542  1.00  0.00    -0.272 OA
BRANCH  10  13
HETATM   13  C   UNL     1       5.099  32.591  50.644  1.00  0.00     0.120 C 
HETATM   14  C   UNL     1       5.679  33.680  51.542  1.00  0.00     0.038 C 
BRANCH  13  15
HETATM   15  C   UNL     1       5.451  32.804  49.192  1.00  0.00     0.005 A 
HETATM   16  S   UNL     1       4.543  32.068  47.929  1.00  0.00    -0.104 SA
HETATM   17  C   UNL     1       5.525  32.768  46.719  1.00  0.00     0.050 A 
HETATM   18  C   UNL     1       6.526  33.545  47.254  1.00  0.00     0.008 A 
HETATM   19  C   UNL     1       6.485  33.566  48.678  1.00  0.00     0.017 A 
ENDBRANCH  13  15
ENDBRANCH  10  13
ENDBRANCH   8   9
ENDBRANCH   1   8
BRANCH   5  20
HETATM   20  N   UNL     1       6.127  25.616  55.303  1.00  0.00    -0.338 N 
HETATM   21  C   UNL     1       7.077  24.627  55.388  1.00  0.00     0.321 C 
HETATM   22  N   UNL     1       6.684  23.482  54.742  1.00  0.00    -0.309 N 
HETATM   23  O   UNL     1       8.169  24.821  55.907  1.00  0.00    -0.247 OA
HETATM   24  H   UNL     1       5.893  23.567  54.120  1.00  0.00     0.170 HD
HETATM   25  H   UNL     1       5.176  25.298  55.155  1.00  0.00     0.164 HD
BRANCH  22  26
HETATM   26  C   UNL     1       7.458  22.310  54.591  1.00  0.00     0.036 A 
HETATM   27  C   UNL     1       7.988  21.887  53.369  1.00  0.00     0.029 A 
HETATM   28  C   UNL     1       8.718  20.698  53.283  1.00  0.00     0.002 A 
HETATM   29  C   UNL     1       8.925  19.924  54.422  1.00  0.00     0.000 A 
HETATM   30  C   UNL     1       8.418  20.346  55.648  1.00  0.00     0.002 A 
HETATM   31  C   UNL     1       7.698  21.539  55.734  1.00  0.00     0.029 A 
ENDBRANCH  22  26
ENDBRANCH   5  20
TORSDOF 6
ENDMDL
