MODEL 1
REMARK VINA RESULT:     -10.3      0.000      0.000
REMARK  4 active torsions:
REMARK  status: ('A' for Active; 'I' for Inactive)
REMARK    1  A    between atoms: C_3  and  N_4 
REMARK    2  A    between atoms: C_11  and  C_12 
REMARK       I    between atoms: C_12  and  N_13 
REMARK    3  A    between atoms: N_13  and  C_14 
REMARK    4  A    between atoms: C_19  and  O_20 
ROOT
HETATM    1  C   UNL     1       5.434  28.879  56.542  1.00  0.00     0.036 A 
HETATM    2  C   UNL     1       5.846  27.551  56.451  1.00  0.00     0.049 A 
HETATM    3  C   UNL     1       5.549  26.770  55.312  1.00  0.00     0.063 A 
HETATM    4  C   UNL     1       4.836  27.327  54.236  1.00  0.00     0.075 A 
HETATM    5  N   UNL     1       4.445  26.680  53.049  1.00  0.00    -0.226 NA
HETATM    6  C   UNL     1       5.248  25.862  52.457  1.00  0.00     0.161 C 
HETATM    7  C   UNL     1       6.629  25.440  52.913  1.00  0.00     0.164 C 
HETATM    8  N   UNL     1       6.457  24.769  54.197  1.00  0.00    -0.336 N 
HETATM    9  C   UNL     1       5.999  25.355  55.357  1.00  0.00     0.257 C 
HETATM   10  O   UNL     1       5.982  24.755  56.430  1.00  0.00    -0.267 OA
HETATM   11  C   UNL     1       7.319  24.391  52.033  1.00  0.00     0.035 C 
HETATM   12  C   UNL     1       8.038  23.497  53.038  1.00  0.00     0.022 C 
HETATM   13  C   UNL     1       7.062  23.451  54.202  1.00  0.00     0.127 C 
HETATM   14  C   UNL     1       4.408  28.656  54.355  1.00  0.00     0.035 A 
HETATM   15  C   UNL     1       4.696  29.422  55.489  1.00  0.00     0.032 A 
ENDROOT
BRANCH   1  16
HETATM   16  N   UNL     1       5.695  29.721  57.644  1.00  0.00    -0.323 N 
HETATM   17  C   UNL     1       6.876  30.387  57.926  1.00  0.00     0.256 C 
HETATM   18  O   UNL     1       7.894  30.377  57.245  1.00  0.00    -0.267 OA
HETATM   19  H   UNL     1       4.935  29.824  58.300  1.00  0.00     0.169 HD
BRANCH  17  20
HETATM   20  C   UNL     1       6.885  31.180  59.192  1.00  0.00     0.033 A 
HETATM   21  C   UNL     1       5.814  31.975  59.595  1.00  0.00     0.019 A 
HETATM   22  C   UNL     1       5.877  32.672  60.807  1.00  0.00     0.031 A 
HETATM   23  C   UNL     1       7.017  32.600  61.633  1.00  0.00     0.044 A 
HETATM   24  C   UNL     1       8.138  31.863  61.195  1.00  0.00    -0.034 A 
HETATM   25  C   UNL     1       9.473  31.821  61.891  1.00  0.00     0.050 C 
HETATM   26  C   UNL     1       8.041  31.143  59.985  1.00  0.00     0.026 A 
BRANCH  23  27
HETATM   27  N   UNL     1       6.969  33.280  62.892  1.00  0.00    -0.332 N 
HETATM   28  C   UNL     1       6.209  34.403  63.179  1.00  0.00     0.096 A 
HETATM   29  C   UNL     1       6.396  34.758  64.497  1.00  0.00     0.019 A 
HETATM   30  C   UNL     1       7.275  33.813  65.059  1.00  0.00     0.019 A 
HETATM   31  C   UNL     1       7.598  32.915  64.066  1.00  0.00     0.096 A 
ENDBRANCH  23  27
ENDBRANCH  17  20
ENDBRANCH   1  16
BRANCH   6  32
HETATM   32  O   UNL     1       4.810  25.347  51.301  1.00  0.00    -0.346 OA
HETATM   33  H   UNL     1       3.914  25.697  51.155  1.00  0.00     0.219 HD
ENDBRANCH   6  32
TORSDOF 4
ENDMDL
MODEL 2
REMARK VINA RESULT:     -10.1      2.227     10.554
REMARK  4 active torsions:
REMARK  status: ('A' for Active; 'I' for Inactive)
REMARK    1  A    between atoms: C_3  and  N_4 
REMARK    2  A    between atoms: C_11  and  C_12 
REMARK       I    between atoms: C_12  and  N_13 
REMARK    3  A    between atoms: N_13  and  C_14 
REMARK    4  A    between atoms: C_19  and  O_20 
ROOT
HETATM    1  C   UNL     1       6.868  29.191  57.572  1.00  0.00     0.036 A 
HETATM    2  C   UNL     1       7.660  29.723  58.588  1.00  0.00     0.049 A 
HETATM    3  C   UNL     1       7.350  30.966  59.181  1.00  0.00     0.063 A 
HETATM    4  C   UNL     1       6.220  31.691  58.763  1.00  0.00     0.075 A 
HETATM    5  N   UNL     1       5.790  32.944  59.235  1.00  0.00    -0.226 NA
HETATM    6  C   UNL     1       5.848  33.221  60.493  1.00  0.00     0.161 C 
HETATM    7  C   UNL     1       6.388  32.344  61.604  1.00  0.00     0.164 C 
HETATM    8  N   UNL     1       7.800  32.123  61.310  1.00  0.00    -0.336 N 
HETATM    9  C   UNL     1       8.299  31.448  60.218  1.00  0.00     0.257 C 
HETATM   10  O   UNL     1       9.498  31.206  60.090  1.00  0.00    -0.267 OA
HETATM   11  C   UNL     1       6.392  32.978  62.999  1.00  0.00     0.035 C 
HETATM   12  C   UNL     1       7.692  32.476  63.617  1.00  0.00     0.022 C 
HETATM   13  C   UNL     1       8.646  32.476  62.434  1.00  0.00     0.127 C 
HETATM   14  C   UNL     1       5.449  31.153  57.724  1.00  0.00     0.035 A 
HETATM   15  C   UNL     1       5.766  29.926  57.131  1.00  0.00     0.032 A 
ENDROOT
BRANCH   1  16
HETATM   16  N   UNL     1       7.112  27.956  56.934  1.00  0.00    -0.323 N 
HETATM   17  C   UNL     1       6.178  26.991  56.595  1.00  0.00     0.256 C 
HETATM   18  O   UNL     1       4.968  27.060  56.771  1.00  0.00    -0.267 OA
HETATM   19  H   UNL     1       8.080  27.760  56.726  1.00  0.00     0.169 HD
BRANCH  17  20
HETATM   20  C   UNL     1       6.727  25.753  55.963  1.00  0.00     0.033 A 
HETATM   21  C   UNL     1       6.959  24.579  56.677  1.00  0.00     0.019 A 
HETATM   22  C   UNL     1       7.450  23.446  56.017  1.00  0.00     0.031 A 
HETATM   23  C   UNL     1       7.731  23.468  54.636  1.00  0.00     0.044 A 
HETATM   24  C   UNL     1       7.576  24.675  53.922  1.00  0.00    -0.034 A 
HETATM   25  C   UNL     1       7.982  24.892  52.488  1.00  0.00     0.050 C 
HETATM   26  C   UNL     1       7.051  25.797  54.600  1.00  0.00     0.026 A 
BRANCH  23  27
HETATM   27  N   UNL     1       8.156  22.245  54.025  1.00  0.00    -0.332 N 
HETATM   28  C   UNL     1       9.215  21.454  54.442  1.00  0.00     0.096 A 
HETATM   29  C   UNL     1       9.304  20.344  53.631  1.00  0.00     0.019 A 
HETATM   30  C   UNL     1       8.253  20.427  52.698  1.00  0.00     0.019 A 
HETATM   31  C   UNL     1       7.559  21.586  52.968  1.00  0.00     0.096 A 
ENDBRANCH  23  27
ENDBRANCH  17  20
ENDBRANCH   1  16
BRANCH   6  32
HETATM   32  O   UNL     1       5.356  34.414  60.852  1.00  0.00    -0.346 OA
HETATM   33  H   UNL     1       5.005  34.317  61.753  1.00  0.00     0.219 HD
ENDBRANCH   6  32
TORSDOF 4
ENDMDL
MODEL 3
REMARK VINA RESULT:     -10.1      2.974     11.042
REMARK  4 active torsions:
REMARK  status: ('A' for Active; 'I' for Inactive)
REMARK    1  A    between atoms: C_3  and  N_4 
REMARK    2  A    between atoms: C_11  and  C_12 
REMARK       I    between atoms: C_12  and  N_13 
REMARK    3  A    between atoms: N_13  and  C_14 
REMARK    4  A    between atoms: C_19  and  O_20 
ROOT
HETATM    1  C   UNL     1       6.083  32.322  60.534  1.00  0.00     0.036 A 
HETATM    2  C   UNL     1       6.575  32.462  61.831  1.00  0.00     0.049 A 
HETATM    3  C   UNL     1       6.243  33.583  62.622  1.00  0.00     0.063 A 
HETATM    4  C   UNL     1       5.391  34.582  62.117  1.00  0.00     0.075 A 
HETATM    5  N   UNL     1       4.985  35.762  62.766  1.00  0.00    -0.226 NA
HETATM    6  C   UNL     1       4.679  35.745  64.018  1.00  0.00     0.161 C 
HETATM    7  C   UNL     1       4.739  34.561  64.963  1.00  0.00     0.164 C 
HETATM    8  N   UNL     1       6.137  34.146  65.019  1.00  0.00    -0.336 N 
HETATM    9  C   UNL     1       6.870  33.641  63.968  1.00  0.00     0.257 C 
HETATM   10  O   UNL     1       8.012  33.209  64.114  1.00  0.00    -0.267 OA
HETATM   11  C   UNL     1       4.382  34.867  66.421  1.00  0.00     0.035 C 
HETATM   12  C   UNL     1       5.357  34.006  67.217  1.00  0.00     0.022 C 
HETATM   13  C   UNL     1       6.625  34.080  66.383  1.00  0.00     0.127 C 
HETATM   14  C   UNL     1       4.926  34.437  60.803  1.00  0.00     0.035 A 
HETATM   15  C   UNL     1       5.266  33.330  60.019  1.00  0.00     0.032 A 
ENDROOT
BRANCH   1  16
HETATM   16  N   UNL     1       6.368  31.231  59.686  1.00  0.00    -0.323 N 
HETATM   17  C   UNL     1       7.473  31.075  58.866  1.00  0.00     0.256 C 
HETATM   18  O   UNL     1       8.411  31.856  58.758  1.00  0.00    -0.267 OA
HETATM   19  H   UNL     1       5.671  30.501  59.672  1.00  0.00     0.169 HD
BRANCH  17  20
HETATM   20  C   UNL     1       7.495  29.832  58.039  1.00  0.00     0.033 A 
HETATM   21  C   UNL     1       8.675  29.174  57.693  1.00  0.00     0.019 A 
HETATM   22  C   UNL     1       8.623  27.997  56.936  1.00  0.00     0.031 A 
HETATM   23  C   UNL     1       7.394  27.462  56.500  1.00  0.00     0.044 A 
HETATM   24  C   UNL     1       6.201  28.164  56.777  1.00  0.00    -0.034 A 
HETATM   25  C   UNL     1       4.839  27.801  56.246  1.00  0.00     0.050 C 
HETATM   26  C   UNL     1       6.274  29.332  57.566  1.00  0.00     0.026 A 
BRANCH  23  27
HETATM   27  N   UNL     1       7.424  26.214  55.799  1.00  0.00    -0.332 N 
HETATM   28  C   UNL     1       7.362  24.957  56.378  1.00  0.00     0.096 A 
HETATM   29  C   UNL     1       7.389  23.997  55.391  1.00  0.00     0.019 A 
HETATM   30  C   UNL     1       7.439  24.672  54.157  1.00  0.00     0.019 A 
HETATM   31  C   UNL     1       7.445  26.022  54.432  1.00  0.00     0.096 A 
ENDBRANCH  23  27
ENDBRANCH  17  20
ENDBRANCH   1  16
BRANCH   6  32
HETATM   32  O   UNL     1       4.242  36.903  64.529  1.00  0.00    -0.346 OA
HETATM   33  H   UNL     1       4.501  36.916  65.466  1.00  0.00     0.219 HD
ENDBRANCH   6  32
TORSDOF 4
ENDMDL
MODEL 4
REMARK VINA RESULT:     -10.0      6.473     10.970
REMARK  4 active torsions:
REMARK  status: ('A' for Active; 'I' for Inactive)
REMARK    1  A    between atoms: C_3  and  N_4 
REMARK    2  A    between atoms: C_11  and  C_12 
REMARK       I    between atoms: C_12  and  N_13 
REMARK    3  A    between atoms: N_13  and  C_14 
REMARK    4  A    between atoms: C_19  and  O_20 
ROOT
HETATM    1  C   UNL     1       5.385  25.959  52.901  1.00  0.00     0.036 A 
HETATM    2  C   UNL     1       6.250  24.870  52.811  1.00  0.00     0.049 A 
HETATM    3  C   UNL     1       7.044  24.475  53.910  1.00  0.00     0.063 A 
HETATM    4  C   UNL     1       6.965  25.171  55.129  1.00  0.00     0.075 A 
HETATM    5  N   UNL     1       7.700  24.918  56.303  1.00  0.00    -0.226 NA
HETATM    6  C   UNL     1       7.915  23.707  56.688  1.00  0.00     0.161 C 
HETATM    7  C   UNL     1       7.496  22.431  55.987  1.00  0.00     0.164 C 
HETATM    8  N   UNL     1       8.170  22.428  54.692  1.00  0.00    -0.336 N 
HETATM    9  C   UNL     1       7.962  23.331  53.673  1.00  0.00     0.257 C 
HETATM   10  O   UNL     1       8.486  23.204  52.569  1.00  0.00    -0.267 OA
HETATM   11  C   UNL     1       7.962  21.132  56.653  1.00  0.00     0.035 C 
HETATM   12  C   UNL     1       8.314  20.231  55.475  1.00  0.00     0.022 C 
HETATM   13  C   UNL     1       8.920  21.205  54.479  1.00  0.00     0.127 C 
HETATM   14  C   UNL     1       6.109  26.278  55.194  1.00  0.00     0.035 A 
HETATM   15  C   UNL     1       5.332  26.672  54.100  1.00  0.00     0.032 A 
ENDROOT
BRANCH   1  16
HETATM   16  N   UNL     1       4.560  26.411  51.848  1.00  0.00    -0.323 N 
HETATM   17  C   UNL     1       4.733  27.549  51.079  1.00  0.00     0.256 C 
HETATM   18  O   UNL     1       5.656  28.350  51.168  1.00  0.00    -0.267 OA
HETATM   19  H   UNL     1       3.747  25.842  51.661  1.00  0.00     0.169 HD
BRANCH  17  20
HETATM   20  C   UNL     1       3.675  27.807  50.057  1.00  0.00     0.033 A 
HETATM   21  C   UNL     1       2.746  28.839  50.173  1.00  0.00     0.019 A 
HETATM   22  C   UNL     1       1.797  29.042  49.164  1.00  0.00     0.031 A 
HETATM   23  C   UNL     1       1.749  28.210  48.027  1.00  0.00     0.044 A 
HETATM   24  C   UNL     1       2.633  27.114  47.940  1.00  0.00    -0.034 A 
HETATM   25  C   UNL     1       2.596  26.055  46.870  1.00  0.00     0.050 C 
HETATM   26  C   UNL     1       3.601  26.946  48.953  1.00  0.00     0.026 A 
BRANCH  23  27
HETATM   27  N   UNL     1       0.799  28.535  47.007  1.00  0.00    -0.332 N 
HETATM   28  C   UNL     1      -0.259  27.737  46.600  1.00  0.00     0.096 A 
HETATM   29  C   UNL     1      -0.973  28.390  45.619  1.00  0.00     0.019 A 
HETATM   30  C   UNL     1      -0.363  29.644  45.427  1.00  0.00     0.019 A 
HETATM   31  C   UNL     1       0.705  29.714  46.294  1.00  0.00     0.096 A 
ENDBRANCH  23  27
ENDBRANCH  17  20
ENDBRANCH   1  16
BRANCH   6  32
HETATM   32  O   UNL     1       8.568  23.571  57.850  1.00  0.00    -0.346 OA
HETATM   33  H   UNL     1       8.701  24.465  58.207  1.00  0.00     0.219 HD
ENDBRANCH   6  32
TORSDOF 4
ENDMDL
MODEL 5
REMARK VINA RESULT:      -9.9      2.489      4.199
REMARK  4 active torsions:
REMARK  status: ('A' for Active; 'I' for Inactive)
REMARK    1  A    between atoms: C_3  and  N_4 
REMARK    2  A    between atoms: C_11  and  C_12 
REMARK       I    between atoms: C_12  and  N_13 
REMARK    3  A    between atoms: N_13  and  C_14 
REMARK    4  A    between atoms: C_19  and  O_20 
ROOT
HETATM    1  C   UNL     1       7.200  30.547  58.736  1.00  0.00     0.036 A 
HETATM    2  C   UNL     1       6.303  30.616  57.672  1.00  0.00     0.049 A 
HETATM    3  C   UNL     1       6.588  29.998  56.435  1.00  0.00     0.063 A 
HETATM    4  C   UNL     1       7.787  29.285  56.257  1.00  0.00     0.075 A 
HETATM    5  N   UNL     1       8.225  28.635  55.088  1.00  0.00    -0.226 NA
HETATM    6  C   UNL     1       7.394  27.967  54.363  1.00  0.00     0.161 C 
HETATM    7  C   UNL     1       5.904  27.806  54.585  1.00  0.00     0.164 C 
HETATM    8  N   UNL     1       5.324  29.142  54.500  1.00  0.00    -0.336 N 
HETATM    9  C   UNL     1       5.575  30.185  55.364  1.00  0.00     0.257 C 
HETATM   10  O   UNL     1       4.968  31.252  55.296  1.00  0.00    -0.267 OA
HETATM   11  C   UNL     1       5.162  27.008  53.507  1.00  0.00     0.035 C 
HETATM   12  C   UNL     1       3.834  27.743  53.367  1.00  0.00     0.022 C 
HETATM   13  C   UNL     1       4.239  29.198  53.540  1.00  0.00     0.127 C 
HETATM   14  C   UNL     1       8.688  29.246  57.329  1.00  0.00     0.035 A 
HETATM   15  C   UNL     1       8.406  29.869  58.549  1.00  0.00     0.032 A 
ENDROOT
BRANCH   1  16
HETATM   16  N   UNL     1       6.984  31.136  60.001  1.00  0.00    -0.323 N 
HETATM   17  C   UNL     1       7.661  32.212  60.549  1.00  0.00     0.256 C 
HETATM   18  O   UNL     1       8.552  32.858  60.011  1.00  0.00    -0.267 OA
HETATM   19  H   UNL     1       6.268  30.700  60.564  1.00  0.00     0.169 HD
BRANCH  17  20
HETATM   20  C   UNL     1       7.250  32.599  61.932  1.00  0.00     0.033 A 
HETATM   21  C   UNL     1       8.080  32.437  63.040  1.00  0.00     0.019 A 
HETATM   22  C   UNL     1       7.643  32.845  64.306  1.00  0.00     0.031 A 
HETATM   23  C   UNL     1       6.365  33.410  64.492  1.00  0.00     0.044 A 
HETATM   24  C   UNL     1       5.488  33.504  63.390  1.00  0.00    -0.034 A 
HETATM   25  C   UNL     1       4.048  33.937  63.463  1.00  0.00     0.050 C 
HETATM   26  C   UNL     1       5.960  33.114  62.117  1.00  0.00     0.026 A 
BRANCH  23  27
HETATM   27  N   UNL     1       6.027  33.872  65.804  1.00  0.00    -0.332 N 
HETATM   28  C   UNL     1       4.747  33.969  66.325  1.00  0.00     0.096 A 
HETATM   29  C   UNL     1       4.815  34.425  67.623  1.00  0.00     0.019 A 
HETATM   30  C   UNL     1       6.178  34.591  67.933  1.00  0.00     0.019 A 
HETATM   31  C   UNL     1       6.897  34.233  66.814  1.00  0.00     0.096 A 
ENDBRANCH  23  27
ENDBRANCH  17  20
ENDBRANCH   1  16
BRANCH   6  32
HETATM   32  O   UNL     1       7.919  27.332  53.307  1.00  0.00    -0.346 OA
HETATM   33  H   UNL     1       8.606  27.913  52.939  1.00  0.00     0.219 HD
ENDBRANCH   6  32
TORSDOF 4
ENDMDL
MODEL 6
REMARK VINA RESULT:      -9.8      1.778      2.667
REMARK  4 active torsions:
REMARK  status: ('A' for Active; 'I' for Inactive)
REMARK    1  A    between atoms: C_3  and  N_4 
REMARK    2  A    between atoms: C_11  and  C_12 
REMARK       I    between atoms: C_12  and  N_13 
REMARK    3  A    between atoms: N_13  and  C_14 
REMARK    4  A    between atoms: C_19  and  O_20 
ROOT
HETATM    1  C   UNL     1       6.980  28.288  57.255  1.00  0.00     0.036 A 
HETATM    2  C   UNL     1       6.779  28.354  55.877  1.00  0.00     0.049 A 
HETATM    3  C   UNL     1       7.017  27.235  55.050  1.00  0.00     0.063 A 
HETATM    4  C   UNL     1       7.452  26.020  55.607  1.00  0.00     0.075 A 
HETATM    5  N   UNL     1       7.751  24.828  54.921  1.00  0.00    -0.226 NA
HETATM    6  C   UNL     1       7.009  24.435  53.942  1.00  0.00     0.161 C 
HETATM    7  C   UNL     1       5.803  25.144  53.362  1.00  0.00     0.164 C 
HETATM    8  N   UNL     1       6.282  26.422  52.843  1.00  0.00    -0.336 N 
HETATM    9  C   UNL     1       6.814  27.447  53.593  1.00  0.00     0.257 C 
HETATM   10  O   UNL     1       7.097  28.538  53.103  1.00  0.00    -0.267 OA
HETATM   11  C   UNL     1       5.164  24.464  52.146  1.00  0.00     0.035 C 
HETATM   12  C   UNL     1       4.766  25.632  51.250  1.00  0.00     0.022 C 
HETATM   13  C   UNL     1       5.907  26.614  51.455  1.00  0.00     0.127 C 
HETATM   14  C   UNL     1       7.672  25.978  56.990  1.00  0.00     0.035 A 
HETATM   15  C   UNL     1       7.445  27.093  57.804  1.00  0.00     0.032 A 
ENDROOT
BRANCH   1  16
HETATM   16  N   UNL     1       6.761  29.362  58.145  1.00  0.00    -0.323 N 
HETATM   17  C   UNL     1       7.699  30.271  58.605  1.00  0.00     0.256 C 
HETATM   18  O   UNL     1       8.883  30.312  58.292  1.00  0.00    -0.267 OA
HETATM   19  H   UNL     1       5.817  29.451  58.491  1.00  0.00     0.169 HD
BRANCH  17  20
HETATM   20  C   UNL     1       7.194  31.284  59.580  1.00  0.00     0.033 A 
HETATM   21  C   UNL     1       6.148  32.158  59.290  1.00  0.00     0.019 A 
HETATM   22  C   UNL     1       5.707  33.066  60.261  1.00  0.00     0.031 A 
HETATM   23  C   UNL     1       6.309  33.126  61.533  1.00  0.00     0.044 A 
HETATM   24  C   UNL     1       7.420  32.301  61.808  1.00  0.00    -0.034 A 
HETATM   25  C   UNL     1       8.259  32.364  63.057  1.00  0.00     0.050 C 
HETATM   26  C   UNL     1       7.830  31.373  60.826  1.00  0.00     0.026 A 
BRANCH  23  27
HETATM   27  N   UNL     1       5.746  34.027  62.492  1.00  0.00    -0.332 N 
HETATM   28  C   UNL     1       5.923  35.402  62.516  1.00  0.00     0.096 A 
HETATM   29  C   UNL     1       5.207  35.937  63.564  1.00  0.00     0.019 A 
HETATM   30  C   UNL     1       4.539  34.872  64.197  1.00  0.00     0.019 A 
HETATM   31  C   UNL     1       4.871  33.722  63.516  1.00  0.00     0.096 A 
ENDBRANCH  23  27
ENDBRANCH  17  20
ENDBRANCH   1  16
BRANCH   6  32
HETATM   32  O   UNL     1       7.338  23.258  53.396  1.00  0.00    -0.346 OA
HETATM   33  H   UNL     1       6.619  23.015  52.789  1.00  0.00     0.219 HD
ENDBRANCH   6  32
TORSDOF 4
ENDMDL
MODEL 7
REMARK VINA RESULT:      -9.7      3.333     11.088
REMARK  4 active torsions:
REMARK  status: ('A' for Active; 'I' for Inactive)
REMARK    1  A    between atoms: C_3  and  N_4 
REMARK    2  A    between atoms: C_11  and  C_12 
REMARK       I    between atoms: C_12  and  N_13 
REMARK    3  A    between atoms: N_13  and  C_14 
REMARK    4  A    between atoms: C_19  and  O_20 
ROOT
HETATM    1  C   UNL     1       6.374  32.333  60.836  1.00  0.00     0.036 A 
HETATM    2  C   UNL     1       5.414  33.325  60.639  1.00  0.00     0.049 A 
HETATM    3  C   UNL     1       5.226  34.357  61.584  1.00  0.00     0.063 A 
HETATM    4  C   UNL     1       6.018  34.411  62.744  1.00  0.00     0.075 A 
HETATM    5  N   UNL     1       5.941  35.356  63.784  1.00  0.00    -0.226 NA
HETATM    6  C   UNL     1       5.752  36.603  63.519  1.00  0.00     0.161 C 
HETATM    7  C   UNL     1       5.546  37.232  62.156  1.00  0.00     0.164 C 
HETATM    8  N   UNL     1       4.324  36.650  61.610  1.00  0.00    -0.336 N 
HETATM    9  C   UNL     1       4.139  35.325  61.284  1.00  0.00     0.257 C 
HETATM   10  O   UNL     1       3.119  34.924  60.726  1.00  0.00    -0.267 OA
HETATM   11  C   UNL     1       5.271  38.740  62.163  1.00  0.00     0.035 C 
HETATM   12  C   UNL     1       4.233  38.920  61.061  1.00  0.00     0.022 C 
HETATM   13  C   UNL     1       3.379  37.671  61.199  1.00  0.00     0.127 C 
HETATM   14  C   UNL     1       6.961  33.393  62.938  1.00  0.00     0.035 A 
HETATM   15  C   UNL     1       7.136  32.366  62.005  1.00  0.00     0.032 A 
ENDROOT
BRANCH   1  16
HETATM   16  N   UNL     1       6.621  31.273  59.938  1.00  0.00    -0.323 N 
HETATM   17  C   UNL     1       7.642  31.188  59.005  1.00  0.00     0.256 C 
HETATM   18  O   UNL     1       8.525  32.017  58.820  1.00  0.00    -0.267 OA
HETATM   19  H   UNL     1       5.962  30.510  59.977  1.00  0.00     0.169 HD
BRANCH  17  20
HETATM   20  C   UNL     1       7.637  29.963  58.151  1.00  0.00     0.033 A 
HETATM   21  C   UNL     1       8.805  29.326  57.735  1.00  0.00     0.019 A 
HETATM   22  C   UNL     1       8.729  28.165  56.957  1.00  0.00     0.031 A 
HETATM   23  C   UNL     1       7.487  27.626  56.566  1.00  0.00     0.044 A 
HETATM   24  C   UNL     1       6.302  28.309  56.913  1.00  0.00    -0.034 A 
HETATM   25  C   UNL     1       4.920  27.943  56.439  1.00  0.00     0.050 C 
HETATM   26  C   UNL     1       6.400  29.461  57.724  1.00  0.00     0.026 A 
BRANCH  23  27
HETATM   27  N   UNL     1       7.497  26.394  55.837  1.00  0.00    -0.332 N 
HETATM   28  C   UNL     1       7.494  25.124  56.391  1.00  0.00     0.096 A 
HETATM   29  C   UNL     1       7.477  24.185  55.383  1.00  0.00     0.019 A 
HETATM   30  C   UNL     1       7.437  24.888  54.164  1.00  0.00     0.019 A 
HETATM   31  C   UNL     1       7.435  26.231  54.468  1.00  0.00     0.096 A 
ENDBRANCH  23  27
ENDBRANCH  17  20
ENDBRANCH   1  16
BRANCH   6  32
HETATM   32  O   UNL     1       5.757  37.431  64.571  1.00  0.00    -0.346 OA
HETATM   33  H   UNL     1       5.763  38.338  64.219  1.00  0.00     0.219 HD
ENDBRANCH   6  32
TORSDOF 4
ENDMDL
MODEL 8
REMARK VINA RESULT:      -9.4      2.893     10.796
REMARK  4 active torsions:
REMARK  status: ('A' for Active; 'I' for Inactive)
REMARK    1  A    between atoms: C_3  and  N_4 
REMARK    2  A    between atoms: C_11  and  C_12 
REMARK       I    between atoms: C_12  and  N_13 
REMARK    3  A    between atoms: N_13  and  C_14 
REMARK    4  A    between atoms: C_19  and  O_20 
ROOT
HETATM    1  C   UNL     1       5.142  32.335  59.373  1.00  0.00     0.036 A 
HETATM    2  C   UNL     1       5.641  32.416  60.672  1.00  0.00     0.049 A 
HETATM    3  C   UNL     1       5.376  33.537  61.487  1.00  0.00     0.063 A 
HETATM    4  C   UNL     1       4.586  34.596  61.005  1.00  0.00     0.075 A 
HETATM    5  N   UNL     1       4.251  35.784  61.680  1.00  0.00    -0.226 NA
HETATM    6  C   UNL     1       3.944  35.757  62.932  1.00  0.00     0.161 C 
HETATM    7  C   UNL     1       3.933  34.552  63.850  1.00  0.00     0.164 C 
HETATM    8  N   UNL     1       5.304  34.052  63.896  1.00  0.00    -0.336 N 
HETATM    9  C   UNL     1       6.006  33.528  62.833  1.00  0.00     0.257 C 
HETATM   10  O   UNL     1       7.119  33.025  62.969  1.00  0.00    -0.267 OA
HETATM   11  C   UNL     1       3.594  34.846  65.316  1.00  0.00     0.035 C 
HETATM   12  C   UNL     1       4.515  33.911  66.091  1.00  0.00     0.022 C 
HETATM   13  C   UNL     1       5.786  33.928  65.258  1.00  0.00     0.127 C 
HETATM   14  C   UNL     1       4.113  34.509  59.689  1.00  0.00     0.035 A 
HETATM   15  C   UNL     1       4.388  33.401  58.880  1.00  0.00     0.032 A 
ENDROOT
BRANCH   1  16
HETATM   16  N   UNL     1       5.362  31.247  58.501  1.00  0.00    -0.323 N 
HETATM   17  C   UNL     1       4.404  30.499  57.838  1.00  0.00     0.256 C 
HETATM   18  O   UNL     1       3.192  30.675  57.878  1.00  0.00    -0.267 OA
HETATM   19  H   UNL     1       6.329  30.984  58.372  1.00  0.00     0.169 HD
BRANCH  17  20
HETATM   20  C   UNL     1       4.923  29.371  57.008  1.00  0.00     0.033 A 
HETATM   21  C   UNL     1       4.244  28.876  55.895  1.00  0.00     0.019 A 
HETATM   22  C   UNL     1       4.800  27.833  55.144  1.00  0.00     0.031 A 
HETATM   23  C   UNL     1       6.036  27.256  55.498  1.00  0.00     0.044 A 
HETATM   24  C   UNL     1       6.691  27.696  56.668  1.00  0.00    -0.034 A 
HETATM   25  C   UNL     1       7.930  27.072  57.254  1.00  0.00     0.050 C 
HETATM   26  C   UNL     1       6.128  28.769  57.393  1.00  0.00     0.026 A 
BRANCH  23  27
HETATM   27  N   UNL     1       6.571  26.249  54.632  1.00  0.00    -0.332 N 
HETATM   28  C   UNL     1       6.230  24.906  54.643  1.00  0.00     0.096 A 
HETATM   29  C   UNL     1       6.925  24.249  53.651  1.00  0.00     0.019 A 
HETATM   30  C   UNL     1       7.700  25.214  52.981  1.00  0.00     0.019 A 
HETATM   31  C   UNL     1       7.456  26.426  53.587  1.00  0.00     0.096 A 
ENDBRANCH  23  27
ENDBRANCH  17  20
ENDBRANCH   1  16
BRANCH   6  32
HETATM   32  O   UNL     1       3.577  36.928  63.469  1.00  0.00    -0.346 OA
HETATM   33  H   UNL     1       2.914  37.318  62.874  1.00  0.00     0.219 HD
ENDBRANCH   6  32
TORSDOF 4
ENDMDL
MODEL 9
REMARK VINA RESULT:      -9.1      1.837      2.569
REMARK  4 active torsions:
REMARK  status: ('A' for Active; 'I' for Inactive)
REMARK    1  A    between atoms: C_3  and  N_4 
REMARK    2  A    between atoms: C_11  and  C_12 
REMARK       I    between atoms: C_12  and  N_13 
REMARK    3  A    between atoms: N_13  and  C_14 
REMARK    4  A    between atoms: C_19  and  O_20 
ROOT
HETATM    1  C   UNL     1       5.019  29.204  56.818  1.00  0.00     0.036 A 
HETATM    2  C   UNL     1       5.441  27.884  56.968  1.00  0.00     0.049 A 
HETATM    3  C   UNL     1       5.398  26.976  55.888  1.00  0.00     0.063 A 
HETATM    4  C   UNL     1       4.938  27.393  54.626  1.00  0.00     0.075 A 
HETATM    5  N   UNL     1       4.815  26.611  53.463  1.00  0.00    -0.226 NA
HETATM    6  C   UNL     1       5.727  25.753  53.156  1.00  0.00     0.161 C 
HETATM    7  C   UNL     1       6.976  25.416  53.945  1.00  0.00     0.164 C 
HETATM    8  N   UNL     1       6.526  24.886  55.228  1.00  0.00    -0.336 N 
HETATM    9  C   UNL     1       5.828  25.585  56.188  1.00  0.00     0.257 C 
HETATM   10  O   UNL     1       5.576  25.107  57.292  1.00  0.00    -0.267 OA
HETATM   11  C   UNL     1       7.839  24.293  53.360  1.00  0.00     0.035 C 
HETATM   12  C   UNL     1       8.321  23.534  54.590  1.00  0.00     0.022 C 
HETATM   13  C   UNL     1       7.115  23.592  55.512  1.00  0.00     0.127 C 
HETATM   14  C   UNL     1       4.496  28.717  54.500  1.00  0.00     0.035 A 
HETATM   15  C   UNL     1       4.529  29.610  55.575  1.00  0.00     0.032 A 
ENDROOT
BRANCH   1  16
HETATM   16  N   UNL     1       5.035  30.168  57.848  1.00  0.00    -0.323 N 
HETATM   17  C   UNL     1       4.047  31.093  58.143  1.00  0.00     0.256 C 
HETATM   18  O   UNL     1       2.972  31.213  57.569  1.00  0.00    -0.267 OA
HETATM   19  H   UNL     1       5.873  30.187  58.411  1.00  0.00     0.169 HD
BRANCH  17  20
HETATM   20  C   UNL     1       4.351  32.027  59.269  1.00  0.00     0.033 A 
HETATM   21  C   UNL     1       5.633  32.192  59.791  1.00  0.00     0.019 A 
HETATM   22  C   UNL     1       5.852  33.105  60.829  1.00  0.00     0.031 A 
HETATM   23  C   UNL     1       4.795  33.860  61.375  1.00  0.00     0.044 A 
HETATM   24  C   UNL     1       3.481  33.641  60.908  1.00  0.00    -0.034 A 
HETATM   25  C   UNL     1       2.239  34.255  61.498  1.00  0.00     0.050 C 
HETATM   26  C   UNL     1       3.286  32.738  59.840  1.00  0.00     0.026 A 
BRANCH  23  27
HETATM   27  N   UNL     1       5.119  34.827  62.379  1.00  0.00    -0.332 N 
HETATM   28  C   UNL     1       5.386  36.169  62.158  1.00  0.00     0.096 A 
HETATM   29  C   UNL     1       5.628  36.792  63.362  1.00  0.00     0.019 A 
HETATM   30  C   UNL     1       5.479  35.820  64.369  1.00  0.00     0.019 A 
HETATM   31  C   UNL     1       5.155  34.635  63.746  1.00  0.00     0.096 A 
ENDBRANCH  23  27
ENDBRANCH  17  20
ENDBRANCH   1  16
BRANCH   6  32
HETATM   32  O   UNL     1       5.551  25.104  51.998  1.00  0.00    -0.346 OA
HETATM   33  H   UNL     1       6.423  25.043  51.571  1.00  0.00     0.219 HD
ENDBRANCH   6  32
TORSDOF 4
ENDMDL
MODEL 10
REMARK VINA RESULT:      -8.8      6.783      9.875
REMARK  4 active torsions:
REMARK  status: ('A' for Active; 'I' for Inactive)
REMARK    1  A    between atoms: C_3  and  N_4 
REMARK    2  A    between atoms: C_11  and  C_12 
REMARK       I    between atoms: C_12  and  N_13 
REMARK    3  A    between atoms: N_13  and  C_14 
REMARK    4  A    between atoms: C_19  and  O_20 
ROOT
HETATM    1  C   UNL     1       4.469  28.103  51.377  1.00  0.00     0.036 A 
HETATM    2  C   UNL     1       4.625  28.363  50.016  1.00  0.00     0.049 A 
HETATM    3  C   UNL     1       3.991  29.468  49.407  1.00  0.00     0.063 A 
HETATM    4  C   UNL     1       3.195  30.340  50.170  1.00  0.00     0.075 A 
HETATM    5  N   UNL     1       2.484  31.465  49.711  1.00  0.00    -0.226 NA
HETATM    6  C   UNL     1       3.011  32.259  48.842  1.00  0.00     0.161 C 
HETATM    7  C   UNL     1       4.361  32.119  48.169  1.00  0.00     0.164 C 
HETATM    8  N   UNL     1       4.319  30.873  47.409  1.00  0.00    -0.336 N 
HETATM    9  C   UNL     1       4.194  29.609  47.942  1.00  0.00     0.257 C 
HETATM   10  O   UNL     1       4.275  28.596  47.249  1.00  0.00    -0.267 OA
HETATM   11  C   UNL     1       4.684  33.186  47.118  1.00  0.00     0.035 C 
HETATM   12  C   UNL     1       5.415  32.408  46.030  1.00  0.00     0.022 C 
HETATM   13  C   UNL     1       4.681  31.078  46.020  1.00  0.00     0.127 C 
HETATM   14  C   UNL     1       3.030  30.050  51.531  1.00  0.00     0.035 A 
HETATM   15  C   UNL     1       3.651  28.948  52.128  1.00  0.00     0.032 A 
ENDROOT
BRANCH   1  16
HETATM   16  N   UNL     1       5.072  27.023  52.056  1.00  0.00    -0.323 N 
HETATM   17  C   UNL     1       6.178  27.070  52.887  1.00  0.00     0.256 C 
HETATM   18  O   UNL     1       6.810  28.073  53.196  1.00  0.00    -0.267 OA
HETATM   19  H   UNL     1       4.651  26.119  51.892  1.00  0.00     0.169 HD
BRANCH  17  20
HETATM   20  C   UNL     1       6.628  25.757  53.441  1.00  0.00     0.033 A 
HETATM   21  C   UNL     1       6.718  24.601  52.668  1.00  0.00     0.019 A 
HETATM   22  C   UNL     1       7.174  23.409  53.243  1.00  0.00     0.031 A 
HETATM   23  C   UNL     1       7.534  23.345  54.604  1.00  0.00     0.044 A 
HETATM   24  C   UNL     1       7.370  24.490  55.413  1.00  0.00    -0.034 A 
HETATM   25  C   UNL     1       7.563  24.530  56.906  1.00  0.00     0.050 C 
HETATM   26  C   UNL     1       6.938  25.689  54.806  1.00  0.00     0.026 A 
BRANCH  23  27
HETATM   27  N   UNL     1       8.064  22.109  55.094  1.00  0.00    -0.332 N 
HETATM   28  C   UNL     1       9.407  21.784  55.193  1.00  0.00     0.096 A 
HETATM   29  C   UNL     1       9.535  20.524  55.734  1.00  0.00     0.019 A 
HETATM   30  C   UNL     1       8.235  20.057  56.008  1.00  0.00     0.019 A 
HETATM   31  C   UNL     1       7.358  21.046  55.623  1.00  0.00     0.096 A 
ENDBRANCH  23  27
ENDBRANCH  17  20
ENDBRANCH   1  16
BRANCH   6  32
HETATM   32  O   UNL     1       2.283  33.335  48.517  1.00  0.00    -0.346 OA
HETATM   33  H   UNL     1       1.645  33.474  49.238  1.00  0.00     0.219 HD
ENDBRANCH   6  32
TORSDOF 4
ENDMDL
