MODEL 1
REMARK VINA RESULT:      -9.8      0.000      0.000
REMARK  6 active torsions:
REMARK  status: ('A' for Active; 'I' for Inactive)
REMARK    1  A    between atoms: C_2  and  O_3 
REMARK    2  A    between atoms: O_3  and  C_4 
REMARK    3  A    between atoms: C_5  and  O_6 
REMARK    4  A    between atoms: O_6  and  C_7 
REMARK    5  A    between atoms: C_7  and  C_8 
REMARK    6  A    between atoms: C_16  and  C_17 
ROOT
HETATM    1  C   UNL     1       7.301  27.452  54.737  1.00  0.00     0.102 A 
HETATM    2  C   UNL     1       7.615  26.137  55.101  1.00  0.00     0.102 A 
HETATM    3  C   UNL     1       7.825  25.830  56.448  1.00  0.00     0.040 A 
HETATM    4  C   UNL     1       7.680  26.819  57.428  1.00  0.00     0.014 A 
HETATM    5  C   UNL     1       7.331  28.131  57.076  1.00  0.00    -0.007 A 
HETATM    6  C   UNL     1       7.128  28.431  55.719  1.00  0.00     0.051 A 
ENDROOT
BRANCH   5   7
HETATM    7  C   UNL     1       7.119  29.188  58.140  1.00  0.00     0.264 C 
HETATM    8  O   UNL     1       8.329  29.353  58.893  1.00  0.00    -0.321 OA
HETATM    9  C   UNL     1       8.309  30.443  59.720  1.00  0.00     0.087 A 
HETATM   10  C   UNL     1       7.494  31.551  59.491  1.00  0.00     0.065 A 
HETATM   11  C   UNL     1       9.185  30.438  60.804  1.00  0.00     0.038 A 
HETATM   12  C   UNL     1       6.649  31.559  58.285  1.00  0.00     0.256 C 
HETATM   13  C   UNL     1       7.528  32.649  60.354  1.00  0.00     0.020 A 
HETATM   14  O   UNL     1       5.959  32.516  57.968  1.00  0.00    -0.267 OA
HETATM   15  N   UNL     1       6.710  30.421  57.532  1.00  0.00    -0.326 N 
HETATM   16  H   UNL     1       6.058  30.392  56.759  1.00  0.00     0.165 HD
HETATM   17  C   UNL     1       8.391  32.635  61.449  1.00  0.00     0.001 A 
HETATM   18  C   UNL     1       9.222  31.533  61.672  1.00  0.00     0.003 A 
ENDBRANCH   5   7
BRANCH   1  19
HETATM   19  O   UNL     1       7.061  27.727  53.415  1.00  0.00    -0.349 OA
BRANCH  19  20
HETATM   20  C   UNL     1       5.792  28.342  53.175  1.00  0.00     0.171 C 
HETATM   21  C   UNL     1       4.732  27.260  53.061  1.00  0.00     0.034 C 
ENDBRANCH  19  20
ENDBRANCH   1  19
BRANCH   2  22
HETATM   22  O   UNL     1       7.752  25.228  54.083  1.00  0.00    -0.344 OA
BRANCH  22  23
HETATM   23  C   UNL     1       6.734  24.229  54.010  1.00  0.00     0.214 C 
BRANCH  23  24
HETATM   24  C   UNL     1       7.367  22.864  54.147  1.00  0.00    -0.034 A 
HETATM   25  C   UNL     1       7.488  22.252  55.403  1.00  0.00     0.009 A 
HETATM   26  C   UNL     1       8.043  20.975  55.518  1.00  0.00     0.001 A 
HETATM   27  C   UNL     1       8.474  20.296  54.380  1.00  0.00     0.000 A 
HETATM   28  C   UNL     1       8.353  20.891  53.127  1.00  0.00     0.001 A 
HETATM   29  C   UNL     1       7.801  22.166  53.010  1.00  0.00     0.009 A 
ENDBRANCH  23  24
ENDBRANCH  22  23
ENDBRANCH   2  22
TORSDOF 6
ENDMDL
MODEL 2
REMARK VINA RESULT:      -9.7      2.038      9.207
REMARK  6 active torsions:
REMARK  status: ('A' for Active; 'I' for Inactive)
REMARK    1  A    between atoms: C_2  and  O_3 
REMARK    2  A    between atoms: O_3  and  C_4 
REMARK    3  A    between atoms: C_5  and  O_6 
REMARK    4  A    between atoms: O_6  and  C_7 
REMARK    5  A    between atoms: C_7  and  C_8 
REMARK    6  A    between atoms: C_16  and  C_17 
ROOT
HETATM    1  C   UNL     1       8.402  29.750  58.013  1.00  0.00     0.102 A 
HETATM    2  C   UNL     1       7.246  30.535  58.114  1.00  0.00     0.102 A 
HETATM    3  C   UNL     1       6.046  30.059  57.580  1.00  0.00     0.040 A 
HETATM    4  C   UNL     1       5.990  28.792  56.987  1.00  0.00     0.014 A 
HETATM    5  C   UNL     1       7.134  27.985  56.912  1.00  0.00    -0.007 A 
HETATM    6  C   UNL     1       8.336  28.473  57.448  1.00  0.00     0.051 A 
ENDROOT
BRANCH   5   7
HETATM    7  C   UNL     1       7.061  26.592  56.323  1.00  0.00     0.264 C 
HETATM    8  O   UNL     1       7.446  26.641  54.941  1.00  0.00    -0.321 OA
HETATM    9  C   UNL     1       7.635  25.404  54.386  1.00  0.00     0.087 A 
HETATM   10  C   UNL     1       7.957  24.277  55.142  1.00  0.00     0.065 A 
HETATM   11  C   UNL     1       7.542  25.306  52.999  1.00  0.00     0.038 A 
HETATM   12  C   UNL     1       8.136  24.439  56.595  1.00  0.00     0.256 C 
HETATM   13  C   UNL     1       8.162  23.042  54.524  1.00  0.00     0.020 A 
HETATM   14  O   UNL     1       8.488  23.523  57.323  1.00  0.00    -0.267 OA
HETATM   15  N   UNL     1       7.902  25.699  57.068  1.00  0.00    -0.326 N 
HETATM   16  H   UNL     1       7.932  25.784  58.075  1.00  0.00     0.165 HD
HETATM   17  C   UNL     1       8.050  22.940  53.138  1.00  0.00     0.001 A 
HETATM   18  C   UNL     1       7.745  24.071  52.376  1.00  0.00     0.003 A 
ENDBRANCH   5   7
BRANCH   1  19
HETATM   19  O   UNL     1       9.562  30.215  58.577  1.00  0.00    -0.349 OA
BRANCH  19  20
HETATM   20  C   UNL     1      10.460  30.813  57.637  1.00  0.00     0.171 C 
HETATM   21  C   UNL     1      11.471  29.772  57.190  1.00  0.00     0.034 C 
ENDBRANCH  19  20
ENDBRANCH   1  19
BRANCH   2  22
HETATM   22  O   UNL     1       7.384  31.768  58.697  1.00  0.00    -0.344 OA
BRANCH  22  23
HETATM   23  C   UNL     1       6.336  32.148  59.589  1.00  0.00     0.214 C 
BRANCH  23  24
HETATM   24  C   UNL     1       6.915  32.379  60.965  1.00  0.00    -0.034 A 
HETATM   25  C   UNL     1       6.357  33.335  61.826  1.00  0.00     0.009 A 
HETATM   26  C   UNL     1       6.876  33.520  63.110  1.00  0.00     0.001 A 
HETATM   27  C   UNL     1       7.950  32.746  63.548  1.00  0.00     0.000 A 
HETATM   28  C   UNL     1       8.507  31.789  62.704  1.00  0.00     0.001 A 
HETATM   29  C   UNL     1       7.992  31.604  61.421  1.00  0.00     0.009 A 
ENDBRANCH  23  24
ENDBRANCH  22  23
ENDBRANCH   2  22
TORSDOF 6
ENDMDL
MODEL 3
REMARK VINA RESULT:      -9.7      2.171      9.017
REMARK  6 active torsions:
REMARK  status: ('A' for Active; 'I' for Inactive)
REMARK    1  A    between atoms: C_2  and  O_3 
REMARK    2  A    between atoms: O_3  and  C_4 
REMARK    3  A    between atoms: C_5  and  O_6 
REMARK    4  A    between atoms: O_6  and  C_7 
REMARK    5  A    between atoms: C_7  and  C_8 
REMARK    6  A    between atoms: C_16  and  C_17 
ROOT
HETATM    1  C   UNL     1       6.005  28.011  57.210  1.00  0.00     0.102 A 
HETATM    2  C   UNL     1       7.234  28.618  57.496  1.00  0.00     0.102 A 
HETATM    3  C   UNL     1       8.399  27.847  57.475  1.00  0.00     0.040 A 
HETATM    4  C   UNL     1       8.344  26.492  57.129  1.00  0.00     0.014 A 
HETATM    5  C   UNL     1       7.121  25.884  56.806  1.00  0.00    -0.007 A 
HETATM    6  C   UNL     1       5.955  26.665  56.835  1.00  0.00     0.051 A 
ENDROOT
BRANCH   5   7
HETATM    7  C   UNL     1       7.068  24.433  56.378  1.00  0.00     0.264 C 
HETATM    8  O   UNL     1       7.507  24.324  55.016  1.00  0.00    -0.321 OA
HETATM    9  C   UNL     1       7.714  23.032  54.614  1.00  0.00     0.087 A 
HETATM   10  C   UNL     1       8.002  22.000  55.507  1.00  0.00     0.065 A 
HETATM   11  C   UNL     1       7.677  22.775  53.245  1.00  0.00     0.038 A 
HETATM   12  C   UNL     1       8.124  22.327  56.937  1.00  0.00     0.256 C 
HETATM   13  C   UNL     1       8.228  20.702  55.043  1.00  0.00     0.020 A 
HETATM   14  O   UNL     1       8.444  21.501  57.779  1.00  0.00    -0.267 OA
HETATM   15  N   UNL     1       7.875  23.632  57.253  1.00  0.00    -0.326 N 
HETATM   16  H   UNL     1       7.866  23.832  58.244  1.00  0.00     0.165 HD
HETATM   17  C   UNL     1       8.171  20.442  53.674  1.00  0.00     0.001 A 
HETATM   18  C   UNL     1       7.900  21.477  52.776  1.00  0.00     0.003 A 
ENDBRANCH   5   7
BRANCH   1  19
HETATM   19  O   UNL     1       4.876  28.790  57.197  1.00  0.00    -0.349 OA
BRANCH  19  20
HETATM   20  C   UNL     1       4.121  28.691  55.986  1.00  0.00     0.171 C 
HETATM   21  C   UNL     1       4.627  29.731  55.002  1.00  0.00     0.034 C 
ENDBRANCH  19  20
ENDBRANCH   1  19
BRANCH   2  22
HETATM   22  O   UNL     1       7.205  29.945  57.837  1.00  0.00    -0.344 OA
BRANCH  22  23
HETATM   23  C   UNL     1       8.457  30.505  58.235  1.00  0.00     0.214 C 
BRANCH  23  24
HETATM   24  C   UNL     1       8.321  31.086  59.624  1.00  0.00    -0.034 A 
HETATM   25  C   UNL     1       9.281  30.818  60.610  1.00  0.00     0.009 A 
HETATM   26  C   UNL     1       9.168  31.386  61.881  1.00  0.00     0.001 A 
HETATM   27  C   UNL     1       8.101  32.233  62.176  1.00  0.00     0.000 A 
HETATM   28  C   UNL     1       7.145  32.512  61.202  1.00  0.00     0.001 A 
HETATM   29  C   UNL     1       7.255  31.944  59.932  1.00  0.00     0.009 A 
ENDBRANCH  23  24
ENDBRANCH  22  23
ENDBRANCH   2  22
TORSDOF 6
ENDMDL
MODEL 4
REMARK VINA RESULT:      -9.5      1.540      2.134
REMARK  6 active torsions:
REMARK  status: ('A' for Active; 'I' for Inactive)
REMARK    1  A    between atoms: C_2  and  O_3 
REMARK    2  A    between atoms: O_3  and  C_4 
REMARK    3  A    between atoms: C_5  and  O_6 
REMARK    4  A    between atoms: O_6  and  C_7 
REMARK    5  A    between atoms: C_7  and  C_8 
REMARK    6  A    between atoms: C_16  and  C_17 
ROOT
HETATM    1  C   UNL     1       6.321  26.703  54.721  1.00  0.00     0.102 A 
HETATM    2  C   UNL     1       6.800  25.491  55.233  1.00  0.00     0.102 A 
HETATM    3  C   UNL     1       7.773  25.508  56.236  1.00  0.00     0.040 A 
HETATM    4  C   UNL     1       8.234  26.725  56.753  1.00  0.00     0.014 A 
HETATM    5  C   UNL     1       7.734  27.943  56.270  1.00  0.00    -0.007 A 
HETATM    6  C   UNL     1       6.760  27.916  55.259  1.00  0.00     0.051 A 
ENDROOT
BRANCH   5   7
HETATM    7  C   UNL     1       8.190  29.258  56.868  1.00  0.00     0.264 C 
HETATM    8  O   UNL     1       7.616  29.410  58.174  1.00  0.00    -0.321 OA
HETATM    9  C   UNL     1       8.151  30.450  58.884  1.00  0.00     0.087 A 
HETATM   10  C   UNL     1       9.427  30.956  58.638  1.00  0.00     0.065 A 
HETATM   11  C   UNL     1       7.384  30.976  59.922  1.00  0.00     0.038 A 
HETATM   12  C   UNL     1      10.244  30.315  57.595  1.00  0.00     0.256 C 
HETATM   13  C   UNL     1       9.936  32.005  59.407  1.00  0.00     0.020 A 
HETATM   14  O   UNL     1      11.397  30.645  57.361  1.00  0.00    -0.267 OA
HETATM   15  N   UNL     1       9.623  29.304  56.917  1.00  0.00    -0.326 N 
HETATM   16  H   UNL     1      10.151  28.931  56.139  1.00  0.00     0.165 HD
HETATM   17  C   UNL     1       9.160  32.544  60.434  1.00  0.00     0.001 A 
HETATM   18  C   UNL     1       7.888  32.027  60.694  1.00  0.00     0.003 A 
ENDBRANCH   5   7
BRANCH   1  19
HETATM   19  O   UNL     1       5.339  26.668  53.765  1.00  0.00    -0.349 OA
BRANCH  19  20
HETATM   20  C   UNL     1       5.754  27.176  52.493  1.00  0.00     0.171 C 
HETATM   21  C   UNL     1       5.388  26.170  51.416  1.00  0.00     0.034 C 
ENDBRANCH  19  20
ENDBRANCH   1  19
BRANCH   2  22
HETATM   22  O   UNL     1       6.310  24.342  54.668  1.00  0.00    -0.344 OA
BRANCH  22  23
HETATM   23  C   UNL     1       7.091  23.799  53.603  1.00  0.00     0.214 C 
BRANCH  23  24
HETATM   24  C   UNL     1       7.598  22.434  54.006  1.00  0.00    -0.034 A 
HETATM   25  C   UNL     1       8.155  21.566  53.056  1.00  0.00     0.009 A 
HETATM   26  C   UNL     1       8.654  20.320  53.442  1.00  0.00     0.001 A 
HETATM   27  C   UNL     1       8.609  19.933  54.780  1.00  0.00     0.000 A 
HETATM   28  C   UNL     1       8.065  20.790  55.734  1.00  0.00     0.001 A 
HETATM   29  C   UNL     1       7.565  22.034  55.350  1.00  0.00     0.009 A 
ENDBRANCH  23  24
ENDBRANCH  22  23
ENDBRANCH   2  22
TORSDOF 6
ENDMDL
MODEL 5
REMARK VINA RESULT:      -9.4      1.998      9.148
REMARK  6 active torsions:
REMARK  status: ('A' for Active; 'I' for Inactive)
REMARK    1  A    between atoms: C_2  and  O_3 
REMARK    2  A    between atoms: O_3  and  C_4 
REMARK    3  A    between atoms: C_5  and  O_6 
REMARK    4  A    between atoms: O_6  and  C_7 
REMARK    5  A    between atoms: C_7  and  C_8 
REMARK    6  A    between atoms: C_16  and  C_17 
ROOT
HETATM    1  C   UNL     1       6.713  30.352  57.848  1.00  0.00     0.102 A 
HETATM    2  C   UNL     1       8.026  30.706  58.179  1.00  0.00     0.102 A 
HETATM    3  C   UNL     1       9.060  29.794  57.951  1.00  0.00     0.040 A 
HETATM    4  C   UNL     1       8.790  28.556  57.356  1.00  0.00     0.014 A 
HETATM    5  C   UNL     1       7.482  28.207  56.989  1.00  0.00    -0.007 A 
HETATM    6  C   UNL     1       6.450  29.127  57.228  1.00  0.00     0.051 A 
ENDROOT
BRANCH   5   7
HETATM    7  C   UNL     1       7.198  26.891  56.295  1.00  0.00     0.264 C 
HETATM    8  O   UNL     1       7.649  26.965  54.934  1.00  0.00    -0.321 OA
HETATM    9  C   UNL     1       7.648  25.755  54.295  1.00  0.00     0.087 A 
HETATM   10  C   UNL     1       7.735  24.541  54.976  1.00  0.00     0.065 A 
HETATM   11  C   UNL     1       7.603  25.768  52.902  1.00  0.00     0.038 A 
HETATM   12  C   UNL     1       7.873  24.570  56.441  1.00  0.00     0.256 C 
HETATM   13  C   UNL     1       7.753  23.333  54.275  1.00  0.00     0.020 A 
HETATM   14  O   UNL     1       8.028  23.560  57.110  1.00  0.00    -0.267 OA
HETATM   15  N   UNL     1       7.837  25.817  56.999  1.00  0.00    -0.326 N 
HETATM   16  H   UNL     1       7.836  25.827  58.010  1.00  0.00     0.165 HD
HETATM   17  C   UNL     1       7.689  23.347  52.881  1.00  0.00     0.001 A 
HETATM   18  C   UNL     1       7.618  24.563  52.196  1.00  0.00     0.003 A 
ENDBRANCH   5   7
BRANCH   1  19
HETATM   19  O   UNL     1       5.716  31.273  58.044  1.00  0.00    -0.349 OA
BRANCH  19  20
HETATM   20  C   UNL     1       4.399  30.716  58.003  1.00  0.00     0.171 C 
HETATM   21  C   UNL     1       3.541  31.397  59.055  1.00  0.00     0.034 C 
ENDBRANCH  19  20
ENDBRANCH   1  19
BRANCH   2  22
HETATM   22  O   UNL     1       8.208  31.931  58.769  1.00  0.00    -0.344 OA
BRANCH  22  23
HETATM   23  C   UNL     1       9.034  31.936  59.934  1.00  0.00     0.214 C 
BRANCH  23  24
HETATM   24  C   UNL     1       8.199  32.326  61.131  1.00  0.00    -0.034 A 
HETATM   25  C   UNL     1       6.887  32.794  60.969  1.00  0.00     0.009 A 
HETATM   26  C   UNL     1       6.108  33.119  62.083  1.00  0.00     0.001 A 
HETATM   27  C   UNL     1       6.630  32.972  63.367  1.00  0.00     0.000 A 
HETATM   28  C   UNL     1       7.929  32.502  63.541  1.00  0.00     0.001 A 
HETATM   29  C   UNL     1       8.709  32.177  62.430  1.00  0.00     0.009 A 
ENDBRANCH  23  24
ENDBRANCH  22  23
ENDBRANCH   2  22
TORSDOF 6
ENDMDL
MODEL 6
REMARK VINA RESULT:      -9.2      1.966      8.789
REMARK  6 active torsions:
REMARK  status: ('A' for Active; 'I' for Inactive)
REMARK    1  A    between atoms: C_2  and  O_3 
REMARK    2  A    between atoms: O_3  and  C_4 
REMARK    3  A    between atoms: C_5  and  O_6 
REMARK    4  A    between atoms: O_6  and  C_7 
REMARK    5  A    between atoms: C_7  and  C_8 
REMARK    6  A    between atoms: C_16  and  C_17 
ROOT
HETATM    1  C   UNL     1       5.648  28.163  56.494  1.00  0.00     0.102 A 
HETATM    2  C   UNL     1       6.459  28.771  57.460  1.00  0.00     0.102 A 
HETATM    3  C   UNL     1       7.709  28.219  57.751  1.00  0.00     0.040 A 
HETATM    4  C   UNL     1       8.165  27.095  57.052  1.00  0.00     0.014 A 
HETATM    5  C   UNL     1       7.374  26.501  56.057  1.00  0.00    -0.007 A 
HETATM    6  C   UNL     1       6.117  27.059  55.776  1.00  0.00     0.051 A 
ENDROOT
BRANCH   5   7
HETATM    7  C   UNL     1       7.890  25.320  55.262  1.00  0.00     0.264 C 
HETATM    8  O   UNL     1       7.401  24.104  55.846  1.00  0.00    -0.321 OA
HETATM    9  C   UNL     1       7.620  23.001  55.066  1.00  0.00     0.087 A 
HETATM   10  C   UNL     1       7.784  23.073  53.683  1.00  0.00     0.065 A 
HETATM   11  C   UNL     1       7.627  21.761  55.702  1.00  0.00     0.038 A 
HETATM   12  C   UNL     1       7.679  24.391  53.035  1.00  0.00     0.256 C 
HETATM   13  C   UNL     1       7.983  21.914  52.930  1.00  0.00     0.020 A 
HETATM   14  O   UNL     1       7.738  24.538  51.824  1.00  0.00    -0.267 OA
HETATM   15  N   UNL     1       7.488  25.439  53.890  1.00  0.00    -0.326 N 
HETATM   16  H   UNL     1       7.511  26.351  53.451  1.00  0.00     0.165 HD
HETATM   17  C   UNL     1       8.009  20.675  53.570  1.00  0.00     0.001 A 
HETATM   18  C   UNL     1       7.827  20.598  54.953  1.00  0.00     0.003 A 
ENDBRANCH   5   7
BRANCH   1  19
HETATM   19  O   UNL     1       4.441  28.740  56.194  1.00  0.00    -0.349 OA
BRANCH  19  20
HETATM   20  C   UNL     1       4.350  29.221  54.849  1.00  0.00     0.171 C 
HETATM   21  C   UNL     1       4.287  30.739  54.871  1.00  0.00     0.034 C 
ENDBRANCH  19  20
ENDBRANCH   1  19
BRANCH   2  22
HETATM   22  O   UNL     1       5.938  29.860  58.110  1.00  0.00    -0.344 OA
BRANCH  22  23
HETATM   23  C   UNL     1       6.569  31.108  57.821  1.00  0.00     0.214 C 
BRANCH  23  24
HETATM   24  C   UNL     1       7.334  31.570  59.040  1.00  0.00    -0.034 A 
HETATM   25  C   UNL     1       6.659  32.008  60.188  1.00  0.00     0.009 A 
HETATM   26  C   UNL     1       7.373  32.400  61.323  1.00  0.00     0.001 A 
HETATM   27  C   UNL     1       8.766  32.350  61.324  1.00  0.00     0.000 A 
HETATM   28  C   UNL     1       9.447  31.910  60.192  1.00  0.00     0.001 A 
HETATM   29  C   UNL     1       8.736  31.519  59.057  1.00  0.00     0.009 A 
ENDBRANCH  23  24
ENDBRANCH  22  23
ENDBRANCH   2  22
TORSDOF 6
ENDMDL
MODEL 7
REMARK VINA RESULT:      -9.1      2.047      3.161
REMARK  6 active torsions:
REMARK  status: ('A' for Active; 'I' for Inactive)
REMARK    1  A    between atoms: C_2  and  O_3 
REMARK    2  A    between atoms: O_3  and  C_4 
REMARK    3  A    between atoms: C_5  and  O_6 
REMARK    4  A    between atoms: O_6  and  C_7 
REMARK    5  A    between atoms: C_7  and  C_8 
REMARK    6  A    between atoms: C_16  and  C_17 
ROOT
HETATM    1  C   UNL     1       6.241  29.479  56.175  1.00  0.00     0.102 A 
HETATM    2  C   UNL     1       7.049  28.389  55.830  1.00  0.00     0.102 A 
HETATM    3  C   UNL     1       8.219  28.148  56.555  1.00  0.00     0.040 A 
HETATM    4  C   UNL     1       8.557  28.962  57.643  1.00  0.00     0.014 A 
HETATM    5  C   UNL     1       7.734  30.035  58.017  1.00  0.00    -0.007 A 
HETATM    6  C   UNL     1       6.564  30.272  57.279  1.00  0.00     0.051 A 
ENDROOT
BRANCH   5   7
HETATM    7  C   UNL     1       8.069  30.881  59.227  1.00  0.00     0.264 C 
HETATM    8  O   UNL     1       6.875  31.515  59.708  1.00  0.00    -0.321 OA
HETATM    9  C   UNL     1       7.031  32.112  60.930  1.00  0.00     0.087 A 
HETATM   10  C   UNL     1       8.008  31.718  61.844  1.00  0.00     0.065 A 
HETATM   11  C   UNL     1       6.133  33.122  61.267  1.00  0.00     0.038 A 
HETATM   12  C   UNL     1       8.880  30.586  61.490  1.00  0.00     0.256 C 
HETATM   13  C   UNL     1       8.112  32.345  63.088  1.00  0.00     0.020 A 
HETATM   14  O   UNL     1       9.713  30.128  62.258  1.00  0.00    -0.267 OA
HETATM   15  N   UNL     1       8.674  30.068  60.243  1.00  0.00    -0.326 N 
HETATM   16  H   UNL     1       9.337  29.355  59.967  1.00  0.00     0.165 HD
HETATM   17  C   UNL     1       7.224  33.369  63.416  1.00  0.00     0.001 A 
HETATM   18  C   UNL     1       6.233  33.754  62.509  1.00  0.00     0.003 A 
ENDBRANCH   5   7
BRANCH   1  19
HETATM   19  O   UNL     1       5.077  29.678  55.477  1.00  0.00    -0.349 OA
BRANCH  19  20
HETATM   20  C   UNL     1       3.896  29.526  56.270  1.00  0.00     0.171 C 
HETATM   21  C   UNL     1       3.096  30.815  56.217  1.00  0.00     0.034 C 
ENDBRANCH  19  20
ENDBRANCH   1  19
BRANCH   2  22
HETATM   22  O   UNL     1       6.659  27.646  54.746  1.00  0.00    -0.344 OA
BRANCH  22  23
HETATM   23  C   UNL     1       5.991  26.421  55.049  1.00  0.00     0.214 C 
BRANCH  23  24
HETATM   24  C   UNL     1       6.819  25.265  54.537  1.00  0.00    -0.034 A 
HETATM   25  C   UNL     1       7.676  24.561  55.395  1.00  0.00     0.009 A 
HETATM   26  C   UNL     1       8.412  23.472  54.924  1.00  0.00     0.001 A 
HETATM   27  C   UNL     1       8.293  23.071  53.594  1.00  0.00     0.000 A 
HETATM   28  C   UNL     1       7.440  23.757  52.734  1.00  0.00     0.001 A 
HETATM   29  C   UNL     1       6.705  24.847  53.203  1.00  0.00     0.009 A 
ENDBRANCH  23  24
ENDBRANCH  22  23
ENDBRANCH   2  22
TORSDOF 6
ENDMDL
MODEL 8
REMARK VINA RESULT:      -9.0      4.011      7.666
REMARK  6 active torsions:
REMARK  status: ('A' for Active; 'I' for Inactive)
REMARK    1  A    between atoms: C_2  and  O_3 
REMARK    2  A    between atoms: O_3  and  C_4 
REMARK    3  A    between atoms: C_5  and  O_6 
REMARK    4  A    between atoms: O_6  and  C_7 
REMARK    5  A    between atoms: C_7  and  C_8 
REMARK    6  A    between atoms: C_16  and  C_17 
ROOT
HETATM    1  C   UNL     1       6.352  26.564  54.086  1.00  0.00     0.102 A 
HETATM    2  C   UNL     1       6.373  25.164  54.077  1.00  0.00     0.102 A 
HETATM    3  C   UNL     1       5.824  24.478  52.992  1.00  0.00     0.040 A 
HETATM    4  C   UNL     1       5.296  25.183  51.903  1.00  0.00     0.014 A 
HETATM    5  C   UNL     1       5.303  26.586  51.888  1.00  0.00    -0.007 A 
HETATM    6  C   UNL     1       5.852  27.266  52.986  1.00  0.00     0.051 A 
ENDROOT
BRANCH   5   7
HETATM    7  C   UNL     1       4.785  27.349  50.687  1.00  0.00     0.264 C 
HETATM    8  O   UNL     1       5.381  28.654  50.660  1.00  0.00    -0.321 OA
HETATM    9  C   UNL     1       5.155  29.330  49.492  1.00  0.00     0.087 A 
HETATM   10  C   UNL     1       4.874  28.685  48.287  1.00  0.00     0.065 A 
HETATM   11  C   UNL     1       5.262  30.719  49.527  1.00  0.00     0.038 A 
HETATM   12  C   UNL     1       4.859  27.213  48.270  1.00  0.00     0.256 C 
HETATM   13  C   UNL     1       4.673  29.421  47.118  1.00  0.00     0.020 A 
HETATM   14  O   UNL     1       4.694  26.566  47.247  1.00  0.00    -0.267 OA
HETATM   15  N   UNL     1       5.067  26.620  49.483  1.00  0.00    -0.326 N 
HETATM   16  H   UNL     1       4.961  25.614  49.485  1.00  0.00     0.165 HD
HETATM   17  C   UNL     1       4.762  30.813  47.158  1.00  0.00     0.001 A 
HETATM   18  C   UNL     1       5.060  31.460  48.359  1.00  0.00     0.003 A 
ENDBRANCH   5   7
BRANCH   1  19
HETATM   19  O   UNL     1       6.929  27.222  55.141  1.00  0.00    -0.349 OA
BRANCH  19  20
HETATM   20  C   UNL     1       6.097  28.234  55.715  1.00  0.00     0.171 C 
HETATM   21  C   UNL     1       5.089  27.578  56.643  1.00  0.00     0.034 C 
ENDBRANCH  19  20
ENDBRANCH   1  19
BRANCH   2  22
HETATM   22  O   UNL     1       6.895  24.545  55.184  1.00  0.00    -0.344 OA
BRANCH  22  23
HETATM   23  C   UNL     1       8.279  24.203  55.102  1.00  0.00     0.214 C 
BRANCH  23  24
HETATM   24  C   UNL     1       8.410  22.711  54.901  1.00  0.00    -0.034 A 
HETATM   25  C   UNL     1       8.281  21.828  55.982  1.00  0.00     0.009 A 
HETATM   26  C   UNL     1       8.368  20.448  55.784  1.00  0.00     0.001 A 
HETATM   27  C   UNL     1       8.576  19.938  54.503  1.00  0.00     0.000 A 
HETATM   28  C   UNL     1       8.699  20.805  53.420  1.00  0.00     0.001 A 
HETATM   29  C   UNL     1       8.614  22.184  53.617  1.00  0.00     0.009 A 
ENDBRANCH  23  24
ENDBRANCH  22  23
ENDBRANCH   2  22
TORSDOF 6
ENDMDL
MODEL 9
REMARK VINA RESULT:      -9.0      4.832      8.470
REMARK  6 active torsions:
REMARK  status: ('A' for Active; 'I' for Inactive)
REMARK    1  A    between atoms: C_2  and  O_3 
REMARK    2  A    between atoms: O_3  and  C_4 
REMARK    3  A    between atoms: C_5  and  O_6 
REMARK    4  A    between atoms: O_6  and  C_7 
REMARK    5  A    between atoms: C_7  and  C_8 
REMARK    6  A    between atoms: C_16  and  C_17 
ROOT
HETATM    1  C   UNL     1       4.540  27.212  52.888  1.00  0.00     0.102 A 
HETATM    2  C   UNL     1       5.006  27.279  51.569  1.00  0.00     0.102 A 
HETATM    3  C   UNL     1       5.952  26.349  51.129  1.00  0.00     0.040 A 
HETATM    4  C   UNL     1       6.396  25.334  51.986  1.00  0.00     0.014 A 
HETATM    5  C   UNL     1       5.908  25.238  53.297  1.00  0.00    -0.007 A 
HETATM    6  C   UNL     1       4.962  26.180  53.731  1.00  0.00     0.051 A 
ENDROOT
BRANCH   5   7
HETATM    7  C   UNL     1       6.345  24.108  54.205  1.00  0.00     0.264 C 
HETATM    8  O   UNL     1       7.090  23.147  53.442  1.00  0.00    -0.321 OA
HETATM    9  C   UNL     1       7.722  22.212  54.216  1.00  0.00     0.087 A 
HETATM   10  C   UNL     1       8.070  22.443  55.546  1.00  0.00     0.065 A 
HETATM   11  C   UNL     1       8.061  21.005  53.609  1.00  0.00     0.038 A 
HETATM   12  C   UNL     1       7.777  23.764  56.127  1.00  0.00     0.256 C 
HETATM   13  C   UNL     1       8.735  21.463  56.287  1.00  0.00     0.020 A 
HETATM   14  O   UNL     1       8.112  24.077  57.259  1.00  0.00    -0.267 OA
HETATM   15  N   UNL     1       7.121  24.626  55.294  1.00  0.00    -0.326 N 
HETATM   16  H   UNL     1       6.838  25.495  55.726  1.00  0.00     0.165 HD
HETATM   17  C   UNL     1       9.058  20.247  55.684  1.00  0.00     0.001 A 
HETATM   18  C   UNL     1       8.725  20.020  54.346  1.00  0.00     0.003 A 
ENDBRANCH   5   7
BRANCH   1  19
HETATM   19  O   UNL     1       3.584  28.108  53.291  1.00  0.00    -0.349 OA
BRANCH  19  20
HETATM   20  C   UNL     1       4.053  29.059  54.252  1.00  0.00     0.171 C 
HETATM   21  C   UNL     1       3.549  30.439  53.868  1.00  0.00     0.034 C 
ENDBRANCH  19  20
ENDBRANCH   1  19
BRANCH   2  22
HETATM   22  O   UNL     1       4.534  28.308  50.796  1.00  0.00    -0.344 OA
BRANCH  22  23
HETATM   23  C   UNL     1       4.862  28.235  49.408  1.00  0.00     0.214 C 
BRANCH  23  24
HETATM   24  C   UNL     1       3.684  27.670  48.650  1.00  0.00    -0.034 A 
HETATM   25  C   UNL     1       3.857  26.628  47.728  1.00  0.00     0.009 A 
HETATM   26  C   UNL     1       2.759  26.086  47.056  1.00  0.00     0.001 A 
HETATM   27  C   UNL     1       1.477  26.574  47.305  1.00  0.00     0.000 A 
HETATM   28  C   UNL     1       1.291  27.604  48.224  1.00  0.00     0.001 A 
HETATM   29  C   UNL     1       2.387  28.147  48.895  1.00  0.00     0.009 A 
ENDBRANCH  23  24
ENDBRANCH  22  23
ENDBRANCH   2  22
TORSDOF 6
ENDMDL
MODEL 10
REMARK VINA RESULT:      -8.9      1.920      3.741
REMARK  6 active torsions:
REMARK  status: ('A' for Active; 'I' for Inactive)
REMARK    1  A    between atoms: C_2  and  O_3 
REMARK    2  A    between atoms: O_3  and  C_4 
REMARK    3  A    between atoms: C_5  and  O_6 
REMARK    4  A    between atoms: O_6  and  C_7 
REMARK    5  A    between atoms: C_7  and  C_8 
REMARK    6  A    between atoms: C_16  and  C_17 
ROOT
HETATM    1  C   UNL     1       6.806  27.902  57.031  1.00  0.00     0.102 A 
HETATM    2  C   UNL     1       6.202  28.523  55.931  1.00  0.00     0.102 A 
HETATM    3  C   UNL     1       6.009  29.907  55.947  1.00  0.00     0.040 A 
HETATM    4  C   UNL     1       6.454  30.670  57.033  1.00  0.00     0.014 A 
HETATM    5  C   UNL     1       7.091  30.061  58.124  1.00  0.00    -0.007 A 
HETATM    6  C   UNL     1       7.276  28.669  58.101  1.00  0.00     0.051 A 
ENDROOT
BRANCH   5   7
HETATM    7  C   UNL     1       7.622  30.891  59.273  1.00  0.00     0.264 C 
HETATM    8  O   UNL     1       6.531  31.563  59.918  1.00  0.00    -0.321 OA
HETATM    9  C   UNL     1       6.879  32.151  61.104  1.00  0.00     0.087 A 
HETATM   10  C   UNL     1       7.962  31.721  61.871  1.00  0.00     0.065 A 
HETATM   11  C   UNL     1       6.072  33.190  61.563  1.00  0.00     0.038 A 
HETATM   12  C   UNL     1       8.736  30.562  61.398  1.00  0.00     0.256 C 
HETATM   13  C   UNL     1       8.262  32.340  63.086  1.00  0.00     0.020 A 
HETATM   14  O   UNL     1       9.654  30.074  62.040  1.00  0.00    -0.267 OA
HETATM   15  N   UNL     1       8.338  30.055  60.193  1.00  0.00    -0.326 N 
HETATM   16  H   UNL     1       8.930  29.321  59.827  1.00  0.00     0.165 HD
HETATM   17  C   UNL     1       7.465  33.393  63.536  1.00  0.00     0.001 A 
HETATM   18  C   UNL     1       6.369  33.814  62.778  1.00  0.00     0.003 A 
ENDBRANCH   5   7
BRANCH   1  19
HETATM   19  O   UNL     1       7.022  26.549  56.983  1.00  0.00    -0.349 OA
BRANCH  19  20
HETATM   20  C   UNL     1       8.397  26.179  57.125  1.00  0.00     0.171 C 
HETATM   21  C   UNL     1       8.492  24.668  57.245  1.00  0.00     0.034 C 
ENDBRANCH  19  20
ENDBRANCH   1  19
BRANCH   2  22
HETATM   22  O   UNL     1       5.783  27.708  54.912  1.00  0.00    -0.344 OA
BRANCH  22  23
HETATM   23  C   UNL     1       6.658  27.632  53.786  1.00  0.00     0.214 C 
BRANCH  23  24
HETATM   24  C   UNL     1       6.927  26.180  53.464  1.00  0.00    -0.034 A 
HETATM   25  C   UNL     1       7.843  25.825  52.463  1.00  0.00     0.009 A 
HETATM   26  C   UNL     1       8.112  24.481  52.195  1.00  0.00     0.001 A 
HETATM   27  C   UNL     1       7.476  23.481  52.928  1.00  0.00     0.000 A 
HETATM   28  C   UNL     1       6.570  23.821  53.929  1.00  0.00     0.001 A 
HETATM   29  C   UNL     1       6.298  25.163  54.197  1.00  0.00     0.009 A 
ENDBRANCH  23  24
ENDBRANCH  22  23
ENDBRANCH   2  22
TORSDOF 6
ENDMDL
