MODEL 1
REMARK VINA RESULT:      -8.4      0.000      0.000
REMARK  9 active torsions:
REMARK  status: ('A' for Active; 'I' for Inactive)
REMARK    1  A    between atoms: C_2  and  C_3 
REMARK    2  A    between atoms: C_3  and  O_4 
REMARK    3  A    between atoms: C_3  and  C_5 
REMARK    4  A    between atoms: C_5  and  N_6 
REMARK    5  A    between atoms: N_6  and  C_8 
REMARK    6  A    between atoms: N_6  and  C_21 
REMARK    7  A    between atoms: C_8  and  C_9 
REMARK    8  A    between atoms: C_10  and  C_11 
REMARK    9  A    between atoms: C_21  and  C_22 
ROOT
HETATM    1  N   UNL     1       7.780  23.507  56.035  1.00  0.00    -0.061 N 
HETATM    2  H   UNL     1       6.821  23.283  55.755  1.00  0.00     0.280 HD
ENDROOT
BRANCH   1   3
HETATM    3  C   UNL     1       8.373  22.203  56.548  1.00  0.00     0.267 C 
BRANCH   3   4
HETATM    4  C   UNL     1       8.870  21.236  55.449  1.00  0.00     0.143 C 
BRANCH   4   5
HETATM    5  C   UNL     1       7.778  20.595  54.587  1.00  0.00     0.029 C 
HETATM    6  C   UNL     1       8.088  20.610  53.099  1.00  0.00     0.007 C 
ENDBRANCH   4   5
BRANCH   4   7
HETATM    7  O   UNL     1       9.647  20.199  56.048  1.00  0.00    -0.394 OA
HETATM    8  H   UNL     1       9.279  20.021  56.937  1.00  0.00     0.210 HD
ENDBRANCH   4   7
ENDBRANCH   3   4
ENDBRANCH   1   3
BRANCH   1   9
HETATM    9  C   UNL     1       7.624  24.629  57.045  1.00  0.00     0.277 C 
BRANCH   9  10
HETATM   10  C   UNL     1       6.427  25.511  57.000  1.00  0.00     0.016 A 
HETATM   11  C   UNL     1       6.445  26.919  56.703  1.00  0.00     0.096 A 
HETATM   12  N   UNL     1       5.219  27.447  56.801  1.00  0.00    -0.174 NA
HETATM   13  N   UNL     1       4.415  26.416  57.060  1.00  0.00    -0.288 N 
HETATM   14  H   UNL     1       3.417  26.592  57.131  1.00  0.00     0.188 HD
HETATM   15  C   UNL     1       5.088  25.237  57.216  1.00  0.00     0.120 A 
BRANCH  11  16
HETATM   16  C   UNL     1       7.587  27.769  56.369  1.00  0.00    -0.005 A 
HETATM   17  C   UNL     1       7.867  28.117  55.040  1.00  0.00     0.014 A 
HETATM   18  C   UNL     1       8.970  28.922  54.741  1.00  0.00     0.001 A 
HETATM   19  C   UNL     1       9.790  29.394  55.764  1.00  0.00     0.000 A 
HETATM   20  C   UNL     1       9.507  29.071  57.089  1.00  0.00     0.001 A 
HETATM   21  C   UNL     1       8.408  28.264  57.392  1.00  0.00     0.014 A 
ENDBRANCH  11  16
ENDBRANCH   9  10
ENDBRANCH   1   9
BRANCH   1  22
HETATM   22  C   UNL     1       8.448  24.005  54.769  1.00  0.00     0.273 C 
BRANCH  22  23
HETATM   23  C   UNL     1       7.463  24.480  53.732  1.00  0.00    -0.033 A 
HETATM   24  C   UNL     1       7.895  25.222  52.621  1.00  0.00     0.009 A 
HETATM   25  C   UNL     1       6.973  25.691  51.684  1.00  0.00     0.001 A 
HETATM   26  C   UNL     1       5.616  25.421  51.843  1.00  0.00     0.000 A 
HETATM   27  C   UNL     1       5.177  24.676  52.934  1.00  0.00     0.001 A 
HETATM   28  C   UNL     1       6.094  24.205  53.875  1.00  0.00     0.009 A 
ENDBRANCH  22  23
ENDBRANCH   1  22
TORSDOF 9
ENDMDL
MODEL 2
REMARK VINA RESULT:      -8.1      2.488      6.320
REMARK  9 active torsions:
REMARK  status: ('A' for Active; 'I' for Inactive)
REMARK    1  A    between atoms: C_2  and  C_3 
REMARK    2  A    between atoms: C_3  and  O_4 
REMARK    3  A    between atoms: C_3  and  C_5 
REMARK    4  A    between atoms: C_5  and  N_6 
REMARK    5  A    between atoms: N_6  and  C_8 
REMARK    6  A    between atoms: N_6  and  C_21 
REMARK    7  A    between atoms: C_8  and  C_9 
REMARK    8  A    between atoms: C_10  and  C_11 
REMARK    9  A    between atoms: C_21  and  C_22 
ROOT
HETATM    1  N   UNL     1       6.814  27.404  55.112  1.00  0.00    -0.061 N 
HETATM    2  H   UNL     1       6.720  27.567  56.118  1.00  0.00     0.280 HD
ENDROOT
BRANCH   1   3
HETATM    3  C   UNL     1       5.472  27.793  54.508  1.00  0.00     0.267 C 
BRANCH   3   4
HETATM    4  C   UNL     1       4.940  26.827  53.423  1.00  0.00     0.143 C 
BRANCH   4   5
HETATM    5  C   UNL     1       5.579  26.971  52.039  1.00  0.00     0.029 C 
HETATM    6  C   UNL     1       6.269  25.707  51.552  1.00  0.00     0.007 C 
ENDBRANCH   4   5
BRANCH   4   7
HETATM    7  O   UNL     1       3.528  26.992  53.295  1.00  0.00    -0.394 OA
HETATM    8  H   UNL     1       3.248  26.563  52.462  1.00  0.00     0.210 HD
ENDBRANCH   4   7
ENDBRANCH   3   4
ENDBRANCH   1   3
BRANCH   1   9
HETATM    9  C   UNL     1       7.211  25.944  55.002  1.00  0.00     0.277 C 
BRANCH   9  10
HETATM   10  C   UNL     1       7.772  25.233  56.183  1.00  0.00     0.016 A 
HETATM   11  C   UNL     1       8.137  23.842  56.218  1.00  0.00     0.096 A 
HETATM   12  N   UNL     1       8.552  23.484  57.439  1.00  0.00    -0.174 NA
HETATM   13  N   UNL     1       8.550  24.610  58.152  1.00  0.00    -0.288 N 
HETATM   14  H   UNL     1       8.879  24.571  59.113  1.00  0.00     0.188 HD
HETATM   15  C   UNL     1       8.067  25.683  57.458  1.00  0.00     0.120 A 
BRANCH  11  16
HETATM   16  C   UNL     1       8.067  22.851  55.145  1.00  0.00    -0.005 A 
HETATM   17  C   UNL     1       8.145  23.232  53.800  1.00  0.00     0.014 A 
HETATM   18  C   UNL     1       8.065  22.270  52.789  1.00  0.00     0.001 A 
HETATM   19  C   UNL     1       7.921  20.923  53.115  1.00  0.00     0.000 A 
HETATM   20  C   UNL     1       7.865  20.532  54.451  1.00  0.00     0.001 A 
HETATM   21  C   UNL     1       7.940  21.491  55.463  1.00  0.00     0.014 A 
ENDBRANCH  11  16
ENDBRANCH   9  10
ENDBRANCH   1   9
BRANCH   1  22
HETATM   22  C   UNL     1       7.946  28.311  54.674  1.00  0.00     0.273 C 
BRANCH  22  23
HETATM   23  C   UNL     1       8.614  29.016  55.826  1.00  0.00    -0.033 A 
HETATM   24  C   UNL     1       9.941  29.462  55.722  1.00  0.00     0.009 A 
HETATM   25  C   UNL     1      10.566  30.080  56.806  1.00  0.00     0.001 A 
HETATM   26  C   UNL     1       9.872  30.264  58.000  1.00  0.00     0.000 A 
HETATM   27  C   UNL     1       8.552  29.837  58.112  1.00  0.00     0.001 A 
HETATM   28  C   UNL     1       7.923  29.217  57.032  1.00  0.00     0.009 A 
ENDBRANCH  22  23
ENDBRANCH   1  22
TORSDOF 9
ENDMDL
MODEL 3
REMARK VINA RESULT:      -8.0      2.593      6.699
REMARK  9 active torsions:
REMARK  status: ('A' for Active; 'I' for Inactive)
REMARK    1  A    between atoms: C_2  and  C_3 
REMARK    2  A    between atoms: C_3  and  O_4 
REMARK    3  A    between atoms: C_3  and  C_5 
REMARK    4  A    between atoms: C_5  and  N_6 
REMARK    5  A    between atoms: N_6  and  C_8 
REMARK    6  A    between atoms: N_6  and  C_21 
REMARK    7  A    between atoms: C_8  and  C_9 
REMARK    8  A    between atoms: C_10  and  C_11 
REMARK    9  A    between atoms: C_21  and  C_22 
ROOT
HETATM    1  N   UNL     1       6.768  27.401  55.228  1.00  0.00    -0.061 N 
HETATM    2  H   UNL     1       6.727  27.542  56.241  1.00  0.00     0.280 HD
ENDROOT
BRANCH   1   3
HETATM    3  C   UNL     1       5.381  27.751  54.709  1.00  0.00     0.267 C 
BRANCH   3   4
HETATM    4  C   UNL     1       4.331  28.051  55.805  1.00  0.00     0.143 C 
BRANCH   4   5
HETATM    5  C   UNL     1       4.444  29.425  56.472  1.00  0.00     0.029 C 
HETATM    6  C   UNL     1       4.878  30.529  55.523  1.00  0.00     0.007 C 
ENDBRANCH   4   5
BRANCH   4   7
HETATM    7  O   UNL     1       4.403  27.045  56.815  1.00  0.00    -0.394 OA
HETATM    8  H   UNL     1       5.127  26.430  56.579  1.00  0.00     0.210 HD
ENDBRANCH   4   7
ENDBRANCH   3   4
ENDBRANCH   1   3
BRANCH   1   9
HETATM    9  C   UNL     1       7.210  25.958  55.068  1.00  0.00     0.277 C 
BRANCH   9  10
HETATM   10  C   UNL     1       7.773  25.218  56.229  1.00  0.00     0.016 A 
HETATM   11  C   UNL     1       8.136  23.826  56.229  1.00  0.00     0.096 A 
HETATM   12  N   UNL     1       8.554  23.437  57.439  1.00  0.00    -0.174 NA
HETATM   13  N   UNL     1       8.556  24.545  58.180  1.00  0.00    -0.288 N 
HETATM   14  H   UNL     1       8.889  24.481  59.138  1.00  0.00     0.188 HD
HETATM   15  C   UNL     1       8.073  25.636  57.513  1.00  0.00     0.120 A 
BRANCH  11  16
HETATM   16  C   UNL     1       8.060  22.861  55.132  1.00  0.00    -0.005 A 
HETATM   17  C   UNL     1       8.151  23.274  53.796  1.00  0.00     0.014 A 
HETATM   18  C   UNL     1       8.065  22.337  52.762  1.00  0.00     0.001 A 
HETATM   19  C   UNL     1       7.904  20.984  53.055  1.00  0.00     0.000 A 
HETATM   20  C   UNL     1       7.835  20.562  54.380  1.00  0.00     0.001 A 
HETATM   21  C   UNL     1       7.916  21.495  55.416  1.00  0.00     0.014 A 
ENDBRANCH  11  16
ENDBRANCH   9  10
ENDBRANCH   1   9
BRANCH   1  22
HETATM   22  C   UNL     1       7.841  28.355  54.745  1.00  0.00     0.273 C 
BRANCH  22  23
HETATM   23  C   UNL     1       8.586  29.022  55.872  1.00  0.00    -0.033 A 
HETATM   24  C   UNL     1       9.909  29.459  55.697  1.00  0.00     0.009 A 
HETATM   25  C   UNL     1      10.607  30.041  56.757  1.00  0.00     0.001 A 
HETATM   26  C   UNL     1       9.991  30.197  57.997  1.00  0.00     0.000 A 
HETATM   27  C   UNL     1       8.675  29.779  58.179  1.00  0.00     0.001 A 
HETATM   28  C   UNL     1       7.974  29.195  57.123  1.00  0.00     0.009 A 
ENDBRANCH  22  23
ENDBRANCH   1  22
TORSDOF 9
ENDMDL
MODEL 4
REMARK VINA RESULT:      -7.9      2.190      3.967
REMARK  9 active torsions:
REMARK  status: ('A' for Active; 'I' for Inactive)
REMARK    1  A    between atoms: C_2  and  C_3 
REMARK    2  A    between atoms: C_3  and  O_4 
REMARK    3  A    between atoms: C_3  and  C_5 
REMARK    4  A    between atoms: C_5  and  N_6 
REMARK    5  A    between atoms: N_6  and  C_8 
REMARK    6  A    between atoms: N_6  and  C_21 
REMARK    7  A    between atoms: C_8  and  C_9 
REMARK    8  A    between atoms: C_10  and  C_11 
REMARK    9  A    between atoms: C_21  and  C_22 
ROOT
HETATM    1  N   UNL     1       7.661  25.298  55.156  1.00  0.00    -0.061 N 
HETATM    2  H   UNL     1       8.587  24.861  55.132  1.00  0.00     0.280 HD
ENDROOT
BRANCH   1   3
HETATM    3  C   UNL     1       7.608  26.213  53.942  1.00  0.00     0.267 C 
BRANCH   3   4
HETATM    4  C   UNL     1       6.283  26.162  53.145  1.00  0.00     0.143 C 
BRANCH   4   5
HETATM    5  C   UNL     1       6.400  25.676  51.697  1.00  0.00     0.029 C 
HETATM    6  C   UNL     1       5.171  25.972  50.854  1.00  0.00     0.007 C 
ENDBRANCH   4   5
BRANCH   4   7
HETATM    7  O   UNL     1       5.682  27.457  53.146  1.00  0.00    -0.394 OA
HETATM    8  H   UNL     1       5.098  27.518  53.928  1.00  0.00     0.210 HD
ENDBRANCH   4   7
ENDBRANCH   3   4
ENDBRANCH   1   3
BRANCH   1   9
HETATM    9  C   UNL     1       7.596  25.967  56.516  1.00  0.00     0.277 C 
BRANCH   9  10
HETATM   10  C   UNL     1       6.569  27.011  56.785  1.00  0.00     0.016 A 
HETATM   11  C   UNL     1       6.847  28.393  57.070  1.00  0.00     0.096 A 
HETATM   12  N   UNL     1       5.719  29.067  57.328  1.00  0.00    -0.174 NA
HETATM   13  N   UNL     1       4.736  28.189  57.130  1.00  0.00    -0.288 N 
HETATM   14  H   UNL     1       3.777  28.511  57.231  1.00  0.00     0.188 HD
HETATM   15  C   UNL     1       5.189  26.936  56.828  1.00  0.00     0.120 A 
BRANCH  11  16
HETATM   16  C   UNL     1       8.141  29.071  57.139  1.00  0.00    -0.005 A 
HETATM   17  C   UNL     1       8.580  29.675  58.324  1.00  0.00     0.014 A 
HETATM   18  C   UNL     1       9.815  30.328  58.366  1.00  0.00     0.001 A 
HETATM   19  C   UNL     1      10.624  30.370  57.231  1.00  0.00     0.000 A 
HETATM   20  C   UNL     1      10.205  29.753  56.055  1.00  0.00     0.001 A 
HETATM   21  C   UNL     1       8.969  29.104  56.008  1.00  0.00     0.014 A 
ENDBRANCH  11  16
ENDBRANCH   9  10
ENDBRANCH   1   9
BRANCH   1  22
HETATM   22  C   UNL     1       6.684  24.143  55.071  1.00  0.00     0.273 C 
BRANCH  22  23
HETATM   23  C   UNL     1       7.343  22.842  54.691  1.00  0.00    -0.033 A 
HETATM   24  C   UNL     1       7.625  22.547  53.348  1.00  0.00     0.009 A 
HETATM   25  C   UNL     1       8.201  21.324  52.999  1.00  0.00     0.001 A 
HETATM   26  C   UNL     1       8.505  20.388  53.984  1.00  0.00     0.000 A 
HETATM   27  C   UNL     1       8.241  20.674  55.321  1.00  0.00     0.001 A 
HETATM   28  C   UNL     1       7.664  21.894  55.676  1.00  0.00     0.009 A 
ENDBRANCH  22  23
ENDBRANCH   1  22
TORSDOF 9
ENDMDL
MODEL 5
REMARK VINA RESULT:      -7.7      2.318      6.165
REMARK  9 active torsions:
REMARK  status: ('A' for Active; 'I' for Inactive)
REMARK    1  A    between atoms: C_2  and  C_3 
REMARK    2  A    between atoms: C_3  and  O_4 
REMARK    3  A    between atoms: C_3  and  C_5 
REMARK    4  A    between atoms: C_5  and  N_6 
REMARK    5  A    between atoms: N_6  and  C_8 
REMARK    6  A    between atoms: N_6  and  C_21 
REMARK    7  A    between atoms: C_8  and  C_9 
REMARK    8  A    between atoms: C_10  and  C_11 
REMARK    9  A    between atoms: C_21  and  C_22 
ROOT
HETATM    1  N   UNL     1       7.551  27.392  55.135  1.00  0.00    -0.061 N 
HETATM    2  H   UNL     1       8.443  27.089  55.535  1.00  0.00     0.280 HD
ENDROOT
BRANCH   1   3
HETATM    3  C   UNL     1       6.477  26.815  56.045  1.00  0.00     0.267 C 
BRANCH   3   4
HETATM    4  C   UNL     1       6.998  26.222  57.374  1.00  0.00     0.143 C 
BRANCH   4   5
HETATM    5  C   UNL     1       8.507  25.972  57.441  1.00  0.00     0.029 C 
HETATM    6  C   UNL     1       8.873  24.538  57.785  1.00  0.00     0.007 C 
ENDBRANCH   4   5
BRANCH   4   7
HETATM    7  O   UNL     1       6.319  24.995  57.642  1.00  0.00    -0.394 OA
HETATM    8  H   UNL     1       6.974  24.269  57.591  1.00  0.00     0.210 HD
ENDBRANCH   4   7
ENDBRANCH   3   4
ENDBRANCH   1   3
BRANCH   1   9
HETATM    9  C   UNL     1       7.584  26.876  53.708  1.00  0.00     0.277 C 
BRANCH   9  10
HETATM   10  C   UNL     1       6.372  26.249  53.115  1.00  0.00     0.016 A 
HETATM   11  C   UNL     1       6.121  24.834  53.043  1.00  0.00     0.096 A 
HETATM   12  N   UNL     1       4.976  24.581  52.397  1.00  0.00    -0.174 NA
HETATM   13  N   UNL     1       4.450  25.778  52.138  1.00  0.00    -0.288 N 
HETATM   14  H   UNL     1       3.542  25.814  51.684  1.00  0.00     0.188 HD
HETATM   15  C   UNL     1       5.256  26.812  52.523  1.00  0.00     0.120 A 
BRANCH  11  16
HETATM   16  C   UNL     1       6.949  23.732  53.532  1.00  0.00    -0.005 A 
HETATM   17  C   UNL     1       6.922  23.349  54.880  1.00  0.00     0.014 A 
HETATM   18  C   UNL     1       7.729  22.300  55.330  1.00  0.00     0.001 A 
HETATM   19  C   UNL     1       8.554  21.619  54.436  1.00  0.00     0.000 A 
HETATM   20  C   UNL     1       8.571  21.979  53.091  1.00  0.00     0.001 A 
HETATM   21  C   UNL     1       7.770  23.029  52.638  1.00  0.00     0.014 A 
ENDBRANCH  11  16
ENDBRANCH   9  10
ENDBRANCH   1   9
BRANCH   1  22
HETATM   22  C   UNL     1       7.605  28.906  55.167  1.00  0.00     0.273 C 
BRANCH  22  23
HETATM   23  C   UNL     1       8.558  29.439  56.205  1.00  0.00    -0.033 A 
HETATM   24  C   UNL     1       9.934  29.520  55.941  1.00  0.00     0.009 A 
HETATM   25  C   UNL     1      10.817  29.978  56.921  1.00  0.00     0.001 A 
HETATM   26  C   UNL     1      10.334  30.365  58.169  1.00  0.00     0.000 A 
HETATM   27  C   UNL     1       8.970  30.302  58.439  1.00  0.00     0.001 A 
HETATM   28  C   UNL     1       8.084  29.842  57.463  1.00  0.00     0.009 A 
ENDBRANCH  22  23
ENDBRANCH   1  22
TORSDOF 9
ENDMDL
MODEL 6
REMARK VINA RESULT:      -7.6      3.079      7.040
REMARK  9 active torsions:
REMARK  status: ('A' for Active; 'I' for Inactive)
REMARK    1  A    between atoms: C_2  and  C_3 
REMARK    2  A    between atoms: C_3  and  O_4 
REMARK    3  A    between atoms: C_3  and  C_5 
REMARK    4  A    between atoms: C_5  and  N_6 
REMARK    5  A    between atoms: N_6  and  C_8 
REMARK    6  A    between atoms: N_6  and  C_21 
REMARK    7  A    between atoms: C_8  and  C_9 
REMARK    8  A    between atoms: C_10  and  C_11 
REMARK    9  A    between atoms: C_21  and  C_22 
ROOT
HETATM    1  N   UNL     1       6.629  27.878  56.267  1.00  0.00    -0.061 N 
HETATM    2  H   UNL     1       5.769  27.445  56.614  1.00  0.00     0.280 HD
ENDROOT
BRANCH   1   3
HETATM    3  C   UNL     1       6.289  29.345  56.047  1.00  0.00     0.267 C 
BRANCH   3   4
HETATM    4  C   UNL     1       4.880  29.766  56.525  1.00  0.00     0.143 C 
BRANCH   4   5
HETATM    5  C   UNL     1       4.841  30.634  57.787  1.00  0.00     0.029 C 
HETATM    6  C   UNL     1       5.600  31.943  57.649  1.00  0.00     0.007 C 
ENDBRANCH   4   5
BRANCH   4   7
HETATM    7  O   UNL     1       4.089  28.599  56.749  1.00  0.00    -0.394 OA
HETATM    8  H   UNL     1       4.510  28.080  57.463  1.00  0.00     0.210 HD
ENDBRANCH   4   7
ENDBRANCH   3   4
ENDBRANCH   1   3
BRANCH   1   9
HETATM    9  C   UNL     1       6.988  27.070  55.034  1.00  0.00     0.277 C 
BRANCH   9  10
HETATM   10  C   UNL     1       5.913  26.464  54.202  1.00  0.00     0.016 A 
HETATM   11  C   UNL     1       5.864  25.089  53.783  1.00  0.00     0.096 A 
HETATM   12  N   UNL     1       4.808  24.863  52.993  1.00  0.00    -0.174 NA
HETATM   13  N   UNL     1       4.138  26.016  52.970  1.00  0.00    -0.288 N 
HETATM   14  H   UNL     1       3.263  26.052  52.454  1.00  0.00     0.188 HD
HETATM   15  C   UNL     1       4.768  27.016  53.655  1.00  0.00     0.120 A 
BRANCH  11  16
HETATM   16  C   UNL     1       6.805  24.009  54.079  1.00  0.00    -0.005 A 
HETATM   17  C   UNL     1       7.503  23.354  53.056  1.00  0.00     0.014 A 
HETATM   18  C   UNL     1       8.389  22.317  53.360  1.00  0.00     0.001 A 
HETATM   19  C   UNL     1       8.594  21.937  54.685  1.00  0.00     0.000 A 
HETATM   20  C   UNL     1       7.921  22.596  55.710  1.00  0.00     0.001 A 
HETATM   21  C   UNL     1       7.031  23.630  55.411  1.00  0.00     0.014 A 
ENDBRANCH  11  16
ENDBRANCH   9  10
ENDBRANCH   1   9
BRANCH   1  22
HETATM   22  C   UNL     1       7.645  27.665  57.371  1.00  0.00     0.273 C 
BRANCH  22  23
HETATM   23  C   UNL     1       8.578  28.835  57.547  1.00  0.00    -0.033 A 
HETATM   24  C   UNL     1       9.655  29.032  56.669  1.00  0.00     0.009 A 
HETATM   25  C   UNL     1      10.537  30.096  56.860  1.00  0.00     0.001 A 
HETATM   26  C   UNL     1      10.350  30.976  57.924  1.00  0.00     0.000 A 
HETATM   27  C   UNL     1       9.278  30.799  58.794  1.00  0.00     0.001 A 
HETATM   28  C   UNL     1       8.394  29.735  58.609  1.00  0.00     0.009 A 
ENDBRANCH  22  23
ENDBRANCH   1  22
TORSDOF 9
ENDMDL
MODEL 7
REMARK VINA RESULT:      -7.6      4.030      6.315
REMARK  9 active torsions:
REMARK  status: ('A' for Active; 'I' for Inactive)
REMARK    1  A    between atoms: C_2  and  C_3 
REMARK    2  A    between atoms: C_3  and  O_4 
REMARK    3  A    between atoms: C_3  and  C_5 
REMARK    4  A    between atoms: C_5  and  N_6 
REMARK    5  A    between atoms: N_6  and  C_8 
REMARK    6  A    between atoms: N_6  and  C_21 
REMARK    7  A    between atoms: C_8  and  C_9 
REMARK    8  A    between atoms: C_10  and  C_11 
REMARK    9  A    between atoms: C_21  and  C_22 
ROOT
HETATM    1  N   UNL     1       5.408  26.598  50.301  1.00  0.00    -0.061 N 
HETATM    2  H   UNL     1       6.353  26.247  50.122  1.00  0.00     0.280 HD
ENDROOT
BRANCH   1   3
HETATM    3  C   UNL     1       4.677  26.502  48.969  1.00  0.00     0.267 C 
BRANCH   3   4
HETATM    4  C   UNL     1       4.980  27.647  47.975  1.00  0.00     0.143 C 
BRANCH   4   5
HETATM    5  C   UNL     1       3.758  28.283  47.306  1.00  0.00     0.029 C 
HETATM    6  C   UNL     1       2.433  27.820  47.890  1.00  0.00     0.007 C 
ENDBRANCH   4   5
BRANCH   4   7
HETATM    7  O   UNL     1       5.860  27.169  46.958  1.00  0.00    -0.394 OA
HETATM    8  H   UNL     1       5.337  27.038  46.141  1.00  0.00     0.210 HD
ENDBRANCH   4   7
ENDBRANCH   3   4
ENDBRANCH   1   3
BRANCH   1   9
HETATM    9  C   UNL     1       5.624  27.993  50.858  1.00  0.00     0.277 C 
BRANCH   9  10
HETATM   10  C   UNL     1       4.541  28.664  51.627  1.00  0.00     0.016 A 
HETATM   11  C   UNL     1       4.483  28.770  53.060  1.00  0.00     0.096 A 
HETATM   12  N   UNL     1       3.355  29.374  53.453  1.00  0.00    -0.174 NA
HETATM   13  N   UNL     1       2.742  29.734  52.326  1.00  0.00    -0.288 N 
HETATM   14  H   UNL     1       1.873  30.256  52.398  1.00  0.00     0.188 HD
HETATM   15  C   UNL     1       3.394  29.311  51.202  1.00  0.00     0.120 A 
BRANCH  11  16
HETATM   16  C   UNL     1       5.442  28.284  54.052  1.00  0.00    -0.005 A 
HETATM   17  C   UNL     1       6.820  28.308  53.800  1.00  0.00     0.014 A 
HETATM   18  C   UNL     1       7.719  27.830  54.758  1.00  0.00     0.001 A 
HETATM   19  C   UNL     1       7.250  27.340  55.975  1.00  0.00     0.000 A 
HETATM   20  C   UNL     1       5.883  27.333  56.243  1.00  0.00     0.001 A 
HETATM   21  C   UNL     1       4.981  27.806  55.287  1.00  0.00     0.014 A 
ENDBRANCH  11  16
ENDBRANCH   9  10
ENDBRANCH   1   9
BRANCH   1  22
HETATM   22  C   UNL     1       4.841  25.672  51.357  1.00  0.00     0.273 C 
BRANCH  22  23
HETATM   23  C   UNL     1       5.897  25.104  52.270  1.00  0.00    -0.033 A 
HETATM   24  C   UNL     1       5.559  24.622  53.544  1.00  0.00     0.009 A 
HETATM   25  C   UNL     1       6.548  24.133  54.400  1.00  0.00     0.001 A 
HETATM   26  C   UNL     1       7.879  24.115  53.991  1.00  0.00     0.000 A 
HETATM   27  C   UNL     1       8.225  24.579  52.724  1.00  0.00     0.001 A 
HETATM   28  C   UNL     1       7.241  25.071  51.866  1.00  0.00     0.009 A 
ENDBRANCH  22  23
ENDBRANCH   1  22
TORSDOF 9
ENDMDL
MODEL 8
REMARK VINA RESULT:      -7.5      2.421      5.632
REMARK  9 active torsions:
REMARK  status: ('A' for Active; 'I' for Inactive)
REMARK    1  A    between atoms: C_2  and  C_3 
REMARK    2  A    between atoms: C_3  and  O_4 
REMARK    3  A    between atoms: C_3  and  C_5 
REMARK    4  A    between atoms: C_5  and  N_6 
REMARK    5  A    between atoms: N_6  and  C_8 
REMARK    6  A    between atoms: N_6  and  C_21 
REMARK    7  A    between atoms: C_8  and  C_9 
REMARK    8  A    between atoms: C_10  and  C_11 
REMARK    9  A    between atoms: C_21  and  C_22 
ROOT
HETATM    1  N   UNL     1       6.080  27.599  56.509  1.00  0.00    -0.061 N 
HETATM    2  H   UNL     1       6.798  27.576  55.779  1.00  0.00     0.280 HD
ENDROOT
BRANCH   1   3
HETATM    3  C   UNL     1       6.106  26.220  57.152  1.00  0.00     0.267 C 
BRANCH   3   4
HETATM    4  C   UNL     1       7.475  25.503  57.101  1.00  0.00     0.143 C 
BRANCH   4   5
HETATM    5  C   UNL     1       7.466  24.100  56.486  1.00  0.00     0.029 C 
HETATM    6  C   UNL     1       8.846  23.594  56.103  1.00  0.00     0.007 C 
ENDBRANCH   4   5
BRANCH   4   7
HETATM    7  O   UNL     1       8.014  25.420  58.421  1.00  0.00    -0.394 OA
HETATM    8  H   UNL     1       7.358  24.967  58.988  1.00  0.00     0.210 HD
ENDBRANCH   4   7
ENDBRANCH   3   4
ENDBRANCH   1   3
BRANCH   1   9
HETATM    9  C   UNL     1       4.809  27.983  55.775  1.00  0.00     0.277 C 
BRANCH   9  10
HETATM   10  C   UNL     1       4.888  28.633  54.438  1.00  0.00     0.016 A 
HETATM   11  C   UNL     1       5.458  28.038  53.259  1.00  0.00     0.096 A 
HETATM   12  N   UNL     1       5.438  28.893  52.230  1.00  0.00    -0.174 NA
HETATM   13  N   UNL     1       4.798  29.970  52.685  1.00  0.00    -0.288 N 
HETATM   14  H   UNL     1       4.632  30.737  52.040  1.00  0.00     0.188 HD
HETATM   15  C   UNL     1       4.469  29.879  54.008  1.00  0.00     0.120 A 
BRANCH  11  16
HETATM   16  C   UNL     1       6.047  26.708  53.099  1.00  0.00    -0.005 A 
HETATM   17  C   UNL     1       7.437  26.529  53.079  1.00  0.00     0.014 A 
HETATM   18  C   UNL     1       7.979  25.251  52.914  1.00  0.00     0.001 A 
HETATM   19  C   UNL     1       7.141  24.146  52.782  1.00  0.00     0.000 A 
HETATM   20  C   UNL     1       5.758  24.312  52.823  1.00  0.00     0.001 A 
HETATM   21  C   UNL     1       5.212  25.587  52.983  1.00  0.00     0.014 A 
ENDBRANCH  11  16
ENDBRANCH   9  10
ENDBRANCH   1   9
BRANCH   1  22
HETATM   22  C   UNL     1       6.518  28.701  57.452  1.00  0.00     0.273 C 
BRANCH  22  23
HETATM   23  C   UNL     1       7.936  29.151  57.213  1.00  0.00    -0.033 A 
HETATM   24  C   UNL     1       8.688  29.730  58.247  1.00  0.00     0.009 A 
HETATM   25  C   UNL     1       9.988  30.179  58.008  1.00  0.00     0.001 A 
HETATM   26  C   UNL     1      10.551  30.050  56.741  1.00  0.00     0.000 A 
HETATM   27  C   UNL     1       9.819  29.465  55.710  1.00  0.00     0.001 A 
HETATM   28  C   UNL     1       8.518  29.016  55.943  1.00  0.00     0.009 A 
ENDBRANCH  22  23
ENDBRANCH   1  22
TORSDOF 9
ENDMDL
MODEL 9
REMARK VINA RESULT:      -7.4      2.519      5.784
REMARK  9 active torsions:
REMARK  status: ('A' for Active; 'I' for Inactive)
REMARK    1  A    between atoms: C_2  and  C_3 
REMARK    2  A    between atoms: C_3  and  O_4 
REMARK    3  A    between atoms: C_3  and  C_5 
REMARK    4  A    between atoms: C_5  and  N_6 
REMARK    5  A    between atoms: N_6  and  C_8 
REMARK    6  A    between atoms: N_6  and  C_21 
REMARK    7  A    between atoms: C_8  and  C_9 
REMARK    8  A    between atoms: C_10  and  C_11 
REMARK    9  A    between atoms: C_21  and  C_22 
ROOT
HETATM    1  N   UNL     1       5.846  26.475  54.711  1.00  0.00    -0.061 N 
HETATM    2  H   UNL     1       6.561  26.234  54.018  1.00  0.00     0.280 HD
ENDROOT
BRANCH   1   3
HETATM    3  C   UNL     1       6.323  27.768  55.357  1.00  0.00     0.267 C 
BRANCH   3   4
HETATM    4  C   UNL     1       7.781  28.163  55.026  1.00  0.00     0.143 C 
BRANCH   4   5
HETATM    5  C   UNL     1       8.401  29.229  55.935  1.00  0.00     0.029 C 
HETATM    6  C   UNL     1       9.172  28.653  57.111  1.00  0.00     0.007 C 
ENDBRANCH   4   5
BRANCH   4   7
HETATM    7  O   UNL     1       7.853  28.617  53.674  1.00  0.00    -0.394 OA
HETATM    8  H   UNL     1       8.751  28.972  53.521  1.00  0.00     0.210 HD
ENDBRANCH   4   7
ENDBRANCH   3   4
ENDBRANCH   1   3
BRANCH   1   9
HETATM    9  C   UNL     1       5.765  25.255  55.609  1.00  0.00     0.277 C 
BRANCH   9  10
HETATM   10  C   UNL     1       6.904  24.911  56.503  1.00  0.00     0.016 A 
HETATM   11  C   UNL     1       7.816  23.818  56.300  1.00  0.00     0.096 A 
HETATM   12  N   UNL     1       8.693  23.730  57.308  1.00  0.00    -0.174 NA
HETATM   13  N   UNL     1       8.430  24.775  58.092  1.00  0.00    -0.288 N 
HETATM   14  H   UNL     1       9.019  24.925  58.906  1.00  0.00     0.188 HD
HETATM   15  C   UNL     1       7.351  25.501  57.672  1.00  0.00     0.120 A 
BRANCH  11  16
HETATM   16  C   UNL     1       7.852  22.847  55.208  1.00  0.00    -0.005 A 
HETATM   17  C   UNL     1       7.808  21.469  55.461  1.00  0.00     0.014 A 
HETATM   18  C   UNL     1       7.854  20.557  54.403  1.00  0.00     0.001 A 
HETATM   19  C   UNL     1       7.929  21.013  53.088  1.00  0.00     0.000 A 
HETATM   20  C   UNL     1       7.951  22.381  52.825  1.00  0.00     0.001 A 
HETATM   21  C   UNL     1       7.910  23.295  53.880  1.00  0.00     0.014 A 
ENDBRANCH  11  16
ENDBRANCH   9  10
ENDBRANCH   1   9
BRANCH   1  22
HETATM   22  C   UNL     1       4.571  26.647  53.910  1.00  0.00     0.273 C 
BRANCH  22  23
HETATM   23  C   UNL     1       4.824  27.049  52.480  1.00  0.00    -0.033 A 
HETATM   24  C   UNL     1       4.789  28.399  52.098  1.00  0.00     0.009 A 
HETATM   25  C   UNL     1       4.986  28.761  50.764  1.00  0.00     0.001 A 
HETATM   26  C   UNL     1       5.227  27.782  49.802  1.00  0.00     0.000 A 
HETATM   27  C   UNL     1       5.277  26.441  50.172  1.00  0.00     0.001 A 
HETATM   28  C   UNL     1       5.078  26.073  51.503  1.00  0.00     0.009 A 
ENDBRANCH  22  23
ENDBRANCH   1  22
TORSDOF 9
ENDMDL
MODEL 10
REMARK VINA RESULT:      -7.3      2.521      4.673
REMARK  9 active torsions:
REMARK  status: ('A' for Active; 'I' for Inactive)
REMARK    1  A    between atoms: C_2  and  C_3 
REMARK    2  A    between atoms: C_3  and  O_4 
REMARK    3  A    between atoms: C_3  and  C_5 
REMARK    4  A    between atoms: C_5  and  N_6 
REMARK    5  A    between atoms: N_6  and  C_8 
REMARK    6  A    between atoms: N_6  and  C_21 
REMARK    7  A    between atoms: C_8  and  C_9 
REMARK    8  A    between atoms: C_10  and  C_11 
REMARK    9  A    between atoms: C_21  and  C_22 
ROOT
HETATM    1  N   UNL     1       6.889  24.930  53.857  1.00  0.00    -0.061 N 
HETATM    2  H   UNL     1       7.061  25.925  54.029  1.00  0.00     0.280 HD
ENDROOT
BRANCH   1   3
HETATM    3  C   UNL     1       5.879  24.880  52.721  1.00  0.00     0.267 C 
BRANCH   3   4
HETATM    4  C   UNL     1       5.143  26.212  52.444  1.00  0.00     0.143 C 
BRANCH   4   5
HETATM    5  C   UNL     1       5.929  27.484  52.773  1.00  0.00     0.029 C 
HETATM    6  C   UNL     1       5.510  28.690  51.949  1.00  0.00     0.007 C 
ENDBRANCH   4   5
BRANCH   4   7
HETATM    7  O   UNL     1       3.914  26.233  53.172  1.00  0.00    -0.394 OA
HETATM    8  H   UNL     1       3.195  26.451  52.545  1.00  0.00     0.210 HD
ENDBRANCH   4   7
ENDBRANCH   3   4
ENDBRANCH   1   3
BRANCH   1   9
HETATM    9  C   UNL     1       6.432  24.389  55.199  1.00  0.00     0.277 C 
BRANCH   9  10
HETATM   10  C   UNL     1       7.139  24.793  56.445  1.00  0.00     0.016 A 
HETATM   11  C   UNL     1       7.098  26.105  57.033  1.00  0.00     0.096 A 
HETATM   12  N   UNL     1       7.885  26.173  58.114  1.00  0.00    -0.174 NA
HETATM   13  N   UNL     1       8.349  24.935  58.285  1.00  0.00    -0.288 N 
HETATM   14  H   UNL     1       8.942  24.752  59.090  1.00  0.00     0.188 HD
HETATM   15  C   UNL     1       7.955  24.074  57.299  1.00  0.00     0.120 A 
BRANCH  11  16
HETATM   16  C   UNL     1       6.371  27.290  56.578  1.00  0.00    -0.005 A 
HETATM   17  C   UNL     1       7.046  28.470  56.240  1.00  0.00     0.014 A 
HETATM   18  C   UNL     1       6.331  29.595  55.818  1.00  0.00     0.001 A 
HETATM   19  C   UNL     1       4.942  29.543  55.717  1.00  0.00     0.000 A 
HETATM   20  C   UNL     1       4.264  28.367  56.029  1.00  0.00     0.001 A 
HETATM   21  C   UNL     1       4.974  27.243  56.455  1.00  0.00     0.014 A 
ENDBRANCH  11  16
ENDBRANCH   9  10
ENDBRANCH   1   9
BRANCH   1  22
HETATM   22  C   UNL     1       8.241  24.362  53.474  1.00  0.00     0.273 C 
BRANCH  22  23
HETATM   23  C   UNL     1       8.351  22.881  53.731  1.00  0.00    -0.033 A 
HETATM   24  C   UNL     1       9.133  22.394  54.790  1.00  0.00     0.009 A 
HETATM   25  C   UNL     1       9.261  21.020  54.999  1.00  0.00     0.001 A 
HETATM   26  C   UNL     1       8.608  20.121  54.159  1.00  0.00     0.000 A 
HETATM   27  C   UNL     1       7.820  20.593  53.112  1.00  0.00     0.001 A 
HETATM   28  C   UNL     1       7.689  21.966  52.897  1.00  0.00     0.009 A 
ENDBRANCH  22  23
ENDBRANCH   1  22
TORSDOF 9
ENDMDL
