MODEL 1
REMARK VINA RESULT:     -10.8      0.000      0.000
REMARK  8 active torsions:
REMARK  status: ('A' for Active; 'I' for Inactive)
REMARK    1  A    between atoms: O_2  and  C_3 
REMARK    2  A    between atoms: C_5  and  C_6 
REMARK    3  A    between atoms: N_7  and  N_8 
REMARK    4  A    between atoms: C_19  and  C_20 
REMARK       I    between atoms: C_20  and  N_21 
REMARK    5  A    between atoms: N_21  and  C_22 
REMARK    6  A    between atoms: C_22  and  C_23 
REMARK    7  A    between atoms: C_23  and  C_24 
REMARK    8  A    between atoms: C_31  and  N_32 
ROOT
HETATM    1  N   UNL     1       5.984  25.502  53.159  1.00  0.00    -0.197 N 
HETATM    2  C   UNL     1       6.554  24.292  53.531  1.00  0.00     0.183 A 
HETATM    3  C   UNL     1       6.574  24.263  54.921  1.00  0.00     0.125 A 
HETATM    4  N   UNL     1       7.172  23.252  55.604  1.00  0.00    -0.242 NA
HETATM    5  C   UNL     1       7.679  22.278  54.833  1.00  0.00     0.086 A 
HETATM    6  C   UNL     1       7.629  22.316  53.414  1.00  0.00     0.088 A 
HETATM    7  N   UNL     1       7.077  23.332  52.729  1.00  0.00    -0.225 NA
HETATM    8  C   UNL     1       8.288  21.199  55.458  1.00  0.00     0.034 A 
HETATM    9  C   UNL     1       8.849  20.152  54.725  1.00  0.00     0.002 A 
HETATM   10  C   UNL     1       8.798  20.185  53.339  1.00  0.00     0.002 A 
HETATM   11  C   UNL     1       8.189  21.265  52.698  1.00  0.00     0.034 A 
HETATM   12  C   UNL     1       5.965  25.444  55.410  1.00  0.00     0.110 C 
HETATM   13  C   UNL     1       5.461  26.101  54.301  1.00  0.00     0.143 C 
ENDROOT
BRANCH  12  14
HETATM   14  C   UNL     1       5.967  25.987  56.756  1.00  0.00     0.257 C 
HETATM   15  N   UNL     1       7.176  25.835  57.408  1.00  0.00    -0.356 N 
HETATM   16  H   UNL     1       7.843  25.212  56.958  1.00  0.00     0.162 HD
HETATM   17  O   UNL     1       5.050  26.666  57.208  1.00  0.00    -0.267 OA
BRANCH  15  18
HETATM   18  C   UNL     1       7.738  26.986  58.088  1.00  0.00     0.127 C 
BRANCH  18  19
HETATM   19  C   UNL     1       8.593  27.854  57.146  1.00  0.00     0.053 C 
BRANCH  19  20
HETATM   20  C   UNL     1       8.947  29.233  57.680  1.00  0.00    -0.082 C 
HETATM   21  C   UNL     1       7.982  29.872  58.655  1.00  0.00     0.034 C 
HETATM   22  C   UNL     1       8.256  31.360  58.910  1.00  0.00     0.005 C 
HETATM   23  C   UNL     1       9.746  31.635  59.075  1.00  0.00     0.004 C 
HETATM   24  C   UNL     1      10.524  31.189  57.839  1.00  0.00     0.027 C 
HETATM   25  C   UNL     1      10.087  29.851  57.316  1.00  0.00    -0.024 C 
ENDBRANCH  19  20
ENDBRANCH  18  19
ENDBRANCH  15  18
ENDBRANCH  12  14
BRANCH  13  26
HETATM   26  N   UNL     1       4.744  27.249  54.216  1.00  0.00    -0.383 N 
HETATM   27  H   UNL     1       4.977  27.958  53.520  1.00  0.00     0.157 HD
HETATM   28  H   UNL     1       4.170  27.559  54.997  1.00  0.00     0.157 HD
ENDBRANCH  13  26
BRANCH   1  29
HETATM   29  N   UNL     1       6.008  26.193  51.972  1.00  0.00    -0.176 NA
HETATM   30  C   UNL     1       4.882  26.288  51.344  1.00  0.00     0.150 C 
BRANCH  30  31
HETATM   31  C   UNL     1       4.848  26.751  49.939  1.00  0.00    -0.014 A 
HETATM   32  C   UNL     1       4.027  26.102  49.008  1.00  0.00     0.049 A 
HETATM   33  C   UNL     1       3.872  26.635  47.729  1.00  0.00     0.069 A 
HETATM   34  C   UNL     1       4.566  27.798  47.385  1.00  0.00     0.037 A 
HETATM   35  C   UNL     1       5.392  28.439  48.311  1.00  0.00     0.004 A 
HETATM   36  C   UNL     1       5.531  27.919  49.597  1.00  0.00     0.013 A 
BRANCH  33  37
HETATM   37  O   UNL     1       3.070  26.127  46.744  1.00  0.00    -0.356 OA
HETATM   38  C   UNL     1       1.727  26.599  46.711  1.00  0.00     0.210 C 
ENDBRANCH  33  37
ENDBRANCH  30  31
ENDBRANCH   1  29
TORSDOF 8
ENDMDL
MODEL 2
REMARK VINA RESULT:     -10.6      1.449      1.829
REMARK  8 active torsions:
REMARK  status: ('A' for Active; 'I' for Inactive)
REMARK    1  A    between atoms: O_2  and  C_3 
REMARK    2  A    between atoms: C_5  and  C_6 
REMARK    3  A    between atoms: N_7  and  N_8 
REMARK    4  A    between atoms: C_19  and  C_20 
REMARK       I    between atoms: C_20  and  N_21 
REMARK    5  A    between atoms: N_21  and  C_22 
REMARK    6  A    between atoms: C_22  and  C_23 
REMARK    7  A    between atoms: C_23  and  C_24 
REMARK    8  A    between atoms: C_31  and  N_32 
ROOT
HETATM    1  N   UNL     1       6.693  26.222  53.775  1.00  0.00    -0.197 N 
HETATM    2  C   UNL     1       7.100  24.920  54.032  1.00  0.00     0.183 A 
HETATM    3  C   UNL     1       7.502  24.876  55.362  1.00  0.00     0.125 A 
HETATM    4  N   UNL     1       8.062  23.760  55.900  1.00  0.00    -0.242 NA
HETATM    5  C   UNL     1       8.134  22.712  55.066  1.00  0.00     0.086 A 
HETATM    6  C   UNL     1       7.697  22.772  53.716  1.00  0.00     0.088 A 
HETATM    7  N   UNL     1       7.182  23.883  53.163  1.00  0.00    -0.225 NA
HETATM    8  C   UNL     1       8.674  21.527  55.549  1.00  0.00     0.034 A 
HETATM    9  C   UNL     1       8.794  20.397  54.740  1.00  0.00     0.002 A 
HETATM   10  C   UNL     1       8.365  20.452  53.422  1.00  0.00     0.002 A 
HETATM   11  C   UNL     1       7.821  21.637  52.924  1.00  0.00     0.034 A 
HETATM   12  C   UNL     1       7.295  26.150  55.944  1.00  0.00     0.110 C 
HETATM   13  C   UNL     1       6.637  26.904  54.987  1.00  0.00     0.143 C 
ENDROOT
BRANCH  12  14
HETATM   14  C   UNL     1       7.779  26.669  57.210  1.00  0.00     0.257 C 
HETATM   15  N   UNL     1       8.242  27.968  57.130  1.00  0.00    -0.356 N 
HETATM   16  H   UNL     1       8.365  28.334  56.188  1.00  0.00     0.162 HD
HETATM   17  O   UNL     1       7.632  26.082  58.278  1.00  0.00    -0.267 OA
BRANCH  15  18
HETATM   18  C   UNL     1       7.794  28.920  58.128  1.00  0.00     0.127 C 
BRANCH  18  19
HETATM   19  C   UNL     1       8.829  30.034  58.370  1.00  0.00     0.053 C 
BRANCH  19  20
HETATM   20  C   UNL     1       8.590  30.882  59.609  1.00  0.00    -0.082 C 
HETATM   21  C   UNL     1       7.274  31.625  59.703  1.00  0.00     0.034 C 
HETATM   22  C   UNL     1       7.236  32.676  60.819  1.00  0.00     0.005 C 
HETATM   23  C   UNL     1       7.869  32.152  62.103  1.00  0.00     0.004 C 
HETATM   24  C   UNL     1       9.317  31.730  61.866  1.00  0.00     0.027 C 
HETATM   25  C   UNL     1       9.505  30.953  60.595  1.00  0.00    -0.024 C 
ENDBRANCH  19  20
ENDBRANCH  18  19
ENDBRANCH  15  18
ENDBRANCH  12  14
BRANCH  13  26
HETATM   26  N   UNL     1       6.160  28.171  55.050  1.00  0.00    -0.383 N 
HETATM   27  H   UNL     1       6.799  28.966  55.098  1.00  0.00     0.157 HD
HETATM   28  H   UNL     1       5.201  28.349  55.340  1.00  0.00     0.157 HD
ENDBRANCH  13  26
BRANCH   1  29
HETATM   29  N   UNL     1       6.517  26.906  52.597  1.00  0.00    -0.176 NA
HETATM   30  C   UNL     1       5.409  26.684  51.968  1.00  0.00     0.150 C 
BRANCH  30  31
HETATM   31  C   UNL     1       5.241  27.134  50.569  1.00  0.00    -0.014 A 
HETATM   32  C   UNL     1       4.738  26.251  49.605  1.00  0.00     0.049 A 
HETATM   33  C   UNL     1       4.430  26.719  48.329  1.00  0.00     0.069 A 
HETATM   34  C   UNL     1       4.656  28.064  48.021  1.00  0.00     0.037 A 
HETATM   35  C   UNL     1       5.168  28.941  48.980  1.00  0.00     0.004 A 
HETATM   36  C   UNL     1       5.456  28.478  50.264  1.00  0.00     0.013 A 
BRANCH  33  37
HETATM   37  O   UNL     1       3.894  25.976  47.313  1.00  0.00    -0.356 OA
HETATM   38  C   UNL     1       2.983  24.948  47.688  1.00  0.00     0.210 C 
ENDBRANCH  33  37
ENDBRANCH  30  31
ENDBRANCH   1  29
TORSDOF 8
ENDMDL
MODEL 3
REMARK VINA RESULT:     -10.3      2.730      7.033
REMARK  8 active torsions:
REMARK  status: ('A' for Active; 'I' for Inactive)
REMARK    1  A    between atoms: O_2  and  C_3 
REMARK    2  A    between atoms: C_5  and  C_6 
REMARK    3  A    between atoms: N_7  and  N_8 
REMARK    4  A    between atoms: C_19  and  C_20 
REMARK       I    between atoms: C_20  and  N_21 
REMARK    5  A    between atoms: N_21  and  C_22 
REMARK    6  A    between atoms: C_22  and  C_23 
REMARK    7  A    between atoms: C_23  and  C_24 
REMARK    8  A    between atoms: C_31  and  N_32 
ROOT
HETATM    1  N   UNL     1       5.851  27.097  51.610  1.00  0.00    -0.197 N 
HETATM    2  C   UNL     1       4.947  27.157  50.559  1.00  0.00     0.183 A 
HETATM    3  C   UNL     1       4.219  28.331  50.717  1.00  0.00     0.125 A 
HETATM    4  N   UNL     1       3.172  28.635  49.905  1.00  0.00    -0.242 NA
HETATM    5  C   UNL     1       2.947  27.746  48.926  1.00  0.00     0.086 A 
HETATM    6  C   UNL     1       3.717  26.563  48.769  1.00  0.00     0.088 A 
HETATM    7  N   UNL     1       4.727  26.234  49.591  1.00  0.00    -0.225 NA
HETATM    8  C   UNL     1       1.907  27.997  48.041  1.00  0.00     0.034 A 
HETATM    9  C   UNL     1       1.603  27.116  47.003  1.00  0.00     0.002 A 
HETATM   10  C   UNL     1       2.356  25.961  46.845  1.00  0.00     0.002 A 
HETATM   11  C   UNL     1       3.404  25.697  47.728  1.00  0.00     0.034 A 
HETATM   12  C   UNL     1       4.713  29.026  51.848  1.00  0.00     0.110 C 
HETATM   13  C   UNL     1       5.828  28.322  52.270  1.00  0.00     0.143 C 
ENDROOT
BRANCH  12  14
HETATM   14  C   UNL     1       4.134  30.152  52.557  1.00  0.00     0.257 C 
HETATM   15  N   UNL     1       3.493  29.793  53.727  1.00  0.00    -0.356 N 
HETATM   16  H   UNL     1       3.338  28.796  53.856  1.00  0.00     0.162 HD
HETATM   17  O   UNL     1       4.341  31.321  52.245  1.00  0.00    -0.267 OA
BRANCH  15  18
HETATM   18  C   UNL     1       3.780  30.553  54.928  1.00  0.00     0.127 C 
BRANCH  18  19
HETATM   19  C   UNL     1       3.878  29.652  56.173  1.00  0.00     0.053 C 
BRANCH  19  20
HETATM   20  C   UNL     1       5.275  29.147  56.498  1.00  0.00    -0.082 C 
HETATM   21  C   UNL     1       5.441  27.662  56.741  1.00  0.00     0.034 C 
HETATM   22  C   UNL     1       6.798  27.282  57.347  1.00  0.00     0.005 C 
HETATM   23  C   UNL     1       7.940  28.044  56.684  1.00  0.00     0.004 C 
HETATM   24  C   UNL     1       7.740  29.552  56.814  1.00  0.00     0.027 C 
HETATM   25  C   UNL     1       6.327  29.986  56.547  1.00  0.00    -0.024 C 
ENDBRANCH  19  20
ENDBRANCH  18  19
ENDBRANCH  15  18
ENDBRANCH  12  14
BRANCH  13  26
HETATM   26  N   UNL     1       6.698  28.586  53.276  1.00  0.00    -0.383 N 
HETATM   27  H   UNL     1       6.414  28.479  54.251  1.00  0.00     0.157 HD
HETATM   28  H   UNL     1       7.523  29.158  53.110  1.00  0.00     0.157 HD
ENDBRANCH  13  26
BRANCH   1  29
HETATM   29  N   UNL     1       6.570  26.050  52.135  1.00  0.00    -0.176 NA
HETATM   30  C   UNL     1       5.917  25.234  52.896  1.00  0.00     0.150 C 
BRANCH  30  31
HETATM   31  C   UNL     1       6.641  24.255  53.736  1.00  0.00    -0.014 A 
HETATM   32  C   UNL     1       7.458  23.287  53.136  1.00  0.00     0.049 A 
HETATM   33  C   UNL     1       8.263  22.471  53.929  1.00  0.00     0.069 A 
HETATM   34  C   UNL     1       8.221  22.612  55.319  1.00  0.00     0.037 A 
HETATM   35  C   UNL     1       7.399  23.571  55.916  1.00  0.00     0.004 A 
HETATM   36  C   UNL     1       6.610  24.402  55.123  1.00  0.00     0.013 A 
BRANCH  33  37
HETATM   37  O   UNL     1       9.135  21.521  53.470  1.00  0.00    -0.356 OA
HETATM   38  C   UNL     1       8.560  20.322  52.962  1.00  0.00     0.210 C 
ENDBRANCH  33  37
ENDBRANCH  30  31
ENDBRANCH   1  29
TORSDOF 8
ENDMDL
MODEL 4
REMARK VINA RESULT:     -10.3      1.732      2.480
REMARK  8 active torsions:
REMARK  status: ('A' for Active; 'I' for Inactive)
REMARK    1  A    between atoms: O_2  and  C_3 
REMARK    2  A    between atoms: C_5  and  C_6 
REMARK    3  A    between atoms: N_7  and  N_8 
REMARK    4  A    between atoms: C_19  and  C_20 
REMARK       I    between atoms: C_20  and  N_21 
REMARK    5  A    between atoms: N_21  and  C_22 
REMARK    6  A    between atoms: C_22  and  C_23 
REMARK    7  A    between atoms: C_23  and  C_24 
REMARK    8  A    between atoms: C_31  and  N_32 
ROOT
HETATM    1  N   UNL     1       5.217  26.261  53.466  1.00  0.00    -0.197 N 
HETATM    2  C   UNL     1       6.089  25.245  53.830  1.00  0.00     0.183 A 
HETATM    3  C   UNL     1       6.604  25.579  55.078  1.00  0.00     0.125 A 
HETATM    4  N   UNL     1       7.577  24.838  55.670  1.00  0.00    -0.242 NA
HETATM    5  C   UNL     1       7.945  23.747  54.982  1.00  0.00     0.086 A 
HETATM    6  C   UNL     1       7.391  23.411  53.718  1.00  0.00     0.088 A 
HETATM    7  N   UNL     1       6.460  24.161  53.106  1.00  0.00    -0.225 NA
HETATM    8  C   UNL     1       8.920  22.925  55.532  1.00  0.00     0.034 A 
HETATM    9  C   UNL     1       9.365  21.779  54.873  1.00  0.00     0.002 A 
HETATM   10  C   UNL     1       8.823  21.446  53.640  1.00  0.00     0.002 A 
HETATM   11  C   UNL     1       7.843  22.264  53.075  1.00  0.00     0.034 A 
HETATM   12  C   UNL     1       6.005  26.788  55.509  1.00  0.00     0.110 C 
HETATM   13  C   UNL     1       5.032  27.087  54.571  1.00  0.00     0.143 C 
ENDROOT
BRANCH  12  14
HETATM   14  C   UNL     1       6.384  27.660  56.606  1.00  0.00     0.257 C 
HETATM   15  N   UNL     1       7.726  27.989  56.607  1.00  0.00    -0.356 N 
HETATM   16  H   UNL     1       8.312  27.449  55.974  1.00  0.00     0.162 HD
HETATM   17  O   UNL     1       5.569  28.191  57.355  1.00  0.00    -0.267 OA
BRANCH  15  18
HETATM   18  C   UNL     1       8.091  29.382  56.780  1.00  0.00     0.127 C 
BRANCH  18  19
HETATM   19  C   UNL     1       8.988  29.595  58.013  1.00  0.00     0.053 C 
BRANCH  19  20
HETATM   20  C   UNL     1       8.415  30.517  59.078  1.00  0.00    -0.082 C 
HETATM   21  C   UNL     1       9.201  30.674  60.361  1.00  0.00     0.034 C 
HETATM   22  C   UNL     1       8.422  31.371  61.484  1.00  0.00     0.005 C 
HETATM   23  C   UNL     1       7.636  32.568  60.960  1.00  0.00     0.004 C 
HETATM   24  C   UNL     1       6.662  32.145  59.863  1.00  0.00     0.027 C 
HETATM   25  C   UNL     1       7.262  31.183  58.879  1.00  0.00    -0.024 C 
ENDBRANCH  19  20
ENDBRANCH  18  19
ENDBRANCH  15  18
ENDBRANCH  12  14
BRANCH  13  26
HETATM   26  N   UNL     1       4.136  28.105  54.535  1.00  0.00    -0.383 N 
HETATM   27  H   UNL     1       3.964  28.676  55.363  1.00  0.00     0.157 HD
HETATM   28  H   UNL     1       3.424  28.141  53.809  1.00  0.00     0.157 HD
ENDBRANCH  13  26
BRANCH   1  29
HETATM   29  N   UNL     1       4.695  26.620  52.247  1.00  0.00    -0.176 NA
HETATM   30  C   UNL     1       5.551  26.907  51.322  1.00  0.00     0.150 C 
BRANCH  30  31
HETATM   31  C   UNL     1       5.109  27.576  50.079  1.00  0.00    -0.014 A 
HETATM   32  C   UNL     1       5.238  28.966  49.947  1.00  0.00     0.049 A 
HETATM   33  C   UNL     1       4.973  29.574  48.722  1.00  0.00     0.069 A 
HETATM   34  C   UNL     1       4.553  28.788  47.645  1.00  0.00     0.037 A 
HETATM   35  C   UNL     1       4.414  27.404  47.780  1.00  0.00     0.004 A 
HETATM   36  C   UNL     1       4.700  26.792  48.999  1.00  0.00     0.013 A 
BRANCH  33  37
HETATM   37  O   UNL     1       5.103  30.908  48.447  1.00  0.00    -0.356 OA
HETATM   38  C   UNL     1       5.961  31.654  49.305  1.00  0.00     0.210 C 
ENDBRANCH  33  37
ENDBRANCH  30  31
ENDBRANCH   1  29
TORSDOF 8
ENDMDL
MODEL 5
REMARK VINA RESULT:     -10.1      2.334      8.668
REMARK  8 active torsions:
REMARK  status: ('A' for Active; 'I' for Inactive)
REMARK    1  A    between atoms: O_2  and  C_3 
REMARK    2  A    between atoms: C_5  and  C_6 
REMARK    3  A    between atoms: N_7  and  N_8 
REMARK    4  A    between atoms: C_19  and  C_20 
REMARK       I    between atoms: C_20  and  N_21 
REMARK    5  A    between atoms: N_21  and  C_22 
REMARK    6  A    between atoms: C_22  and  C_23 
REMARK    7  A    between atoms: C_23  and  C_24 
REMARK    8  A    between atoms: C_31  and  N_32 
ROOT
HETATM    1  N   UNL     1       5.721  26.310  55.058  1.00  0.00    -0.197 N 
HETATM    2  C   UNL     1       6.036  27.425  55.822  1.00  0.00     0.183 A 
HETATM    3  C   UNL     1       5.459  28.524  55.194  1.00  0.00     0.125 A 
HETATM    4  N   UNL     1       5.673  29.791  55.635  1.00  0.00    -0.242 NA
HETATM    5  C   UNL     1       6.428  29.879  56.741  1.00  0.00     0.086 A 
HETATM    6  C   UNL     1       6.990  28.742  57.381  1.00  0.00     0.088 A 
HETATM    7  N   UNL     1       6.818  27.488  56.927  1.00  0.00    -0.225 NA
HETATM    8  C   UNL     1       6.674  31.140  57.266  1.00  0.00     0.034 A 
HETATM    9  C   UNL     1       7.458  31.315  58.407  1.00  0.00     0.002 A 
HETATM   10  C   UNL     1       8.006  30.206  59.036  1.00  0.00     0.002 A 
HETATM   11  C   UNL     1       7.766  28.932  58.517  1.00  0.00     0.034 A 
HETATM   12  C   UNL     1       4.740  28.074  54.060  1.00  0.00     0.110 C 
HETATM   13  C   UNL     1       4.781  26.691  54.106  1.00  0.00     0.143 C 
ENDROOT
BRANCH  12  14
HETATM   14  C   UNL     1       4.185  28.844  52.961  1.00  0.00     0.257 C 
HETATM   15  N   UNL     1       5.141  29.509  52.219  1.00  0.00    -0.356 N 
HETATM   16  H   UNL     1       6.073  29.539  52.626  1.00  0.00     0.162 HD
HETATM   17  O   UNL     1       3.008  28.774  52.618  1.00  0.00    -0.267 OA
BRANCH  15  18
HETATM   18  C   UNL     1       5.082  29.407  50.773  1.00  0.00     0.127 C 
BRANCH  18  19
HETATM   19  C   UNL     1       5.281  27.960  50.287  1.00  0.00     0.053 C 
BRANCH  19  20
HETATM   20  C   UNL     1       4.150  27.401  49.438  1.00  0.00    -0.082 C 
HETATM   21  C   UNL     1       2.981  28.316  49.143  1.00  0.00     0.034 C 
HETATM   22  C   UNL     1       1.766  27.595  48.545  1.00  0.00     0.005 C 
HETATM   23  C   UNL     1       2.183  26.581  47.486  1.00  0.00     0.004 C 
HETATM   24  C   UNL     1       3.142  25.545  48.067  1.00  0.00     0.027 C 
HETATM   25  C   UNL     1       4.197  26.146  48.951  1.00  0.00    -0.024 C 
ENDBRANCH  19  20
ENDBRANCH  18  19
ENDBRANCH  15  18
ENDBRANCH  12  14
BRANCH  13  26
HETATM   26  N   UNL     1       4.208  25.773  53.289  1.00  0.00    -0.383 N 
HETATM   27  H   UNL     1       3.220  25.536  53.385  1.00  0.00     0.157 HD
HETATM   28  H   UNL     1       4.782  25.105  52.779  1.00  0.00     0.157 HD
ENDBRANCH  13  26
BRANCH   1  29
HETATM   29  N   UNL     1       6.273  25.053  55.011  1.00  0.00    -0.176 NA
HETATM   30  C   UNL     1       7.444  24.964  54.471  1.00  0.00     0.150 C 
BRANCH  30  31
HETATM   31  C   UNL     1       8.000  23.641  54.109  1.00  0.00    -0.014 A 
HETATM   32  C   UNL     1       8.619  22.850  55.086  1.00  0.00     0.049 A 
HETATM   33  C   UNL     1       8.997  21.544  54.783  1.00  0.00     0.069 A 
HETATM   34  C   UNL     1       8.778  21.050  53.494  1.00  0.00     0.037 A 
HETATM   35  C   UNL     1       8.170  21.842  52.517  1.00  0.00     0.004 A 
HETATM   36  C   UNL     1       7.771  23.143  52.825  1.00  0.00     0.013 A 
BRANCH  33  37
HETATM   37  O   UNL     1       9.567  20.655  55.653  1.00  0.00    -0.356 OA
HETATM   38  C   UNL     1       8.818  20.340  56.822  1.00  0.00     0.210 C 
ENDBRANCH  33  37
ENDBRANCH  30  31
ENDBRANCH   1  29
TORSDOF 8
ENDMDL
MODEL 6
REMARK VINA RESULT:     -10.0      2.261      3.341
REMARK  8 active torsions:
REMARK  status: ('A' for Active; 'I' for Inactive)
REMARK    1  A    between atoms: O_2  and  C_3 
REMARK    2  A    between atoms: C_5  and  C_6 
REMARK    3  A    between atoms: N_7  and  N_8 
REMARK    4  A    between atoms: C_19  and  C_20 
REMARK       I    between atoms: C_20  and  N_21 
REMARK    5  A    between atoms: N_21  and  C_22 
REMARK    6  A    between atoms: C_22  and  C_23 
REMARK    7  A    between atoms: C_23  and  C_24 
REMARK    8  A    between atoms: C_31  and  N_32 
ROOT
HETATM    1  N   UNL     1       4.870  27.459  53.814  1.00  0.00    -0.197 N 
HETATM    2  C   UNL     1       5.705  26.719  54.639  1.00  0.00     0.183 A 
HETATM    3  C   UNL     1       6.010  27.522  55.733  1.00  0.00     0.125 A 
HETATM    4  N   UNL     1       6.901  27.128  56.680  1.00  0.00    -0.242 NA
HETATM    5  C   UNL     1       7.404  25.898  56.498  1.00  0.00     0.086 A 
HETATM    6  C   UNL     1       7.062  25.084  55.385  1.00  0.00     0.088 A 
HETATM    7  N   UNL     1       6.215  25.482  54.421  1.00  0.00    -0.225 NA
HETATM    8  C   UNL     1       8.306  25.414  57.436  1.00  0.00     0.034 A 
HETATM    9  C   UNL     1       8.881  24.149  57.311  1.00  0.00     0.002 A 
HETATM   10  C   UNL     1       8.547  23.351  56.226  1.00  0.00     0.002 A 
HETATM   11  C   UNL     1       7.642  23.826  55.275  1.00  0.00     0.034 A 
HETATM   12  C   UNL     1       5.316  28.750  55.605  1.00  0.00     0.110 C 
HETATM   13  C   UNL     1       4.491  28.608  54.502  1.00  0.00     0.143 C 
ENDROOT
BRANCH  12  14
HETATM   14  C   UNL     1       5.495  29.986  56.344  1.00  0.00     0.257 C 
HETATM   15  N   UNL     1       5.894  29.791  57.652  1.00  0.00    -0.356 N 
HETATM   16  H   UNL     1       5.834  28.834  57.992  1.00  0.00     0.162 HD
HETATM   17  O   UNL     1       5.465  31.095  55.817  1.00  0.00    -0.267 OA
BRANCH  15  18
HETATM   18  C   UNL     1       7.004  30.576  58.155  1.00  0.00     0.127 C 
BRANCH  18  19
HETATM   19  C   UNL     1       6.529  31.834  58.906  1.00  0.00     0.053 C 
BRANCH  19  20
HETATM   20  C   UNL     1       7.202  32.081  60.247  1.00  0.00    -0.082 C 
HETATM   21  C   UNL     1       6.346  32.631  61.367  1.00  0.00     0.034 C 
HETATM   22  C   UNL     1       7.151  33.126  62.575  1.00  0.00     0.005 C 
HETATM   23  C   UNL     1       8.281  32.165  62.927  1.00  0.00     0.004 C 
HETATM   24  C   UNL     1       9.225  31.974  61.742  1.00  0.00     0.027 C 
HETATM   25  C   UNL     1       8.506  31.802  60.435  1.00  0.00    -0.024 C 
ENDBRANCH  19  20
ENDBRANCH  18  19
ENDBRANCH  15  18
ENDBRANCH  12  14
BRANCH  13  26
HETATM   26  N   UNL     1       3.582  29.466  53.974  1.00  0.00    -0.383 N 
HETATM   27  H   UNL     1       3.731  29.880  53.053  1.00  0.00     0.157 HD
HETATM   28  H   UNL     1       2.906  29.934  54.573  1.00  0.00     0.157 HD
ENDBRANCH  13  26
BRANCH   1  29
HETATM   29  N   UNL     1       4.533  27.311  52.490  1.00  0.00    -0.176 NA
HETATM   30  C   UNL     1       5.494  27.448  51.637  1.00  0.00     0.150 C 
BRANCH  30  31
HETATM   31  C   UNL     1       5.197  27.596  50.196  1.00  0.00    -0.014 A 
HETATM   32  C   UNL     1       4.432  26.626  49.535  1.00  0.00     0.049 A 
HETATM   33  C   UNL     1       4.018  26.845  48.222  1.00  0.00     0.069 A 
HETATM   34  C   UNL     1       4.399  28.022  47.572  1.00  0.00     0.037 A 
HETATM   35  C   UNL     1       5.171  28.984  48.228  1.00  0.00     0.004 A 
HETATM   36  C   UNL     1       5.567  28.776  49.549  1.00  0.00     0.013 A 
BRANCH  33  37
HETATM   37  O   UNL     1       3.234  26.003  47.481  1.00  0.00    -0.356 OA
HETATM   38  C   UNL     1       3.036  24.693  48.003  1.00  0.00     0.210 C 
ENDBRANCH  33  37
ENDBRANCH  30  31
ENDBRANCH   1  29
TORSDOF 8
ENDMDL
MODEL 7
REMARK VINA RESULT:      -9.6      3.945     10.098
REMARK  8 active torsions:
REMARK  status: ('A' for Active; 'I' for Inactive)
REMARK    1  A    between atoms: O_2  and  C_3 
REMARK    2  A    between atoms: C_5  and  C_6 
REMARK    3  A    between atoms: N_7  and  N_8 
REMARK    4  A    between atoms: C_19  and  C_20 
REMARK       I    between atoms: C_20  and  N_21 
REMARK    5  A    between atoms: N_21  and  C_22 
REMARK    6  A    between atoms: C_22  and  C_23 
REMARK    7  A    between atoms: C_23  and  C_24 
REMARK    8  A    between atoms: C_31  and  N_32 
ROOT
HETATM    1  N   UNL     1       5.930  31.142  57.851  1.00  0.00    -0.197 N 
HETATM    2  C   UNL     1       6.380  29.922  57.368  1.00  0.00     0.183 A 
HETATM    3  C   UNL     1       5.882  29.787  56.077  1.00  0.00     0.125 A 
HETATM    4  N   UNL     1       6.054  28.644  55.362  1.00  0.00    -0.242 NA
HETATM    5  C   UNL     1       6.781  27.702  55.980  1.00  0.00     0.086 A 
HETATM    6  C   UNL     1       7.300  27.868  57.291  1.00  0.00     0.088 A 
HETATM    7  N   UNL     1       7.099  28.977  58.022  1.00  0.00    -0.225 NA
HETATM    8  C   UNL     1       7.020  26.512  55.304  1.00  0.00     0.034 A 
HETATM    9  C   UNL     1       7.757  25.480  55.884  1.00  0.00     0.002 A 
HETATM   10  C   UNL     1       8.268  25.640  57.164  1.00  0.00     0.002 A 
HETATM   11  C   UNL     1       8.035  26.831  57.854  1.00  0.00     0.034 A 
HETATM   12  C   UNL     1       5.159  30.958  55.743  1.00  0.00     0.110 C 
HETATM   13  C   UNL     1       5.355  31.840  56.792  1.00  0.00     0.143 C 
ENDROOT
BRANCH  12  14
HETATM   14  C   UNL     1       4.260  31.195  54.628  1.00  0.00     0.257 C 
HETATM   15  N   UNL     1       4.628  30.530  53.475  1.00  0.00    -0.356 N 
HETATM   16  H   UNL     1       5.559  30.119  53.482  1.00  0.00     0.162 HD
HETATM   17  O   UNL     1       3.188  31.782  54.742  1.00  0.00    -0.267 OA
BRANCH  15  18
HETATM   18  C   UNL     1       3.611  29.788  52.755  1.00  0.00     0.127 C 
BRANCH  18  19
HETATM   19  C   UNL     1       3.426  28.366  53.317  1.00  0.00     0.053 C 
BRANCH  19  20
HETATM   20  C   UNL     1       4.255  27.289  52.637  1.00  0.00    -0.082 C 
HETATM   21  C   UNL     1       4.995  27.671  51.374  1.00  0.00     0.034 C 
HETATM   22  C   UNL     1       5.556  26.472  50.598  1.00  0.00     0.005 C 
HETATM   23  C   UNL     1       6.191  25.448  51.533  1.00  0.00     0.004 C 
HETATM   24  C   UNL     1       5.182  24.949  52.564  1.00  0.00     0.027 C 
HETATM   25  C   UNL     1       4.345  26.047  53.152  1.00  0.00    -0.024 C 
ENDBRANCH  19  20
ENDBRANCH  18  19
ENDBRANCH  15  18
ENDBRANCH  12  14
BRANCH  13  26
HETATM   26  N   UNL     1       4.928  33.117  56.952  1.00  0.00    -0.383 N 
HETATM   27  H   UNL     1       5.394  33.885  56.468  1.00  0.00     0.157 HD
HETATM   28  H   UNL     1       4.352  33.373  57.750  1.00  0.00     0.157 HD
ENDBRANCH  13  26
BRANCH   1  29
HETATM   29  N   UNL     1       5.835  31.637  59.129  1.00  0.00    -0.176 NA
HETATM   30  C   UNL     1       6.937  32.049  59.665  1.00  0.00     0.150 C 
BRANCH  30  31
HETATM   31  C   UNL     1       7.003  32.327  61.116  1.00  0.00    -0.014 A 
HETATM   32  C   UNL     1       5.825  32.377  61.874  1.00  0.00     0.049 A 
HETATM   33  C   UNL     1       5.897  32.478  63.262  1.00  0.00     0.069 A 
HETATM   34  C   UNL     1       7.149  32.557  63.878  1.00  0.00     0.037 A 
HETATM   35  C   UNL     1       8.323  32.517  63.121  1.00  0.00     0.004 A 
HETATM   36  C   UNL     1       8.252  32.394  61.734  1.00  0.00     0.013 A 
BRANCH  33  37
HETATM   37  O   UNL     1       4.830  32.492  64.119  1.00  0.00    -0.356 OA
HETATM   38  C   UNL     1       4.813  33.525  65.097  1.00  0.00     0.210 C 
ENDBRANCH  33  37
ENDBRANCH  30  31
ENDBRANCH   1  29
TORSDOF 8
ENDMDL
MODEL 8
REMARK VINA RESULT:      -9.5      3.893      7.766
REMARK  8 active torsions:
REMARK  status: ('A' for Active; 'I' for Inactive)
REMARK    1  A    between atoms: O_2  and  C_3 
REMARK    2  A    between atoms: C_5  and  C_6 
REMARK    3  A    between atoms: N_7  and  N_8 
REMARK    4  A    between atoms: C_19  and  C_20 
REMARK       I    between atoms: C_20  and  N_21 
REMARK    5  A    between atoms: N_21  and  C_22 
REMARK    6  A    between atoms: C_22  and  C_23 
REMARK    7  A    between atoms: C_23  and  C_24 
REMARK    8  A    between atoms: C_31  and  N_32 
ROOT
HETATM    1  N   UNL     1       5.451  27.494  54.720  1.00  0.00    -0.197 N 
HETATM    2  C   UNL     1       5.813  28.375  55.729  1.00  0.00     0.183 A 
HETATM    3  C   UNL     1       5.035  29.517  55.569  1.00  0.00     0.125 A 
HETATM    4  N   UNL     1       5.224  30.621  56.339  1.00  0.00    -0.242 NA
HETATM    5  C   UNL     1       6.168  30.490  57.283  1.00  0.00     0.086 A 
HETATM    6  C   UNL     1       6.936  29.306  57.444  1.00  0.00     0.088 A 
HETATM    7  N   UNL     1       6.786  28.225  56.661  1.00  0.00    -0.225 NA
HETATM    8  C   UNL     1       6.405  31.569  58.125  1.00  0.00     0.034 A 
HETATM    9  C   UNL     1       7.377  31.514  59.124  1.00  0.00     0.002 A 
HETATM   10  C   UNL     1       8.126  30.358  59.286  1.00  0.00     0.002 A 
HETATM   11  C   UNL     1       7.899  29.267  58.446  1.00  0.00     0.034 A 
HETATM   12  C   UNL     1       4.151  29.318  54.481  1.00  0.00     0.110 C 
HETATM   13  C   UNL     1       4.315  28.000  54.092  1.00  0.00     0.143 C 
ENDROOT
BRANCH  12  14
HETATM   14  C   UNL     1       3.332  30.287  53.776  1.00  0.00     0.257 C 
HETATM   15  N   UNL     1       2.865  31.304  54.585  1.00  0.00    -0.356 N 
HETATM   16  H   UNL     1       2.983  31.160  55.586  1.00  0.00     0.162 HD
HETATM   17  O   UNL     1       3.211  30.302  52.554  1.00  0.00    -0.267 OA
BRANCH  15  18
HETATM   18  C   UNL     1       3.000  32.671  54.119  1.00  0.00     0.127 C 
BRANCH  18  19
HETATM   19  C   UNL     1       4.444  33.187  54.254  1.00  0.00     0.053 C 
BRANCH  19  20
HETATM   20  C   UNL     1       4.632  34.337  55.231  1.00  0.00    -0.082 C 
HETATM   21  C   UNL     1       5.100  35.661  54.668  1.00  0.00     0.034 C 
HETATM   22  C   UNL     1       5.546  36.666  55.738  1.00  0.00     0.005 C 
HETATM   23  C   UNL     1       4.591  36.677  56.927  1.00  0.00     0.004 C 
HETATM   24  C   UNL     1       4.486  35.291  57.557  1.00  0.00     0.027 C 
HETATM   25  C   UNL     1       4.370  34.188  56.544  1.00  0.00    -0.024 C 
ENDBRANCH  19  20
ENDBRANCH  18  19
ENDBRANCH  15  18
ENDBRANCH  12  14
BRANCH  13  26
HETATM   26  N   UNL     1       3.675  27.285  53.135  1.00  0.00    -0.383 N 
HETATM   27  H   UNL     1       3.552  26.276  53.233  1.00  0.00     0.157 HD
HETATM   28  H   UNL     1       3.565  27.661  52.196  1.00  0.00     0.157 HD
ENDBRANCH  13  26
BRANCH   1  29
HETATM   29  N   UNL     1       6.086  26.393  54.201  1.00  0.00    -0.176 NA
HETATM   30  C   UNL     1       5.928  25.284  54.847  1.00  0.00     0.150 C 
BRANCH  30  31
HETATM   31  C   UNL     1       6.787  24.117  54.550  1.00  0.00    -0.014 A 
HETATM   32  C   UNL     1       7.110  23.209  55.567  1.00  0.00     0.049 A 
HETATM   33  C   UNL     1       7.782  22.029  55.254  1.00  0.00     0.069 A 
HETATM   34  C   UNL     1       8.151  21.782  53.928  1.00  0.00     0.037 A 
HETATM   35  C   UNL     1       7.837  22.694  52.917  1.00  0.00     0.004 A 
HETATM   36  C   UNL     1       7.145  23.864  53.225  1.00  0.00     0.013 A 
BRANCH  33  37
HETATM   37  O   UNL     1       8.117  21.041  56.140  1.00  0.00    -0.356 OA
HETATM   38  C   UNL     1       9.363  20.387  55.922  1.00  0.00     0.210 C 
ENDBRANCH  33  37
ENDBRANCH  30  31
ENDBRANCH   1  29
TORSDOF 8
ENDMDL
MODEL 9
REMARK VINA RESULT:      -9.4      3.579      8.276
REMARK  8 active torsions:
REMARK  status: ('A' for Active; 'I' for Inactive)
REMARK    1  A    between atoms: O_2  and  C_3 
REMARK    2  A    between atoms: C_5  and  C_6 
REMARK    3  A    between atoms: N_7  and  N_8 
REMARK    4  A    between atoms: C_19  and  C_20 
REMARK       I    between atoms: C_20  and  N_21 
REMARK    5  A    between atoms: N_21  and  C_22 
REMARK    6  A    between atoms: C_22  and  C_23 
REMARK    7  A    between atoms: C_23  and  C_24 
REMARK    8  A    between atoms: C_31  and  N_32 
ROOT
HETATM    1  N   UNL     1       6.150  27.061  51.800  1.00  0.00    -0.197 N 
HETATM    2  C   UNL     1       5.197  27.169  50.797  1.00  0.00     0.183 A 
HETATM    3  C   UNL     1       4.393  28.258  51.116  1.00  0.00     0.125 A 
HETATM    4  N   UNL     1       3.290  28.569  50.385  1.00  0.00    -0.242 NA
HETATM    5  C   UNL     1       3.086  27.781  49.319  1.00  0.00     0.086 A 
HETATM    6  C   UNL     1       3.932  26.687  48.997  1.00  0.00     0.088 A 
HETATM    7  N   UNL     1       5.000  26.346  49.738  1.00  0.00    -0.225 NA
HETATM    8  C   UNL     1       1.991  28.049  48.508  1.00  0.00     0.034 A 
HETATM    9  C   UNL     1       1.704  27.269  47.388  1.00  0.00     0.002 A 
HETATM   10  C   UNL     1       2.531  26.201  47.069  1.00  0.00     0.002 A 
HETATM   11  C   UNL     1       3.635  25.921  47.876  1.00  0.00     0.034 A 
HETATM   12  C   UNL     1       4.887  28.857  52.301  1.00  0.00     0.110 C 
HETATM   13  C   UNL     1       6.068  28.199  52.597  1.00  0.00     0.143 C 
ENDROOT
BRANCH  12  14
HETATM   14  C   UNL     1       4.261  29.848  53.157  1.00  0.00     0.257 C 
HETATM   15  N   UNL     1       4.697  31.136  52.916  1.00  0.00    -0.356 N 
HETATM   16  H   UNL     1       5.518  31.218  52.320  1.00  0.00     0.162 HD
HETATM   17  O   UNL     1       3.315  29.595  53.898  1.00  0.00    -0.267 OA
BRANCH  15  18
HETATM   18  C   UNL     1       3.703  32.183  52.778  1.00  0.00     0.127 C 
BRANCH  18  19
HETATM   19  C   UNL     1       3.170  32.288  51.337  1.00  0.00     0.053 C 
BRANCH  19  20
HETATM   20  C   UNL     1       4.219  32.586  50.279  1.00  0.00    -0.082 C 
HETATM   21  C   UNL     1       5.181  33.722  50.550  1.00  0.00     0.034 C 
HETATM   22  C   UNL     1       6.000  34.145  49.324  1.00  0.00     0.005 C 
HETATM   23  C   UNL     1       6.503  32.936  48.543  1.00  0.00     0.004 C 
HETATM   24  C   UNL     1       5.341  32.058  48.087  1.00  0.00     0.027 C 
HETATM   25  C   UNL     1       4.302  31.853  49.152  1.00  0.00    -0.024 C 
ENDBRANCH  19  20
ENDBRANCH  18  19
ENDBRANCH  15  18
ENDBRANCH  12  14
BRANCH  13  26
HETATM   26  N   UNL     1       6.962  28.414  53.594  1.00  0.00    -0.383 N 
HETATM   27  H   UNL     1       7.961  28.272  53.437  1.00  0.00     0.157 HD
HETATM   28  H   UNL     1       6.659  28.433  54.565  1.00  0.00     0.157 HD
ENDBRANCH  13  26
BRANCH   1  29
HETATM   29  N   UNL     1       6.966  26.020  52.173  1.00  0.00    -0.176 NA
HETATM   30  C   UNL     1       6.403  25.062  52.833  1.00  0.00     0.150 C 
BRANCH  30  31
HETATM   31  C   UNL     1       7.228  24.048  53.526  1.00  0.00    -0.014 A 
HETATM   32  C   UNL     1       7.534  24.204  54.885  1.00  0.00     0.049 A 
HETATM   33  C   UNL     1       8.171  23.175  55.575  1.00  0.00     0.069 A 
HETATM   34  C   UNL     1       8.524  22.009  54.890  1.00  0.00     0.037 A 
HETATM   35  C   UNL     1       8.228  21.858  53.533  1.00  0.00     0.004 A 
HETATM   36  C   UNL     1       7.571  22.879  52.847  1.00  0.00     0.013 A 
BRANCH  33  37
HETATM   37  O   UNL     1       8.486  23.181  56.906  1.00  0.00    -0.356 OA
HETATM   38  C   UNL     1       8.824  24.442  57.475  1.00  0.00     0.210 C 
ENDBRANCH  33  37
ENDBRANCH  30  31
ENDBRANCH   1  29
TORSDOF 8
ENDMDL
MODEL 10
REMARK VINA RESULT:      -9.2      3.295      7.370
REMARK  8 active torsions:
REMARK  status: ('A' for Active; 'I' for Inactive)
REMARK    1  A    between atoms: O_2  and  C_3 
REMARK    2  A    between atoms: C_5  and  C_6 
REMARK    3  A    between atoms: N_7  and  N_8 
REMARK    4  A    between atoms: C_19  and  C_20 
REMARK       I    between atoms: C_20  and  N_21 
REMARK    5  A    between atoms: N_21  and  C_22 
REMARK    6  A    between atoms: C_22  and  C_23 
REMARK    7  A    between atoms: C_23  and  C_24 
REMARK    8  A    between atoms: C_31  and  N_32 
ROOT
HETATM    1  N   UNL     1       5.573  27.176  52.154  1.00  0.00    -0.197 N 
HETATM    2  C   UNL     1       4.867  27.126  50.960  1.00  0.00     0.183 A 
HETATM    3  C   UNL     1       4.265  28.368  50.792  1.00  0.00     0.125 A 
HETATM    4  N   UNL     1       3.407  28.611  49.766  1.00  0.00    -0.242 NA
HETATM    5  C   UNL     1       3.245  27.586  48.917  1.00  0.00     0.086 A 
HETATM    6  C   UNL     1       3.888  26.331  49.094  1.00  0.00     0.088 A 
HETATM    7  N   UNL     1       4.704  26.068  50.129  1.00  0.00    -0.225 NA
HETATM    8  C   UNL     1       2.400  27.764  47.830  1.00  0.00     0.034 A 
HETATM    9  C   UNL     1       2.171  26.742  46.909  1.00  0.00     0.002 A 
HETATM   10  C   UNL     1       2.800  25.517  47.078  1.00  0.00     0.002 A 
HETATM   11  C   UNL     1       3.651  25.324  48.167  1.00  0.00     0.034 A 
HETATM   12  C   UNL     1       4.643  29.207  51.868  1.00  0.00     0.110 C 
HETATM   13  C   UNL     1       5.585  28.497  52.593  1.00  0.00     0.143 C 
ENDROOT
BRANCH  12  14
HETATM   14  C   UNL     1       4.090  30.488  52.271  1.00  0.00     0.257 C 
HETATM   15  N   UNL     1       3.080  30.379  53.206  1.00  0.00    -0.356 N 
HETATM   16  H   UNL     1       2.719  29.440  53.358  1.00  0.00     0.162 HD
HETATM   17  O   UNL     1       4.585  31.564  51.949  1.00  0.00    -0.267 OA
BRANCH  15  18
HETATM   18  C   UNL     1       3.129  31.238  54.374  1.00  0.00     0.127 C 
BRANCH  18  19
HETATM   19  C   UNL     1       3.818  30.551  55.568  1.00  0.00     0.053 C 
BRANCH  19  20
HETATM   20  C   UNL     1       3.932  31.398  56.825  1.00  0.00    -0.082 C 
HETATM   21  C   UNL     1       4.462  32.807  56.671  1.00  0.00     0.034 C 
HETATM   22  C   UNL     1       4.823  33.482  58.000  1.00  0.00     0.005 C 
HETATM   23  C   UNL     1       3.768  33.213  59.068  1.00  0.00     0.004 C 
HETATM   24  C   UNL     1       3.594  31.714  59.300  1.00  0.00     0.027 C 
HETATM   25  C   UNL     1       3.556  30.920  58.026  1.00  0.00    -0.024 C 
ENDBRANCH  19  20
ENDBRANCH  18  19
ENDBRANCH  15  18
ENDBRANCH  12  14
BRANCH  13  26
HETATM   26  N   UNL     1       6.302  28.859  53.685  1.00  0.00    -0.383 N 
HETATM   27  H   UNL     1       5.836  29.057  54.572  1.00  0.00     0.157 HD
HETATM   28  H   UNL     1       7.249  29.219  53.586  1.00  0.00     0.157 HD
ENDBRANCH  13  26
BRANCH   1  29
HETATM   29  N   UNL     1       6.069  26.181  52.961  1.00  0.00    -0.176 NA
HETATM   30  C   UNL     1       7.236  25.721  52.649  1.00  0.00     0.150 C 
BRANCH  30  31
HETATM   31  C   UNL     1       7.734  24.470  53.262  1.00  0.00    -0.014 A 
HETATM   32  C   UNL     1       8.073  24.443  54.622  1.00  0.00     0.049 A 
HETATM   33  C   UNL     1       8.387  23.231  55.234  1.00  0.00     0.069 A 
HETATM   34  C   UNL     1       8.386  22.060  54.472  1.00  0.00     0.037 A 
HETATM   35  C   UNL     1       8.057  22.089  53.115  1.00  0.00     0.004 A 
HETATM   36  C   UNL     1       7.722  23.297  52.506  1.00  0.00     0.013 A 
BRANCH  33  37
HETATM   37  O   UNL     1       8.691  23.060  56.557  1.00  0.00    -0.356 OA
HETATM   38  C   UNL     1       8.824  24.243  57.338  1.00  0.00     0.210 C 
ENDBRANCH  33  37
ENDBRANCH  30  31
ENDBRANCH   1  29
TORSDOF 8
ENDMDL
