MODEL 1
REMARK VINA RESULT:     -10.0      0.000      0.000
REMARK  7 active torsions:
REMARK  status: ('A' for Active; 'I' for Inactive)
REMARK       I    between atoms: N_2  and  C_3 
REMARK    1  A    between atoms: C_3  and  C_4 
REMARK    2  A    between atoms: C_4  and  O_5 
REMARK    3  A    between atoms: O_5  and  C_6 
REMARK    4  A    between atoms: C_9  and  N_10 
REMARK    5  A    between atoms: N_10  and  C_11 
REMARK    6  A    between atoms: C_14  and  C_15 
REMARK    7  A    between atoms: C_18  and  O_19 
ROOT
HETATM    1  C   UNL     1       6.539  26.976  56.297  1.00  0.00     0.161 A 
HETATM    2  N   UNL     1       7.443  26.251  56.985  1.00  0.00    -0.131 NA
HETATM    3  N   UNL     1       7.808  24.996  56.585  1.00  0.00    -0.147 NA
HETATM    4  C   UNL     1       7.289  24.462  55.460  1.00  0.00     0.100 A 
HETATM    5  C   UNL     1       6.391  25.183  54.651  1.00  0.00     0.009 A 
HETATM    6  C   UNL     1       6.010  26.481  55.078  1.00  0.00     0.024 A 
HETATM    7  C   UNL     1       5.869  24.687  53.427  1.00  0.00     0.015 A 
HETATM    8  C   UNL     1       4.986  25.433  52.647  1.00  0.00     0.001 A 
HETATM    9  C   UNL     1       4.613  26.702  53.059  1.00  0.00     0.001 A 
HETATM   10  C   UNL     1       5.122  27.220  54.251  1.00  0.00     0.016 A 
ENDROOT
BRANCH   1  11
HETATM   11  N   UNL     1       6.175  28.279  56.742  1.00  0.00    -0.339 N 
HETATM   12  H   UNL     1       5.312  28.209  57.274  1.00  0.00     0.167 HD
BRANCH  11  13
HETATM   13  C   UNL     1       6.977  29.270  57.357  1.00  0.00     0.033 A 
HETATM   14  C   UNL     1       6.335  30.412  57.853  1.00  0.00     0.032 A 
HETATM   15  C   UNL     1       7.052  31.412  58.518  1.00  0.00     0.039 A 
HETATM   16  C   UNL     1       8.426  31.287  58.716  1.00  0.00     0.069 A 
HETATM   17  C   UNL     1       9.076  30.154  58.231  1.00  0.00     0.039 A 
HETATM   18  C   UNL     1       8.354  29.153  57.563  1.00  0.00     0.032 A 
BRANCH  16  19
HETATM   19  O   UNL     1       9.008  32.322  59.393  1.00  0.00    -0.342 OA
BRANCH  19  20
HETATM   20  C   UNL     1       9.693  31.991  60.601  1.00  0.00     0.278 C 
BRANCH  20  21
HETATM   21  C   UNL     1       8.712  31.605  61.708  1.00  0.00     0.241 C 
HETATM   22  N   UNL     1       7.798  32.584  62.032  1.00  0.00    -0.364 N 
HETATM   23  C   UNL     1       6.737  32.351  62.975  1.00  0.00     0.149 C 
HETATM   24  H   UNL     1       7.757  33.388  61.413  1.00  0.00     0.161 HD
HETATM   25  O   UNL     1       8.754  30.509  62.263  1.00  0.00    -0.271 OA
ENDBRANCH  20  21
ENDBRANCH  19  20
ENDBRANCH  16  19
ENDBRANCH  11  13
ENDBRANCH   1  11
BRANCH   4  26
HETATM   26  C   UNL     1       7.755  23.093  55.191  1.00  0.00    -0.005 A 
HETATM   27  C   UNL     1       7.613  22.067  56.146  1.00  0.00     0.016 A 
HETATM   28  C   UNL     1       8.075  20.773  55.889  1.00  0.00     0.037 A 
HETATM   29  C   UNL     1       8.695  20.497  54.675  1.00  0.00     0.065 A 
HETATM   30  C   UNL     1       8.862  21.492  53.721  1.00  0.00     0.037 A 
HETATM   31  C   UNL     1       8.398  22.784  53.980  1.00  0.00     0.016 A 
BRANCH  29  32
HETATM   32  O   UNL     1       9.166  19.252  54.384  1.00  0.00    -0.361 OA
HETATM   33  H   UNL     1       8.561  18.830  53.753  1.00  0.00     0.217 HD
ENDBRANCH  29  32
ENDBRANCH   4  26
TORSDOF 7
ENDMDL
MODEL 2
REMARK VINA RESULT:      -9.7      2.429      3.949
REMARK  7 active torsions:
REMARK  status: ('A' for Active; 'I' for Inactive)
REMARK       I    between atoms: N_2  and  C_3 
REMARK    1  A    between atoms: C_3  and  C_4 
REMARK    2  A    between atoms: C_4  and  O_5 
REMARK    3  A    between atoms: O_5  and  C_6 
REMARK    4  A    between atoms: C_9  and  N_10 
REMARK    5  A    between atoms: N_10  and  C_11 
REMARK    6  A    between atoms: C_14  and  C_15 
REMARK    7  A    between atoms: C_18  and  O_19 
ROOT
HETATM    1  C   UNL     1       7.752  29.718  57.977  1.00  0.00     0.161 A 
HETATM    2  N   UNL     1       8.791  28.868  57.860  1.00  0.00    -0.131 NA
HETATM    3  N   UNL     1       8.652  27.648  57.260  1.00  0.00    -0.147 NA
HETATM    4  C   UNL     1       7.465  27.277  56.736  1.00  0.00     0.100 A 
HETATM    5  C   UNL     1       6.351  28.138  56.759  1.00  0.00     0.009 A 
HETATM    6  C   UNL     1       6.501  29.398  57.392  1.00  0.00     0.024 A 
HETATM    7  C   UNL     1       5.102  27.817  56.166  1.00  0.00     0.015 A 
HETATM    8  C   UNL     1       4.022  28.698  56.203  1.00  0.00     0.001 A 
HETATM    9  C   UNL     1       4.164  29.930  56.817  1.00  0.00     0.001 A 
HETATM   10  C   UNL     1       5.385  30.278  57.396  1.00  0.00     0.016 A 
ENDROOT
BRANCH   1  11
HETATM   11  N   UNL     1       7.928  30.981  58.612  1.00  0.00    -0.339 N 
HETATM   12  H   UNL     1       7.333  31.661  58.149  1.00  0.00     0.167 HD
BRANCH  11  13
HETATM   13  C   UNL     1       7.938  31.293  59.993  1.00  0.00     0.033 A 
HETATM   14  C   UNL     1       6.916  32.118  60.482  1.00  0.00     0.032 A 
HETATM   15  C   UNL     1       6.829  32.430  61.843  1.00  0.00     0.039 A 
HETATM   16  C   UNL     1       7.754  31.913  62.749  1.00  0.00     0.069 A 
HETATM   17  C   UNL     1       8.772  31.089  62.276  1.00  0.00     0.039 A 
HETATM   18  C   UNL     1       8.858  30.778  60.911  1.00  0.00     0.032 A 
BRANCH  16  19
HETATM   19  O   UNL     1       7.551  32.278  64.051  1.00  0.00    -0.342 OA
BRANCH  19  20
HETATM   20  C   UNL     1       6.997  33.574  64.275  1.00  0.00     0.278 C 
BRANCH  20  21
HETATM   21  C   UNL     1       5.801  33.509  65.225  1.00  0.00     0.241 C 
HETATM   22  N   UNL     1       6.042  34.013  66.485  1.00  0.00    -0.364 N 
HETATM   23  C   UNL     1       5.000  34.128  67.470  1.00  0.00     0.149 C 
HETATM   24  H   UNL     1       6.916  34.514  66.613  1.00  0.00     0.161 HD
HETATM   25  O   UNL     1       4.721  33.033  64.883  1.00  0.00    -0.271 OA
ENDBRANCH  20  21
ENDBRANCH  19  20
ENDBRANCH  16  19
ENDBRANCH  11  13
ENDBRANCH   1  11
BRANCH   4  26
HETATM   26  C   UNL     1       7.473  25.922  56.163  1.00  0.00    -0.005 A 
HETATM   27  C   UNL     1       7.452  24.777  56.982  1.00  0.00     0.016 A 
HETATM   28  C   UNL     1       7.479  23.494  56.428  1.00  0.00     0.037 A 
HETATM   29  C   UNL     1       7.539  23.346  55.047  1.00  0.00     0.065 A 
HETATM   30  C   UNL     1       7.575  24.458  54.215  1.00  0.00     0.037 A 
HETATM   31  C   UNL     1       7.548  25.739  54.771  1.00  0.00     0.016 A 
BRANCH  29  32
HETATM   32  O   UNL     1       7.572  22.115  54.464  1.00  0.00    -0.361 OA
HETATM   33  H   UNL     1       6.811  21.601  54.777  1.00  0.00     0.217 HD
ENDBRANCH  29  32
ENDBRANCH   4  26
TORSDOF 7
ENDMDL
MODEL 3
REMARK VINA RESULT:      -9.7      5.284      7.979
REMARK  7 active torsions:
REMARK  status: ('A' for Active; 'I' for Inactive)
REMARK       I    between atoms: N_2  and  C_3 
REMARK    1  A    between atoms: C_3  and  C_4 
REMARK    2  A    between atoms: C_4  and  O_5 
REMARK    3  A    between atoms: O_5  and  C_6 
REMARK    4  A    between atoms: C_9  and  N_10 
REMARK    5  A    between atoms: N_10  and  C_11 
REMARK    6  A    between atoms: C_14  and  C_15 
REMARK    7  A    between atoms: C_18  and  O_19 
ROOT
HETATM    1  C   UNL     1       6.685  27.092  53.330  1.00  0.00     0.161 A 
HETATM    2  N   UNL     1       7.340  26.298  52.459  1.00  0.00    -0.131 NA
HETATM    3  N   UNL     1       7.683  25.015  52.780  1.00  0.00    -0.147 NA
HETATM    4  C   UNL     1       7.341  24.497  53.979  1.00  0.00     0.100 A 
HETATM    5  C   UNL     1       6.597  25.241  54.914  1.00  0.00     0.009 A 
HETATM    6  C   UNL     1       6.253  26.575  54.578  1.00  0.00     0.024 A 
HETATM    7  C   UNL     1       6.161  24.717  56.159  1.00  0.00     0.015 A 
HETATM    8  C   UNL     1       5.419  25.482  57.060  1.00  0.00     0.001 A 
HETATM    9  C   UNL     1       5.079  26.784  56.735  1.00  0.00     0.001 A 
HETATM   10  C   UNL     1       5.483  27.320  55.511  1.00  0.00     0.016 A 
ENDROOT
BRANCH   1  11
HETATM   11  N   UNL     1       6.346  28.427  52.968  1.00  0.00    -0.339 N 
HETATM   12  H   UNL     1       7.189  28.903  52.661  1.00  0.00     0.167 HD
BRANCH  11  13
HETATM   13  C   UNL     1       5.277  28.891  52.164  1.00  0.00     0.033 A 
HETATM   14  C   UNL     1       5.590  29.418  50.904  1.00  0.00     0.032 A 
HETATM   15  C   UNL     1       4.586  29.850  50.032  1.00  0.00     0.039 A 
HETATM   16  C   UNL     1       3.243  29.752  50.393  1.00  0.00     0.069 A 
HETATM   17  C   UNL     1       2.918  29.227  51.641  1.00  0.00     0.039 A 
HETATM   18  C   UNL     1       3.927  28.795  52.515  1.00  0.00     0.032 A 
BRANCH  16  19
HETATM   19  O   UNL     1       2.358  30.192  49.448  1.00  0.00    -0.342 OA
BRANCH  19  20
HETATM   20  C   UNL     1       1.441  29.228  48.933  1.00  0.00     0.278 C 
BRANCH  20  21
HETATM   21  C   UNL     1       2.153  28.195  48.059  1.00  0.00     0.241 C 
HETATM   22  N   UNL     1       2.048  26.896  48.505  1.00  0.00    -0.364 N 
HETATM   23  C   UNL     1       2.567  25.787  47.749  1.00  0.00     0.149 C 
HETATM   24  H   UNL     1       1.391  26.728  49.261  1.00  0.00     0.161 HD
HETATM   25  O   UNL     1       2.776  28.514  47.049  1.00  0.00    -0.271 OA
ENDBRANCH  20  21
ENDBRANCH  19  20
ENDBRANCH  16  19
ENDBRANCH  11  13
ENDBRANCH   1  11
BRANCH   4  26
HETATM   26  C   UNL     1       7.817  23.120  54.181  1.00  0.00    -0.005 A 
HETATM   27  C   UNL     1       8.596  22.769  55.301  1.00  0.00     0.016 A 
HETATM   28  C   UNL     1       9.060  21.462  55.476  1.00  0.00     0.037 A 
HETATM   29  C   UNL     1       8.757  20.496  54.522  1.00  0.00     0.065 A 
HETATM   30  C   UNL     1       8.003  20.817  53.401  1.00  0.00     0.037 A 
HETATM   31  C   UNL     1       7.540  22.123  53.230  1.00  0.00     0.016 A 
BRANCH  29  32
HETATM   32  O   UNL     1       9.192  19.211  54.649  1.00  0.00    -0.361 OA
HETATM   33  H   UNL     1       9.074  18.931  55.571  1.00  0.00     0.217 HD
ENDBRANCH  29  32
ENDBRANCH   4  26
TORSDOF 7
ENDMDL
MODEL 4
REMARK VINA RESULT:      -9.6      2.161      9.485
REMARK  7 active torsions:
REMARK  status: ('A' for Active; 'I' for Inactive)
REMARK       I    between atoms: N_2  and  C_3 
REMARK    1  A    between atoms: C_3  and  C_4 
REMARK    2  A    between atoms: C_4  and  O_5 
REMARK    3  A    between atoms: O_5  and  C_6 
REMARK    4  A    between atoms: C_9  and  N_10 
REMARK    5  A    between atoms: N_10  and  C_11 
REMARK    6  A    between atoms: C_14  and  C_15 
REMARK    7  A    between atoms: C_18  and  O_19 
ROOT
HETATM    1  C   UNL     1       6.967  29.597  56.364  1.00  0.00     0.161 A 
HETATM    2  N   UNL     1       5.984  30.056  57.162  1.00  0.00    -0.131 NA
HETATM    3  N   UNL     1       6.254  30.616  58.379  1.00  0.00    -0.147 NA
HETATM    4  C   UNL     1       7.530  30.753  58.799  1.00  0.00     0.100 A 
HETATM    5  C   UNL     1       8.614  30.359  57.991  1.00  0.00     0.009 A 
HETATM    6  C   UNL     1       8.325  29.771  56.734  1.00  0.00     0.024 A 
HETATM    7  C   UNL     1       9.972  30.542  58.363  1.00  0.00     0.015 A 
HETATM    8  C   UNL     1      11.021  30.145  57.534  1.00  0.00     0.001 A 
HETATM    9  C   UNL     1      10.744  29.572  56.304  1.00  0.00     0.001 A 
HETATM   10  C   UNL     1       9.417  29.394  55.907  1.00  0.00     0.016 A 
ENDROOT
BRANCH   1  11
HETATM   11  N   UNL     1       6.653  29.013  55.103  1.00  0.00    -0.339 N 
HETATM   12  H   UNL     1       7.066  29.583  54.371  1.00  0.00     0.167 HD
BRANCH  11  13
HETATM   13  C   UNL     1       6.746  27.661  54.696  1.00  0.00     0.033 A 
HETATM   14  C   UNL     1       5.935  26.725  55.352  1.00  0.00     0.032 A 
HETATM   15  C   UNL     1       5.934  25.379  54.973  1.00  0.00     0.039 A 
HETATM   16  C   UNL     1       6.733  24.938  53.919  1.00  0.00     0.069 A 
HETATM   17  C   UNL     1       7.541  25.859  53.256  1.00  0.00     0.039 A 
HETATM   18  C   UNL     1       7.541  27.209  53.639  1.00  0.00     0.032 A 
BRANCH  16  19
HETATM   19  O   UNL     1       6.630  23.605  53.635  1.00  0.00    -0.342 OA
BRANCH  19  20
HETATM   20  C   UNL     1       7.845  22.918  53.338  1.00  0.00     0.278 C 
BRANCH  20  21
HETATM   21  C   UNL     1       8.427  22.254  54.586  1.00  0.00     0.241 C 
HETATM   22  N   UNL     1       7.965  20.978  54.825  1.00  0.00    -0.364 N 
HETATM   23  C   UNL     1       8.485  20.169  55.895  1.00  0.00     0.149 C 
HETATM   24  H   UNL     1       7.419  20.548  54.085  1.00  0.00     0.161 HD
HETATM   25  O   UNL     1       9.233  22.829  55.314  1.00  0.00    -0.271 OA
ENDBRANCH  20  21
ENDBRANCH  19  20
ENDBRANCH  16  19
ENDBRANCH  11  13
ENDBRANCH   1  11
BRANCH   4  26
HETATM   26  C   UNL     1       7.647  31.338  60.143  1.00  0.00    -0.005 A 
HETATM   27  C   UNL     1       6.971  32.523  60.490  1.00  0.00     0.016 A 
HETATM   28  C   UNL     1       7.103  33.082  61.765  1.00  0.00     0.037 A 
HETATM   29  C   UNL     1       7.923  32.463  62.701  1.00  0.00     0.065 A 
HETATM   30  C   UNL     1       8.614  31.301  62.382  1.00  0.00     0.037 A 
HETATM   31  C   UNL     1       8.480  30.744  61.108  1.00  0.00     0.016 A 
BRANCH  29  32
HETATM   32  O   UNL     1       8.086  32.974  63.953  1.00  0.00    -0.361 OA
HETATM   33  H   UNL     1       7.929  32.269  64.602  1.00  0.00     0.217 HD
ENDBRANCH  29  32
ENDBRANCH   4  26
TORSDOF 7
ENDMDL
MODEL 5
REMARK VINA RESULT:      -9.6      2.676      5.399
REMARK  7 active torsions:
REMARK  status: ('A' for Active; 'I' for Inactive)
REMARK       I    between atoms: N_2  and  C_3 
REMARK    1  A    between atoms: C_3  and  C_4 
REMARK    2  A    between atoms: C_4  and  O_5 
REMARK    3  A    between atoms: O_5  and  C_6 
REMARK    4  A    between atoms: C_9  and  N_10 
REMARK    5  A    between atoms: N_10  and  C_11 
REMARK    6  A    between atoms: C_14  and  C_15 
REMARK    7  A    between atoms: C_18  and  O_19 
ROOT
HETATM    1  C   UNL     1       7.319  30.666  58.284  1.00  0.00     0.161 A 
HETATM    2  N   UNL     1       6.278  29.830  58.098  1.00  0.00    -0.131 NA
HETATM    3  N   UNL     1       6.420  28.653  57.419  1.00  0.00    -0.147 NA
HETATM    4  C   UNL     1       7.627  28.281  56.942  1.00  0.00     0.100 A 
HETATM    5  C   UNL     1       8.775  29.069  57.156  1.00  0.00     0.009 A 
HETATM    6  C   UNL     1       8.617  30.294  57.853  1.00  0.00     0.024 A 
HETATM    7  C   UNL     1      10.074  28.689  56.729  1.00  0.00     0.015 A 
HETATM    8  C   UNL     1      11.190  29.492  56.964  1.00  0.00     0.001 A 
HETATM    9  C   UNL     1      11.042  30.687  57.647  1.00  0.00     0.001 A 
HETATM   10  C   UNL     1       9.778  31.079  58.090  1.00  0.00     0.016 A 
ENDROOT
BRANCH   1  11
HETATM   11  N   UNL     1       7.138  31.890  58.991  1.00  0.00    -0.339 N 
HETATM   12  H   UNL     1       6.375  32.402  58.560  1.00  0.00     0.167 HD
BRANCH  11  13
HETATM   13  C   UNL     1       7.069  32.113  60.387  1.00  0.00     0.033 A 
HETATM   14  C   UNL     1       8.264  32.055  61.116  1.00  0.00     0.032 A 
HETATM   15  C   UNL     1       8.285  32.314  62.490  1.00  0.00     0.039 A 
HETATM   16  C   UNL     1       7.113  32.651  63.166  1.00  0.00     0.069 A 
HETATM   17  C   UNL     1       5.918  32.716  62.452  1.00  0.00     0.039 A 
HETATM   18  C   UNL     1       5.901  32.454  61.074  1.00  0.00     0.032 A 
BRANCH  16  19
HETATM   19  O   UNL     1       7.268  32.897  64.502  1.00  0.00    -0.342 OA
BRANCH  19  20
HETATM   20  C   UNL     1       6.736  34.128  64.992  1.00  0.00     0.278 C 
BRANCH  20  21
HETATM   21  C   UNL     1       5.595  33.885  65.980  1.00  0.00     0.241 C 
HETATM   22  N   UNL     1       5.944  34.022  67.305  1.00  0.00    -0.364 N 
HETATM   23  C   UNL     1       4.972  33.934  68.362  1.00  0.00     0.149 C 
HETATM   24  H   UNL     1       6.860  34.418  67.494  1.00  0.00     0.161 HD
HETATM   25  O   UNL     1       4.463  33.582  65.607  1.00  0.00    -0.271 OA
ENDBRANCH  20  21
ENDBRANCH  19  20
ENDBRANCH  16  19
ENDBRANCH  11  13
ENDBRANCH   1  11
BRANCH   4  26
HETATM   26  C   UNL     1       7.602  27.009  56.204  1.00  0.00    -0.005 A 
HETATM   27  C   UNL     1       7.388  26.970  54.813  1.00  0.00     0.016 A 
HETATM   28  C   UNL     1       7.347  25.756  54.123  1.00  0.00     0.037 A 
HETATM   29  C   UNL     1       7.509  24.566  54.824  1.00  0.00     0.065 A 
HETATM   30  C   UNL     1       7.707  24.572  56.198  1.00  0.00     0.037 A 
HETATM   31  C   UNL     1       7.748  25.788  56.885  1.00  0.00     0.016 A 
BRANCH  29  32
HETATM   32  O   UNL     1       7.470  23.358  54.194  1.00  0.00    -0.361 OA
HETATM   33  H   UNL     1       6.660  22.894  54.458  1.00  0.00     0.217 HD
ENDBRANCH  29  32
ENDBRANCH   4  26
TORSDOF 7
ENDMDL
MODEL 6
REMARK VINA RESULT:      -9.6      2.795      3.277
REMARK  7 active torsions:
REMARK  status: ('A' for Active; 'I' for Inactive)
REMARK       I    between atoms: N_2  and  C_3 
REMARK    1  A    between atoms: C_3  and  C_4 
REMARK    2  A    between atoms: C_4  and  O_5 
REMARK    3  A    between atoms: O_5  and  C_6 
REMARK    4  A    between atoms: C_9  and  N_10 
REMARK    5  A    between atoms: N_10  and  C_11 
REMARK    6  A    between atoms: C_14  and  C_15 
REMARK    7  A    between atoms: C_18  and  O_19 
ROOT
HETATM    1  C   UNL     1       6.815  27.602  54.926  1.00  0.00     0.161 A 
HETATM    2  N   UNL     1       7.604  26.919  55.779  1.00  0.00    -0.131 NA
HETATM    3  N   UNL     1       7.860  25.588  55.605  1.00  0.00    -0.147 NA
HETATM    4  C   UNL     1       7.348  24.928  54.544  1.00  0.00     0.100 A 
HETATM    5  C   UNL     1       6.572  25.588  53.574  1.00  0.00     0.009 A 
HETATM    6  C   UNL     1       6.303  26.968  53.766  1.00  0.00     0.024 A 
HETATM    7  C   UNL     1       6.067  24.951  52.411  1.00  0.00     0.015 A 
HETATM    8  C   UNL     1       5.305  25.639  51.466  1.00  0.00     0.001 A 
HETATM    9  C   UNL     1       5.042  26.986  51.648  1.00  0.00     0.001 A 
HETATM   10  C   UNL     1       5.538  27.642  52.776  1.00  0.00     0.016 A 
ENDROOT
BRANCH   1  11
HETATM   11  N   UNL     1       6.562  28.988  55.137  1.00  0.00    -0.339 N 
HETATM   12  H   UNL     1       6.498  29.446  54.233  1.00  0.00     0.167 HD
BRANCH  11  13
HETATM   13  C   UNL     1       5.621  29.605  55.997  1.00  0.00     0.033 A 
HETATM   14  C   UNL     1       6.110  30.477  56.978  1.00  0.00     0.032 A 
HETATM   15  C   UNL     1       5.240  31.163  57.832  1.00  0.00     0.039 A 
HETATM   16  C   UNL     1       3.860  31.004  57.715  1.00  0.00     0.069 A 
HETATM   17  C   UNL     1       3.361  30.142  56.741  1.00  0.00     0.039 A 
HETATM   18  C   UNL     1       4.237  29.454  55.887  1.00  0.00     0.032 A 
BRANCH  16  19
HETATM   19  O   UNL     1       3.117  31.740  58.596  1.00  0.00    -0.342 OA
BRANCH  19  20
HETATM   20  C   UNL     1       3.797  32.236  59.749  1.00  0.00     0.278 C 
BRANCH  20  21
HETATM   21  C   UNL     1       2.896  33.158  60.571  1.00  0.00     0.241 C 
HETATM   22  N   UNL     1       3.099  33.094  61.932  1.00  0.00    -0.364 N 
HETATM   23  C   UNL     1       2.413  33.969  62.845  1.00  0.00     0.149 C 
HETATM   24  H   UNL     1       3.914  32.576  62.244  1.00  0.00     0.161 HD
HETATM   25  O   UNL     1       2.054  33.884  60.046  1.00  0.00    -0.271 OA
ENDBRANCH  20  21
ENDBRANCH  19  20
ENDBRANCH  16  19
ENDBRANCH  11  13
ENDBRANCH   1  11
BRANCH   4  26
HETATM   26  C   UNL     1       7.686  23.496  54.525  1.00  0.00    -0.005 A 
HETATM   27  C   UNL     1       7.475  22.676  55.650  1.00  0.00     0.016 A 
HETATM   28  C   UNL     1       7.816  21.321  55.628  1.00  0.00     0.037 A 
HETATM   29  C   UNL     1       8.383  20.777  54.481  1.00  0.00     0.065 A 
HETATM   30  C   UNL     1       8.616  21.565  53.362  1.00  0.00     0.037 A 
HETATM   31  C   UNL     1       8.274  22.918  53.386  1.00  0.00     0.016 A 
BRANCH  29  32
HETATM   32  O   UNL     1       8.736  19.462  54.417  1.00  0.00    -0.361 OA
HETATM   33  H   UNL     1       9.699  19.402  54.307  1.00  0.00     0.217 HD
ENDBRANCH  29  32
ENDBRANCH   4  26
TORSDOF 7
ENDMDL
MODEL 7
REMARK VINA RESULT:      -9.4      4.799      8.096
REMARK  7 active torsions:
REMARK  status: ('A' for Active; 'I' for Inactive)
REMARK       I    between atoms: N_2  and  C_3 
REMARK    1  A    between atoms: C_3  and  C_4 
REMARK    2  A    between atoms: C_4  and  O_5 
REMARK    3  A    between atoms: O_5  and  C_6 
REMARK    4  A    between atoms: C_9  and  N_10 
REMARK    5  A    between atoms: N_10  and  C_11 
REMARK    6  A    between atoms: C_14  and  C_15 
REMARK    7  A    between atoms: C_18  and  O_19 
ROOT
HETATM    1  C   UNL     1       6.319  27.026  53.651  1.00  0.00     0.161 A 
HETATM    2  N   UNL     1       6.130  25.993  52.806  1.00  0.00    -0.131 NA
HETATM    3  N   UNL     1       6.592  24.740  53.095  1.00  0.00    -0.147 NA
HETATM    4  C   UNL     1       7.226  24.498  54.262  1.00  0.00     0.100 A 
HETATM    5  C   UNL     1       7.400  25.510  55.225  1.00  0.00     0.009 A 
HETATM    6  C   UNL     1       6.927  26.810  54.914  1.00  0.00     0.024 A 
HETATM    7  C   UNL     1       8.002  25.288  56.491  1.00  0.00     0.015 A 
HETATM    8  C   UNL     1       8.153  26.314  57.424  1.00  0.00     0.001 A 
HETATM    9  C   UNL     1       7.690  27.584  57.126  1.00  0.00     0.001 A 
HETATM   10  C   UNL     1       7.080  27.827  55.894  1.00  0.00     0.016 A 
ENDROOT
BRANCH   1  11
HETATM   11  N   UNL     1       5.830  28.322  53.319  1.00  0.00    -0.339 N 
HETATM   12  H   UNL     1       6.601  28.981  53.373  1.00  0.00     0.167 HD
BRANCH  11  13
HETATM   13  C   UNL     1       5.005  28.717  52.239  1.00  0.00     0.033 A 
HETATM   14  C   UNL     1       3.621  28.554  52.384  1.00  0.00     0.032 A 
HETATM   15  C   UNL     1       2.736  28.966  51.383  1.00  0.00     0.039 A 
HETATM   16  C   UNL     1       3.214  29.565  50.218  1.00  0.00     0.069 A 
HETATM   17  C   UNL     1       4.588  29.737  50.063  1.00  0.00     0.039 A 
HETATM   18  C   UNL     1       5.472  29.321  51.069  1.00  0.00     0.032 A 
BRANCH  16  19
HETATM   19  O   UNL     1       2.249  29.939  49.324  1.00  0.00    -0.342 OA
BRANCH  19  20
HETATM   20  C   UNL     1       1.403  28.905  48.825  1.00  0.00     0.278 C 
BRANCH  20  21
HETATM   21  C   UNL     1       2.184  27.917  47.958  1.00  0.00     0.241 C 
HETATM   22  N   UNL     1       2.146  26.612  48.398  1.00  0.00    -0.364 N 
HETATM   23  C   UNL     1       2.737  25.538  47.645  1.00  0.00     0.149 C 
HETATM   24  H   UNL     1       1.490  26.405  49.144  1.00  0.00     0.161 HD
HETATM   25  O   UNL     1       2.801  28.275  46.957  1.00  0.00    -0.271 OA
ENDBRANCH  20  21
ENDBRANCH  19  20
ENDBRANCH  16  19
ENDBRANCH  11  13
ENDBRANCH   1  11
BRANCH   4  26
HETATM   26  C   UNL     1       7.692  23.110  54.401  1.00  0.00    -0.005 A 
HETATM   27  C   UNL     1       7.612  22.428  55.630  1.00  0.00     0.016 A 
HETATM   28  C   UNL     1       8.075  21.115  55.757  1.00  0.00     0.037 A 
HETATM   29  C   UNL     1       8.634  20.477  54.655  1.00  0.00     0.065 A 
HETATM   30  C   UNL     1       8.738  21.130  53.434  1.00  0.00     0.037 A 
HETATM   31  C   UNL     1       8.274  22.442  53.310  1.00  0.00     0.016 A 
BRANCH  29  32
HETATM   32  O   UNL     1       9.102  19.200  54.735  1.00  0.00    -0.361 OA
HETATM   33  H   UNL     1       9.556  19.086  55.586  1.00  0.00     0.217 HD
ENDBRANCH  29  32
ENDBRANCH   4  26
TORSDOF 7
ENDMDL
MODEL 8
REMARK VINA RESULT:      -9.2      6.283     10.857
REMARK  7 active torsions:
REMARK  status: ('A' for Active; 'I' for Inactive)
REMARK       I    between atoms: N_2  and  C_3 
REMARK    1  A    between atoms: C_3  and  C_4 
REMARK    2  A    between atoms: C_4  and  O_5 
REMARK    3  A    between atoms: O_5  and  C_6 
REMARK    4  A    between atoms: C_9  and  N_10 
REMARK    5  A    between atoms: N_10  and  C_11 
REMARK    6  A    between atoms: C_14  and  C_15 
REMARK    7  A    between atoms: C_18  and  O_19 
ROOT
HETATM    1  C   UNL     1       5.936  27.082  51.426  1.00  0.00     0.161 A 
HETATM    2  N   UNL     1       5.745  28.308  51.951  1.00  0.00    -0.131 NA
HETATM    3  N   UNL     1       6.114  28.603  53.233  1.00  0.00    -0.147 NA
HETATM    4  C   UNL     1       6.715  27.669  54.001  1.00  0.00     0.100 A 
HETATM    5  C   UNL     1       7.011  26.387  53.501  1.00  0.00     0.009 A 
HETATM    6  C   UNL     1       6.616  26.086  52.173  1.00  0.00     0.024 A 
HETATM    7  C   UNL     1       7.698  25.396  54.250  1.00  0.00     0.015 A 
HETATM    8  C   UNL     1       7.979  24.137  53.720  1.00  0.00     0.001 A 
HETATM    9  C   UNL     1       7.598  23.839  52.422  1.00  0.00     0.001 A 
HETATM   10  C   UNL     1       6.934  24.800  51.659  1.00  0.00     0.016 A 
ENDROOT
BRANCH   1  11
HETATM   11  N   UNL     1       5.536  26.804  50.088  1.00  0.00    -0.339 N 
HETATM   12  H   UNL     1       5.847  25.868  49.845  1.00  0.00     0.167 HD
BRANCH  11  13
HETATM   13  C   UNL     1       4.279  27.010  49.470  1.00  0.00     0.033 A 
HETATM   14  C   UNL     1       3.793  26.000  48.628  1.00  0.00     0.032 A 
HETATM   15  C   UNL     1       2.538  26.107  48.021  1.00  0.00     0.039 A 
HETATM   16  C   UNL     1       1.732  27.221  48.253  1.00  0.00     0.069 A 
HETATM   17  C   UNL     1       2.201  28.230  49.091  1.00  0.00     0.039 A 
HETATM   18  C   UNL     1       3.462  28.120  49.697  1.00  0.00     0.032 A 
BRANCH  16  19
HETATM   19  O   UNL     1       0.522  27.200  47.616  1.00  0.00    -0.342 OA
BRANCH  19  20
HETATM   20  C   UNL     1       0.549  27.214  46.190  1.00  0.00     0.278 C 
BRANCH  20  21
HETATM   21  C   UNL     1      -0.677  27.926  45.618  1.00  0.00     0.241 C 
HETATM   22  N   UNL     1      -0.536  28.357  44.317  1.00  0.00    -0.364 N 
HETATM   23  C   UNL     1      -1.625  28.951  43.589  1.00  0.00     0.149 C 
HETATM   24  H   UNL     1       0.286  28.028  43.818  1.00  0.00     0.161 HD
HETATM   25  O   UNL     1      -1.696  28.105  46.282  1.00  0.00    -0.271 OA
ENDBRANCH  20  21
ENDBRANCH  19  20
ENDBRANCH  16  19
ENDBRANCH  11  13
ENDBRANCH   1  11
BRANCH   4  26
HETATM   26  C   UNL     1       7.013  28.134  55.365  1.00  0.00    -0.005 A 
HETATM   27  C   UNL     1       6.025  28.150  56.368  1.00  0.00     0.016 A 
HETATM   28  C   UNL     1       6.312  28.610  57.656  1.00  0.00     0.037 A 
HETATM   29  C   UNL     1       7.592  29.070  57.948  1.00  0.00     0.065 A 
HETATM   30  C   UNL     1       8.582  29.079  56.975  1.00  0.00     0.037 A 
HETATM   31  C   UNL     1       8.293  28.618  55.689  1.00  0.00     0.016 A 
BRANCH  29  32
HETATM   32  O   UNL     1       7.915  29.532  59.188  1.00  0.00    -0.361 OA
HETATM   33  H   UNL     1       8.265  30.434  59.104  1.00  0.00     0.217 HD
ENDBRANCH  29  32
ENDBRANCH   4  26
TORSDOF 7
ENDMDL
MODEL 9
REMARK VINA RESULT:      -9.2      5.022      8.254
REMARK  7 active torsions:
REMARK  status: ('A' for Active; 'I' for Inactive)
REMARK       I    between atoms: N_2  and  C_3 
REMARK    1  A    between atoms: C_3  and  C_4 
REMARK    2  A    between atoms: C_4  and  O_5 
REMARK    3  A    between atoms: O_5  and  C_6 
REMARK    4  A    between atoms: C_9  and  N_10 
REMARK    5  A    between atoms: N_10  and  C_11 
REMARK    6  A    between atoms: C_14  and  C_15 
REMARK    7  A    between atoms: C_18  and  O_19 
ROOT
HETATM    1  C   UNL     1       5.374  26.684  53.904  1.00  0.00     0.161 A 
HETATM    2  N   UNL     1       5.099  25.595  53.159  1.00  0.00    -0.131 NA
HETATM    3  N   UNL     1       5.758  24.413  53.351  1.00  0.00    -0.147 NA
HETATM    4  C   UNL     1       6.688  24.301  54.323  1.00  0.00     0.100 A 
HETATM    5  C   UNL     1       6.982  25.374  55.185  1.00  0.00     0.009 A 
HETATM    6  C   UNL     1       6.300  26.599  54.975  1.00  0.00     0.024 A 
HETATM    7  C   UNL     1       7.904  25.282  56.260  1.00  0.00     0.015 A 
HETATM    8  C   UNL     1       8.166  26.365  57.100  1.00  0.00     0.001 A 
HETATM    9  C   UNL     1       7.500  27.563  56.899  1.00  0.00     0.001 A 
HETATM   10  C   UNL     1       6.578  27.676  55.858  1.00  0.00     0.016 A 
ENDROOT
BRANCH   1  11
HETATM   11  N   UNL     1       4.673  27.903  53.677  1.00  0.00    -0.339 N 
HETATM   12  H   UNL     1       4.975  28.583  54.369  1.00  0.00     0.167 HD
BRANCH  11  13
HETATM   13  C   UNL     1       4.455  28.596  52.463  1.00  0.00     0.033 A 
HETATM   14  C   UNL     1       5.580  28.971  51.715  1.00  0.00     0.032 A 
HETATM   15  C   UNL     1       5.446  29.614  50.481  1.00  0.00     0.039 A 
HETATM   16  C   UNL     1       4.183  29.885  49.956  1.00  0.00     0.069 A 
HETATM   17  C   UNL     1       3.056  29.514  50.687  1.00  0.00     0.039 A 
HETATM   18  C   UNL     1       3.195  28.871  51.926  1.00  0.00     0.032 A 
BRANCH  16  19
HETATM   19  O   UNL     1       4.185  30.500  48.736  1.00  0.00    -0.342 OA
BRANCH  19  20
HETATM   20  C   UNL     1       4.224  29.651  47.590  1.00  0.00     0.278 C 
BRANCH  20  21
HETATM   21  C   UNL     1       2.916  29.723  46.801  1.00  0.00     0.241 C 
HETATM   22  N   UNL     1       2.024  28.709  47.075  1.00  0.00    -0.364 N 
HETATM   23  C   UNL     1       0.705  28.682  46.502  1.00  0.00     0.149 C 
HETATM   24  H   UNL     1       2.242  28.117  47.870  1.00  0.00     0.161 HD
HETATM   25  O   UNL     1       2.698  30.612  45.981  1.00  0.00    -0.271 OA
ENDBRANCH  20  21
ENDBRANCH  19  20
ENDBRANCH  16  19
ENDBRANCH  11  13
ENDBRANCH   1  11
BRANCH   4  26
HETATM   26  C   UNL     1       7.330  22.978  54.371  1.00  0.00    -0.005 A 
HETATM   27  C   UNL     1       7.812  22.352  53.205  1.00  0.00     0.016 A 
HETATM   28  C   UNL     1       8.405  21.087  53.258  1.00  0.00     0.037 A 
HETATM   29  C   UNL     1       8.509  20.432  54.480  1.00  0.00     0.065 A 
HETATM   30  C   UNL     1       8.029  21.018  55.644  1.00  0.00     0.037 A 
HETATM   31  C   UNL     1       7.439  22.283  55.588  1.00  0.00     0.016 A 
BRANCH  29  32
HETATM   32  O   UNL     1       9.074  19.196  54.578  1.00  0.00    -0.361 OA
HETATM   33  H   UNL     1       8.560  18.667  55.210  1.00  0.00     0.217 HD
ENDBRANCH  29  32
ENDBRANCH   4  26
TORSDOF 7
ENDMDL
MODEL 10
REMARK VINA RESULT:      -9.2      2.759     10.191
REMARK  7 active torsions:
REMARK  status: ('A' for Active; 'I' for Inactive)
REMARK       I    between atoms: N_2  and  C_3 
REMARK    1  A    between atoms: C_3  and  C_4 
REMARK    2  A    between atoms: C_4  and  O_5 
REMARK    3  A    between atoms: O_5  and  C_6 
REMARK    4  A    between atoms: C_9  and  N_10 
REMARK    5  A    between atoms: N_10  and  C_11 
REMARK    6  A    between atoms: C_14  and  C_15 
REMARK    7  A    between atoms: C_18  and  O_19 
ROOT
HETATM    1  C   UNL     1       8.339  30.483  59.096  1.00  0.00     0.161 A 
HETATM    2  N   UNL     1       8.877  30.270  60.314  1.00  0.00    -0.131 NA
HETATM    3  N   UNL     1       8.381  30.882  61.431  1.00  0.00    -0.147 NA
HETATM    4  C   UNL     1       7.309  31.697  61.344  1.00  0.00     0.100 A 
HETATM    5  C   UNL     1       6.651  31.915  60.119  1.00  0.00     0.009 A 
HETATM    6  C   UNL     1       7.177  31.285  58.962  1.00  0.00     0.024 A 
HETATM    7  C   UNL     1       5.484  32.712  59.990  1.00  0.00     0.015 A 
HETATM    8  C   UNL     1       4.853  32.901  58.760  1.00  0.00     0.001 A 
HETATM    9  C   UNL     1       5.362  32.286  57.629  1.00  0.00     0.001 A 
HETATM   10  C   UNL     1       6.500  31.485  57.729  1.00  0.00     0.016 A 
ENDROOT
BRANCH   1  11
HETATM   11  N   UNL     1       8.881  29.835  57.949  1.00  0.00    -0.339 N 
HETATM   12  H   UNL     1       9.834  29.554  58.158  1.00  0.00     0.167 HD
BRANCH  11  13
HETATM   13  C   UNL     1       8.306  28.830  57.136  1.00  0.00     0.033 A 
HETATM   14  C   UNL     1       7.717  27.731  57.776  1.00  0.00     0.032 A 
HETATM   15  C   UNL     1       7.084  26.722  57.044  1.00  0.00     0.039 A 
HETATM   16  C   UNL     1       7.012  26.794  55.654  1.00  0.00     0.069 A 
HETATM   17  C   UNL     1       7.590  27.883  55.005  1.00  0.00     0.039 A 
HETATM   18  C   UNL     1       8.226  28.893  55.742  1.00  0.00     0.032 A 
BRANCH  16  19
HETATM   19  O   UNL     1       6.354  25.756  55.055  1.00  0.00    -0.342 OA
BRANCH  19  20
HETATM   20  C   UNL     1       7.021  25.116  53.968  1.00  0.00     0.278 C 
BRANCH  20  21
HETATM   21  C   UNL     1       7.249  23.632  54.253  1.00  0.00     0.241 C 
HETATM   22  N   UNL     1       7.551  22.874  53.142  1.00  0.00    -0.364 N 
HETATM   23  C   UNL     1       7.899  21.482  53.242  1.00  0.00     0.149 C 
HETATM   24  H   UNL     1       7.748  23.384  52.286  1.00  0.00     0.161 HD
HETATM   25  O   UNL     1       7.155  23.163  55.385  1.00  0.00    -0.271 OA
ENDBRANCH  20  21
ENDBRANCH  19  20
ENDBRANCH  16  19
ENDBRANCH  11  13
ENDBRANCH   1  11
BRANCH   4  26
HETATM   26  C   UNL     1       6.927  32.304  62.628  1.00  0.00    -0.005 A 
HETATM   27  C   UNL     1       5.581  32.372  63.037  1.00  0.00     0.016 A 
HETATM   28  C   UNL     1       5.225  32.967  64.250  1.00  0.00     0.037 A 
HETATM   29  C   UNL     1       6.215  33.511  65.061  1.00  0.00     0.065 A 
HETATM   30  C   UNL     1       7.549  33.471  64.677  1.00  0.00     0.037 A 
HETATM   31  C   UNL     1       7.902  32.875  63.464  1.00  0.00     0.016 A 
BRANCH  29  32
HETATM   32  O   UNL     1       5.914  34.105  66.250  1.00  0.00    -0.361 OA
HETATM   33  H   UNL     1       6.445  33.691  66.949  1.00  0.00     0.217 HD
ENDBRANCH  29  32
ENDBRANCH   4  26
TORSDOF 7
ENDMDL
