REMARK  3 active torsions:
REMARK  status: ('A' for Active; 'I' for Inactive)
REMARK    1  A    between atoms: C_4  and  C_5 
REMARK    2  A    between atoms: C_9  and  O_10 
REMARK    3  A    between atoms: O_10  and  C_11 
ROOT
HETATM    1  C   1WU A 501      -0.296  -0.925  -0.053  0.00  0.00     0.117 C 
HETATM    2  C   1WU A 501      -0.062  -2.335   0.471  0.00  0.00     0.057 C 
HETATM    3  C   1WU A 501       0.836  -0.373  -1.252  0.00  0.00     0.030 C 
HETATM    4  C   1WU A 501       1.304  -1.427  -2.247  0.00  0.00     0.007 C 
HETATM    5  C   1WU A 501       0.778  -2.792  -1.825  0.00  0.00     0.058 C 
HETATM    6  C   1WU A 501       1.598  -3.883  -2.502  0.00  0.00     0.178 C 
HETATM    7  O   1WU A 501       1.667  -4.901  -1.541  0.00  0.00    -0.235 OA
HETATM    8  C   1WU A 501       1.043  -3.001  -0.340  0.00  0.00     0.143 C 
HETATM    9  O   1WU A 501       0.472  -5.139   0.819  0.00  0.00    -0.062 OA
HETATM   10  N   1WU A 501       0.968  -4.427  -0.170  0.00  0.00    -0.113 N 
ENDROOT
BRANCH   1  11
HETATM   11  O   1WU A 501      -0.234  -0.044   1.036  0.00  0.00    -0.356 OA
BRANCH  11  12
HETATM   12  C   1WU A 501      -0.452   1.244   0.529  0.00  0.00     0.148 C 
HETATM   13  C   1WU A 501      -1.705   1.826   1.177  0.00  0.00     0.188 C 
HETATM   14  F   1WU A 501      -2.808   1.073   0.782  0.00  0.00    -0.235 F 
HETATM   15  C   1WU A 501      -1.927   3.280   0.769  0.00  0.00     0.040 C 
HETATM   16  C   1WU A 501      -0.698   4.138   1.053  0.00  0.00     0.042 C 
HETATM   17  C   1WU A 501       0.556   3.556   0.404  0.00  0.00     0.005 C 
HETATM   18  C   1WU A 501       0.778   2.102   0.812  0.00  0.00     0.033 C 
BRANCH  16  19
HETATM   19  C   1WU A 501      -0.935   5.537   0.501  0.00  0.00     0.338 C 
HETATM   20  N   1WU A 501      -0.883   6.492   1.576  0.00  0.00     0.618 N 
ENDBRANCH  16  19
ENDBRANCH  11  12
ENDBRANCH   1  11
TORSDOF 3
