MODEL 1
REMARK VINA RESULT:      -7.3      0.000      0.000
REMARK  3 active torsions:
REMARK  status: ('A' for Active; 'I' for Inactive)
REMARK    1  A    between atoms: C_4  and  C_5 
REMARK    2  A    between atoms: C_9  and  O_10 
REMARK    3  A    between atoms: O_10  and  C_11 
ROOT
HETATM    1  C   1WU A 501      -5.024  -1.014 -33.093  0.00  0.00     0.117 C 
HETATM    2  C   1WU A 501      -4.206  -2.295 -33.180  0.00  0.00     0.057 C 
HETATM    3  C   1WU A 501      -6.127  -0.737 -34.409  0.00  0.00     0.030 C 
HETATM    4  C   1WU A 501      -6.816  -1.979 -34.960  0.00  0.00     0.007 C 
HETATM    5  C   1WU A 501      -6.218  -3.220 -34.312  0.00  0.00     0.058 C 
HETATM    6  C   1WU A 501      -6.540  -4.441 -35.164  0.00  0.00     0.178 C 
HETATM    7  O   1WU A 501      -5.400  -5.247 -35.046  0.00  0.00    -0.235 OA
HETATM    8  C   1WU A 501      -4.699  -3.133 -34.354  0.00  0.00     0.143 C 
HETATM    9  O   1WU A 501      -3.242  -4.983 -33.519  0.00  0.00    -0.062 OA
HETATM   10  N   1WU A 501      -4.267  -4.494 -34.185  0.00  0.00    -0.113 N 
ENDROOT
BRANCH   1  11
HETATM   11  O   1WU A 501      -4.131   0.066 -33.045  0.00  0.00    -0.356 OA
BRANCH  11  12
HETATM   12  C   1WU A 501      -4.532   0.876 -31.974  0.00  0.00     0.148 C 
HETATM   13  C   1WU A 501      -4.944   2.243 -32.514  0.00  0.00     0.188 C 
HETATM   14  F   1WU A 501      -3.826   2.867 -33.062  0.00  0.00    -0.235 F 
HETATM   15  C   1WU A 501      -5.518   3.133 -31.415  0.00  0.00     0.040 C 
HETATM   16  C   1WU A 501      -6.667   2.449 -30.680  0.00  0.00     0.042 C 
HETATM   17  C   1WU A 501      -6.254   1.082 -30.139  0.00  0.00     0.005 C 
HETATM   18  C   1WU A 501      -5.680   0.192 -31.238  0.00  0.00     0.033 C 
BRANCH  16  19
HETATM   19  C   1WU A 501      -7.101   3.329 -29.516  0.00  0.00     0.338 C 
HETATM   20  N   1WU A 501      -6.191   4.436 -29.386  0.00  0.00     0.618 N 
ENDBRANCH  16  19
ENDBRANCH  11  12
ENDBRANCH   1  11
TORSDOF 3
ENDMDL
MODEL 2
REMARK VINA RESULT:      -7.2      2.671      7.309
REMARK  3 active torsions:
REMARK  status: ('A' for Active; 'I' for Inactive)
REMARK    1  A    between atoms: C_4  and  C_5 
REMARK    2  A    between atoms: C_9  and  O_10 
REMARK    3  A    between atoms: O_10  and  C_11 
ROOT
HETATM    1  C   1WU A 501      -5.640   1.284 -32.227  0.00  0.00     0.117 C 
HETATM    2  C   1WU A 501      -7.000   1.761 -31.736  0.00  0.00     0.057 C 
HETATM    3  C   1WU A 501      -4.384   2.487 -32.239  0.00  0.00     0.030 C 
HETATM    4  C   1WU A 501      -4.409   3.474 -31.079  0.00  0.00     0.007 C 
HETATM    5  C   1WU A 501      -5.675   3.262 -30.260  0.00  0.00     0.058 C 
HETATM    6  C   1WU A 501      -5.948   4.502 -29.418  0.00  0.00     0.178 C 
HETATM    7  O   1WU A 501      -7.346   4.602 -29.406  0.00  0.00    -0.235 OA
HETATM    8  C   1WU A 501      -6.876   3.179 -31.194  0.00  0.00     0.143 C 
HETATM    9  O   1WU A 501      -9.210   2.952 -30.333  0.00  0.00    -0.062 OA
HETATM   10  N   1WU A 501      -7.999   3.467 -30.343  0.00  0.00    -0.113 N 
ENDROOT
BRANCH   1  11
HETATM   11  O   1WU A 501      -5.796   0.811 -33.537  0.00  0.00    -0.356 OA
BRANCH  11  12
HETATM   12  C   1WU A 501      -5.825  -0.588 -33.463  0.00  0.00     0.148 C 
HETATM   13  C   1WU A 501      -6.843  -1.117 -34.468  0.00  0.00     0.188 C 
HETATM   14  F   1WU A 501      -8.114  -0.692 -34.088  0.00  0.00    -0.235 F 
HETATM   15  C   1WU A 501      -6.831  -2.641 -34.535  0.00  0.00     0.040 C 
HETATM   16  C   1WU A 501      -5.432  -3.181 -34.817  0.00  0.00     0.042 C 
HETATM   17  C   1WU A 501      -4.412  -2.652 -33.810  0.00  0.00     0.005 C 
HETATM   18  C   1WU A 501      -4.425  -1.127 -33.744  0.00  0.00     0.033 C 
BRANCH  16  19
HETATM   19  C   1WU A 501      -5.463  -4.701 -34.735  0.00  0.00     0.338 C 
HETATM   20  N   1WU A 501      -4.336  -5.163 -33.970  0.00  0.00     0.618 N 
ENDBRANCH  16  19
ENDBRANCH  11  12
ENDBRANCH   1  11
TORSDOF 3
ENDMDL
MODEL 3
REMARK VINA RESULT:      -7.2      2.826      3.689
REMARK  3 active torsions:
REMARK  status: ('A' for Active; 'I' for Inactive)
REMARK    1  A    between atoms: C_4  and  C_5 
REMARK    2  A    between atoms: C_9  and  O_10 
REMARK    3  A    between atoms: O_10  and  C_11 
ROOT
HETATM    1  C   1WU A 501      -4.142  -0.867 -33.525  0.00  0.00     0.117 C 
HETATM    2  C   1WU A 501      -5.119  -1.738 -34.302  0.00  0.00     0.057 C 
HETATM    3  C   1WU A 501      -3.457  -1.594 -32.101  0.00  0.00     0.030 C 
HETATM    4  C   1WU A 501      -3.145  -3.081 -32.210  0.00  0.00     0.007 C 
HETATM    5  C   1WU A 501      -3.688  -3.619 -33.527  0.00  0.00     0.058 C 
HETATM    6  C   1WU A 501      -3.811  -5.135 -33.443  0.00  0.00     0.178 C 
HETATM    7  O   1WU A 501      -4.964  -5.423 -34.186  0.00  0.00    -0.235 OA
HETATM    8  C   1WU A 501      -5.123  -3.144 -33.715  0.00  0.00     0.143 C 
HETATM    9  O   1WU A 501      -6.506  -3.852 -35.672  0.00  0.00    -0.062 OA
HETATM   10  N   1WU A 501      -5.670  -4.062 -34.677  0.00  0.00    -0.113 N 
ENDROOT
BRANCH   1  11
HETATM   11  O   1WU A 501      -4.819   0.296 -33.131  0.00  0.00    -0.356 OA
BRANCH  11  12
HETATM   12  C   1WU A 501      -6.183   0.068 -33.358  0.00  0.00     0.148 C 
HETATM   13  C   1WU A 501      -6.945   0.282 -32.053  0.00  0.00     0.188 C 
HETATM   14  F   1WU A 501      -6.547  -0.687 -31.135  0.00  0.00    -0.235 F 
HETATM   15  C   1WU A 501      -8.454   0.179 -32.258  0.00  0.00     0.040 C 
HETATM   16  C   1WU A 501      -8.938   1.125 -33.352  0.00  0.00     0.042 C 
HETATM   17  C   1WU A 501      -8.176   0.911 -34.658  0.00  0.00     0.005 C 
HETATM   18  C   1WU A 501      -6.667   1.013 -34.453  0.00  0.00     0.033 C 
BRANCH  16  19
HETATM   19  C   1WU A 501     -10.420   0.876 -33.599  0.00  0.00     0.338 C 
HETATM   20  N   1WU A 501     -10.932   1.877 -34.497  0.00  0.00     0.618 N 
ENDBRANCH  16  19
ENDBRANCH  11  12
ENDBRANCH   1  11
TORSDOF 3
ENDMDL
MODEL 4
REMARK VINA RESULT:      -7.1      5.680      7.200
REMARK  3 active torsions:
REMARK  status: ('A' for Active; 'I' for Inactive)
REMARK    1  A    between atoms: C_4  and  C_5 
REMARK    2  A    between atoms: C_9  and  O_10 
REMARK    3  A    between atoms: O_10  and  C_11 
ROOT
HETATM    1  C   1WU A 501     -10.068   2.212 -33.567  0.00  0.00     0.117 C 
HETATM    2  C   1WU A 501     -10.923   0.953 -33.599  0.00  0.00     0.057 C 
HETATM    3  C   1WU A 501     -10.872   3.677 -34.047  0.00  0.00     0.030 C 
HETATM    4  C   1WU A 501     -12.326   3.801 -33.612  0.00  0.00     0.007 C 
HETATM    5  C   1WU A 501     -12.783   2.488 -32.990  0.00  0.00     0.058 C 
HETATM    6  C   1WU A 501     -14.305   2.429 -32.989  0.00  0.00     0.178 C 
HETATM    7  O   1WU A 501     -14.592   1.078 -33.224  0.00  0.00    -0.235 OA
HETATM    8  C   1WU A 501     -12.371   1.330 -33.889  0.00  0.00     0.143 C 
HETATM    9  O   1WU A 501     -12.988  -1.034 -33.370  0.00  0.00    -0.062 OA
HETATM   10  N   1WU A 501     -13.235   0.253 -33.488  0.00  0.00    -0.113 N 
ENDROOT
BRANCH   1  11
HETATM   11  O   1WU A 501      -8.979   2.017 -34.428  0.00  0.00    -0.356 OA
BRANCH  11  12
HETATM   12  C   1WU A 501      -8.172   1.030 -33.844  0.00  0.00     0.148 C 
HETATM   13  C   1WU A 501      -7.335   0.366 -34.934  0.00  0.00     0.188 C 
HETATM   14  F   1WU A 501      -8.185  -0.308 -35.807  0.00  0.00    -0.235 F 
HETATM   15  C   1WU A 501      -6.335  -0.628 -34.349  0.00  0.00     0.040 C 
HETATM   16  C   1WU A 501      -5.457   0.019 -33.282  0.00  0.00     0.042 C 
HETATM   17  C   1WU A 501      -6.295   0.683 -32.191  0.00  0.00     0.005 C 
HETATM   18  C   1WU A 501      -7.294   1.677 -32.776  0.00  0.00     0.033 C 
BRANCH  16  19
HETATM   19  C   1WU A 501      -4.582  -1.053 -32.648  0.00  0.00     0.338 C 
HETATM   20  N   1WU A 501      -3.217  -0.599 -32.611  0.00  0.00     0.618 N 
ENDBRANCH  16  19
ENDBRANCH  11  12
ENDBRANCH   1  11
TORSDOF 3
ENDMDL
MODEL 5
REMARK VINA RESULT:      -7.1      3.182      6.893
REMARK  3 active torsions:
REMARK  status: ('A' for Active; 'I' for Inactive)
REMARK    1  A    between atoms: C_4  and  C_5 
REMARK    2  A    between atoms: C_9  and  O_10 
REMARK    3  A    between atoms: O_10  and  C_11 
ROOT
HETATM    1  C   1WU A 501      -5.433   1.736 -32.798  0.00  0.00     0.117 C 
HETATM    2  C   1WU A 501      -4.214   2.327 -32.105  0.00  0.00     0.057 C 
HETATM    3  C   1WU A 501      -6.567   2.891 -33.435  0.00  0.00     0.030 C 
HETATM    4  C   1WU A 501      -5.954   4.149 -34.036  0.00  0.00     0.007 C 
HETATM    5  C   1WU A 501      -4.456   4.162 -33.766  0.00  0.00     0.058 C 
HETATM    6  C   1WU A 501      -3.924   5.581 -33.927  0.00  0.00     0.178 C 
HETATM    7  O   1WU A 501      -2.928   5.683 -32.946  0.00  0.00    -0.235 OA
HETATM    8  C   1WU A 501      -4.202   3.839 -32.300  0.00  0.00     0.143 C 
HETATM    9  O   1WU A 501      -1.904   3.850 -31.320  0.00  0.00    -0.062 OA
HETATM   10  N   1WU A 501      -2.877   4.342 -32.057  0.00  0.00    -0.113 N 
ENDROOT
BRANCH   1  11
HETATM   11  O   1WU A 501      -6.111   0.934 -31.869  0.00  0.00    -0.356 OA
BRANCH  11  12
HETATM   12  C   1WU A 501      -6.046  -0.382 -32.345  0.00  0.00     0.148 C 
HETATM   13  C   1WU A 501      -7.107  -0.571 -33.425  0.00  0.00     0.188 C 
HETATM   14  F   1WU A 501      -8.368  -0.441 -32.846  0.00  0.00    -0.235 F 
HETATM   15  C   1WU A 501      -7.005  -1.945 -34.082  0.00  0.00     0.040 C 
HETATM   16  C   1WU A 501      -5.602  -2.207 -34.622  0.00  0.00     0.042 C 
HETATM   17  C   1WU A 501      -4.539  -2.019 -33.541  0.00  0.00     0.005 C 
HETATM   18  C   1WU A 501      -4.642  -0.645 -32.884  0.00  0.00     0.033 C 
BRANCH  16  19
HETATM   19  C   1WU A 501      -5.531  -3.638 -35.138  0.00  0.00     0.338 C 
HETATM   20  N   1WU A 501      -6.824  -4.258 -35.012  0.00  0.00     0.618 N 
ENDBRANCH  16  19
ENDBRANCH  11  12
ENDBRANCH   1  11
TORSDOF 3
ENDMDL
MODEL 6
REMARK VINA RESULT:      -7.1      3.400      7.152
REMARK  3 active torsions:
REMARK  status: ('A' for Active; 'I' for Inactive)
REMARK    1  A    between atoms: C_4  and  C_5 
REMARK    2  A    between atoms: C_9  and  O_10 
REMARK    3  A    between atoms: O_10  and  C_11 
ROOT
HETATM    1  C   1WU A 501      -7.121   0.912 -32.346  0.00  0.00     0.117 C 
HETATM    2  C   1WU A 501      -8.493   1.148 -32.963  0.00  0.00     0.057 C 
HETATM    3  C   1WU A 501      -6.480   2.233 -31.415  0.00  0.00     0.030 C 
HETATM    4  C   1WU A 501      -7.499   3.012 -30.593  0.00  0.00     0.007 C 
HETATM    5  C   1WU A 501      -8.902   2.531 -30.936  0.00  0.00     0.058 C 
HETATM    6  C   1WU A 501      -9.918   3.581 -30.505  0.00  0.00     0.178 C 
HETATM    7  O   1WU A 501     -10.909   3.521 -31.495  0.00  0.00    -0.235 OA
HETATM    8  C   1WU A 501      -9.060   2.466 -32.450  0.00  0.00     0.143 C 
HETATM    9  O   1WU A 501     -11.225   1.844 -33.530  0.00  0.00    -0.062 OA
HETATM   10  N   1WU A 501     -10.484   2.486 -32.652  0.00  0.00    -0.113 N 
ENDROOT
BRANCH   1  11
HETATM   11  O   1WU A 501      -6.221   0.642 -33.386  0.00  0.00    -0.356 OA
BRANCH  11  12
HETATM   12  C   1WU A 501      -5.890  -0.717 -33.294  0.00  0.00     0.148 C 
HETATM   13  C   1WU A 501      -6.096  -1.371 -34.657  0.00  0.00     0.188 C 
HETATM   14  F   1WU A 501      -7.452  -1.333 -34.974  0.00  0.00    -0.235 F 
HETATM   15  C   1WU A 501      -5.628  -2.823 -34.662  0.00  0.00     0.040 C 
HETATM   16  C   1WU A 501      -4.182  -2.950 -34.192  0.00  0.00     0.042 C 
HETATM   17  C   1WU A 501      -3.975  -2.295 -32.827  0.00  0.00     0.005 C 
HETATM   18  C   1WU A 501      -4.444  -0.843 -32.823  0.00  0.00     0.033 C 
BRANCH  16  19
HETATM   19  C   1WU A 501      -3.823  -4.426 -34.091  0.00  0.00     0.338 C 
HETATM   20  N   1WU A 501      -4.984  -5.223 -34.386  0.00  0.00     0.618 N 
ENDBRANCH  16  19
ENDBRANCH  11  12
ENDBRANCH   1  11
TORSDOF 3
ENDMDL
MODEL 7
REMARK VINA RESULT:      -7.0      5.000      7.175
REMARK  3 active torsions:
REMARK  status: ('A' for Active; 'I' for Inactive)
REMARK    1  A    between atoms: C_4  and  C_5 
REMARK    2  A    between atoms: C_9  and  O_10 
REMARK    3  A    between atoms: O_10  and  C_11 
ROOT
HETATM    1  C   1WU A 501      -9.878   0.966 -33.812  0.00  0.00     0.117 C 
HETATM    2  C   1WU A 501      -9.438   2.413 -33.989  0.00  0.00     0.057 C 
HETATM    3  C   1WU A 501     -11.593   0.717 -33.660  0.00  0.00     0.030 C 
HETATM    4  C   1WU A 501     -12.466   1.620 -34.521  0.00  0.00     0.007 C 
HETATM    5  C   1WU A 501     -11.597   2.671 -35.197  0.00  0.00     0.058 C 
HETATM    6  C   1WU A 501     -12.470   3.831 -35.658  0.00  0.00     0.178 C 
HETATM    7  O   1WU A 501     -11.662   4.961 -35.466  0.00  0.00    -0.235 OA
HETATM    8  C   1WU A 501     -10.665   3.298 -34.168  0.00  0.00     0.143 C 
HETATM    9  O   1WU A 501      -9.112   5.166 -34.752  0.00  0.00    -0.062 OA
HETATM   10  N   1WU A 501     -10.272   4.545 -34.768  0.00  0.00    -0.113 N 
ENDROOT
BRANCH   1  11
HETATM   11  O   1WU A 501      -9.266   0.467 -32.653  0.00  0.00    -0.356 OA
BRANCH  11  12
HETATM   12  C   1WU A 501      -7.892   0.398 -32.918  0.00  0.00     0.148 C 
HETATM   13  C   1WU A 501      -7.135   0.322 -31.595  0.00  0.00     0.188 C 
HETATM   14  F   1WU A 501      -7.326   1.513 -30.898  0.00  0.00    -0.235 F 
HETATM   15  C   1WU A 501      -5.639   0.111 -31.813  0.00  0.00     0.040 C 
HETATM   16  C   1WU A 501      -5.365  -1.109 -32.687  0.00  0.00     0.042 C 
HETATM   17  C   1WU A 501      -6.121  -1.033 -34.011  0.00  0.00     0.005 C 
HETATM   18  C   1WU A 501      -7.617  -0.822 -33.794  0.00  0.00     0.033 C 
BRANCH  16  19
HETATM   19  C   1WU A 501      -3.872  -1.183 -32.975  0.00  0.00     0.338 C 
HETATM   20  N   1WU A 501      -3.265  -2.163 -32.113  0.00  0.00     0.618 N 
ENDBRANCH  16  19
ENDBRANCH  11  12
ENDBRANCH   1  11
TORSDOF 3
ENDMDL
MODEL 8
REMARK VINA RESULT:      -6.9      5.093      5.938
REMARK  3 active torsions:
REMARK  status: ('A' for Active; 'I' for Inactive)
REMARK    1  A    between atoms: C_4  and  C_5 
REMARK    2  A    between atoms: C_9  and  O_10 
REMARK    3  A    between atoms: O_10  and  C_11 
ROOT
HETATM    1  C   1WU A 501      -8.829   0.571 -33.995  0.00  0.00     0.117 C 
HETATM    2  C   1WU A 501      -8.122   0.727 -32.657  0.00  0.00     0.057 C 
HETATM    3  C   1WU A 501      -7.810   0.139 -35.337  0.00  0.00     0.030 C 
HETATM    4  C   1WU A 501      -6.682  -0.833 -35.017  0.00  0.00     0.007 C 
HETATM    5  C   1WU A 501      -6.619  -1.060 -33.513  0.00  0.00     0.058 C 
HETATM    6  C   1WU A 501      -5.253  -1.623 -33.142  0.00  0.00     0.178 C 
HETATM    7  O   1WU A 501      -4.974  -1.044 -31.897  0.00  0.00    -0.235 OA
HETATM    8  C   1WU A 501      -6.671   0.281 -32.794  0.00  0.00     0.143 C 
HETATM    9  O   1WU A 501      -6.481   0.461 -30.310  0.00  0.00    -0.062 OA
HETATM   10  N   1WU A 501      -6.131  -0.000 -31.491  0.00  0.00    -0.113 N 
ENDROOT
BRANCH   1  11
HETATM   11  O   1WU A 501      -9.449   1.791 -34.301  0.00  0.00    -0.356 OA
BRANCH  11  12
HETATM   12  C   1WU A 501     -10.601   1.871 -33.506  0.00  0.00     0.148 C 
HETATM   13  C   1WU A 501     -10.825   3.325 -33.103  0.00  0.00     0.188 C 
HETATM   14  F   1WU A 501      -9.773   3.734 -32.287  0.00  0.00    -0.235 F 
HETATM   15  C   1WU A 501     -12.138   3.505 -32.346  0.00  0.00     0.040 C 
HETATM   16  C   1WU A 501     -13.322   2.951 -33.133  0.00  0.00     0.042 C 
HETATM   17  C   1WU A 501     -13.098   1.495 -33.535  0.00  0.00     0.005 C 
HETATM   18  C   1WU A 501     -11.785   1.316 -34.293  0.00  0.00     0.033 C 
BRANCH  16  19
HETATM   19  C   1WU A 501     -14.572   3.037 -32.268  0.00  0.00     0.338 C 
HETATM   20  N   1WU A 501     -15.339   1.828 -32.412  0.00  0.00     0.618 N 
ENDBRANCH  16  19
ENDBRANCH  11  12
ENDBRANCH   1  11
TORSDOF 3
ENDMDL
MODEL 9
REMARK VINA RESULT:      -6.8      4.527      6.782
REMARK  3 active torsions:
REMARK  status: ('A' for Active; 'I' for Inactive)
REMARK    1  A    between atoms: C_4  and  C_5 
REMARK    2  A    between atoms: C_9  and  O_10 
REMARK    3  A    between atoms: O_10  and  C_11 
ROOT
HETATM    1  C   1WU A 501      -8.305   1.300 -33.372  0.00  0.00     0.117 C 
HETATM    2  C   1WU A 501      -9.631   0.564 -33.505  0.00  0.00     0.057 C 
HETATM    3  C   1WU A 501      -8.351   3.000 -33.734  0.00  0.00     0.030 C 
HETATM    4  C   1WU A 501      -9.612   3.731 -33.290  0.00  0.00     0.007 C 
HETATM    5  C   1WU A 501     -10.629   2.722 -32.775  0.00  0.00     0.058 C 
HETATM    6  C   1WU A 501     -12.016   3.352 -32.779  0.00  0.00     0.178 C 
HETATM    7  O   1WU A 501     -12.868   2.294 -33.121  0.00  0.00    -0.235 OA
HETATM    8  C   1WU A 501     -10.746   1.570 -33.764  0.00  0.00     0.143 C 
HETATM    9  O   1WU A 501     -12.374  -0.297 -33.435  0.00  0.00    -0.062 OA
HETATM   10  N   1WU A 501     -12.014   0.969 -33.450  0.00  0.00    -0.113 N 
ENDROOT
BRANCH   1  11
HETATM   11  O   1WU A 501      -7.388   0.698 -34.245  0.00  0.00    -0.356 OA
BRANCH  11  12
HETATM   12  C   1WU A 501      -6.651  -0.222 -33.489  0.00  0.00     0.148 C 
HETATM   13  C   1WU A 501      -5.921  -1.170 -34.436  0.00  0.00     0.188 C 
HETATM   14  F   1WU A 501      -6.862  -1.923 -35.134  0.00  0.00    -0.235 F 
HETATM   15  C   1WU A 501      -4.992  -2.117 -33.681  0.00  0.00     0.040 C 
HETATM   16  C   1WU A 501      -4.017  -1.356 -32.788  0.00  0.00     0.042 C 
HETATM   17  C   1WU A 501      -4.748  -0.408 -31.839  0.00  0.00     0.005 C 
HETATM   18  C   1WU A 501      -5.676   0.539 -32.595  0.00  0.00     0.033 C 
BRANCH  16  19
HETATM   19  C   1WU A 501      -3.217  -2.357 -31.966  0.00  0.00     0.338 C 
HETATM   20  N   1WU A 501      -3.319  -3.661 -32.565  0.00  0.00     0.618 N 
ENDBRANCH  16  19
ENDBRANCH  11  12
ENDBRANCH   1  11
TORSDOF 3
ENDMDL
MODEL 10
REMARK VINA RESULT:      -6.8      2.910      4.033
REMARK  3 active torsions:
REMARK  status: ('A' for Active; 'I' for Inactive)
REMARK    1  A    between atoms: C_4  and  C_5 
REMARK    2  A    between atoms: C_9  and  O_10 
REMARK    3  A    between atoms: O_10  and  C_11 
ROOT
HETATM    1  C   1WU A 501      -4.295   0.910 -32.430  0.00  0.00     0.117 C 
HETATM    2  C   1WU A 501      -5.467   0.597 -33.350  0.00  0.00     0.057 C 
HETATM    3  C   1WU A 501      -3.637  -0.446 -31.564  0.00  0.00     0.030 C 
HETATM    4  C   1WU A 501      -3.598  -1.760 -32.334  0.00  0.00     0.007 C 
HETATM    5  C   1WU A 501      -4.328  -1.593 -33.659  0.00  0.00     0.058 C 
HETATM    6  C   1WU A 501      -4.706  -2.964 -34.207  0.00  0.00     0.178 C 
HETATM    7  O   1WU A 501      -5.947  -2.753 -34.823  0.00  0.00    -0.235 OA
HETATM    8  C   1WU A 501      -5.669  -0.912 -33.418  0.00  0.00     0.143 C 
HETATM    9  O   1WU A 501      -7.304  -0.513 -35.264  0.00  0.00    -0.062 OA
HETATM   10  N   1WU A 501      -6.442  -1.239 -34.585  0.00  0.00    -0.113 N 
ENDROOT
BRANCH   1  11
HETATM   11  O   1WU A 501      -4.726   1.855 -31.488  0.00  0.00    -0.356 OA
BRANCH  11  12
HETATM   12  C   1WU A 501      -4.509   3.119 -32.052  0.00  0.00     0.148 C 
HETATM   13  C   1WU A 501      -4.811   4.187 -31.005  0.00  0.00     0.188 C 
HETATM   14  F   1WU A 501      -6.167   4.142 -30.692  0.00  0.00    -0.235 F 
HETATM   15  C   1WU A 501      -4.466   5.586 -31.510  0.00  0.00     0.040 C 
HETATM   16  C   1WU A 501      -3.023   5.669 -31.996  0.00  0.00     0.042 C 
HETATM   17  C   1WU A 501      -2.720   4.600 -33.045  0.00  0.00     0.005 C 
HETATM   18  C   1WU A 501      -3.065   3.202 -32.539  0.00  0.00     0.033 C 
BRANCH  16  19
HETATM   19  C   1WU A 501      -2.787   7.042 -32.609  0.00  0.00     0.338 C 
HETATM   20  N   1WU A 501      -2.232   6.890 -33.928  0.00  0.00     0.618 N 
ENDBRANCH  16  19
ENDBRANCH  11  12
ENDBRANCH   1  11
TORSDOF 3
ENDMDL
