MODEL 1
REMARK VINA RESULT:      -7.6      0.000      0.000
REMARK  3 active torsions:
REMARK  status: ('A' for Active; 'I' for Inactive)
REMARK    1  A    between atoms: C_4  and  C_5 
REMARK    2  A    between atoms: C_9  and  O_10 
REMARK    3  A    between atoms: O_10  and  C_11 
ROOT
HETATM    1  C   1WU A 501       6.946  27.193  56.677  0.00  0.00     0.117 C 
HETATM    2  C   1WU A 501       8.065  28.008  57.311  0.00  0.00     0.057 C 
HETATM    3  C   1WU A 501       5.332  27.674  57.107  0.00  0.00     0.030 C 
HETATM    4  C   1WU A 501       5.113  29.174  57.261  0.00  0.00     0.007 C 
HETATM    5  C   1WU A 501       6.451  29.894  57.164  0.00  0.00     0.058 C 
HETATM    6  C   1WU A 501       6.323  31.286  57.772  0.00  0.00     0.178 C 
HETATM    7  O   1WU A 501       7.564  31.503  58.385  0.00  0.00    -0.235 OA
HETATM    8  C   1WU A 501       7.468  29.196  58.056  0.00  0.00     0.143 C 
HETATM    9  O   1WU A 501       9.794  30.062  58.341  0.00  0.00    -0.062 OA
HETATM   10  N   1WU A 501       8.487  30.189  58.266  0.00  0.00    -0.113 N 
ENDROOT
BRANCH   1  11
HETATM   11  O   1WU A 501       7.114  25.856  57.063  0.00  0.00    -0.356 OA
BRANCH  11  12
HETATM   12  C   1WU A 501       7.596  25.167  55.942  0.00  0.00     0.148 C 
HETATM   13  C   1WU A 501       8.439  23.985  56.411  0.00  0.00     0.188 C 
HETATM   14  F   1WU A 501       9.567  24.469  57.070  0.00  0.00    -0.235 F 
HETATM   15  C   1WU A 501       8.887  23.112  55.241  0.00  0.00     0.040 C 
HETATM   16  C   1WU A 501       7.702  22.656  54.394  0.00  0.00     0.042 C 
HETATM   17  C   1WU A 501       6.859  23.840  53.924  0.00  0.00     0.005 C 
HETATM   18  C   1WU A 501       6.412  24.712  55.094  0.00  0.00     0.033 C 
BRANCH  16  19
HETATM   19  C   1WU A 501       8.226  21.909  53.176  0.00  0.00     0.338 C 
HETATM   20  N   1WU A 501       7.738  20.556  53.196  0.00  0.00     0.618 N 
ENDBRANCH  16  19
ENDBRANCH  11  12
ENDBRANCH   1  11
TORSDOF 3
ENDMDL
MODEL 2
REMARK VINA RESULT:      -7.5      2.778      7.246
REMARK  3 active torsions:
REMARK  status: ('A' for Active; 'I' for Inactive)
REMARK    1  A    between atoms: C_4  and  C_5 
REMARK    2  A    between atoms: C_9  and  O_10 
REMARK    3  A    between atoms: O_10  and  C_11 
ROOT
HETATM    1  C   1WU A 501       7.299  24.520  54.524  0.00  0.00     0.117 C 
HETATM    2  C   1WU A 501       7.724  23.751  55.767  0.00  0.00     0.057 C 
HETATM    3  C   1WU A 501       7.913  23.909  53.017  0.00  0.00     0.030 C 
HETATM    4  C   1WU A 501       8.003  22.392  52.911  0.00  0.00     0.007 C 
HETATM    5  C   1WU A 501       7.682  21.770  54.263  0.00  0.00     0.058 C 
HETATM    6  C   1WU A 501       8.215  20.343  54.305  0.00  0.00     0.178 C 
HETATM    7  O   1WU A 501       8.640  20.178  55.630  0.00  0.00    -0.235 OA
HETATM    8  C   1WU A 501       8.469  22.488  55.352  0.00  0.00     0.143 C 
HETATM    9  O   1WU A 501       8.383  21.767  57.742  0.00  0.00    -0.062 OA
HETATM   10  N   1WU A 501       8.479  21.556  56.447  0.00  0.00    -0.113 N 
ENDROOT
BRANCH   1  11
HETATM   11  O   1WU A 501       7.740  25.844  54.664  0.00  0.00    -0.356 OA
BRANCH  11  12
HETATM   12  C   1WU A 501       6.858  26.474  55.552  0.00  0.00     0.148 C 
HETATM   13  C   1WU A 501       7.638  27.473  56.400  0.00  0.00     0.188 C 
HETATM   14  F   1WU A 501       8.543  26.777  57.198  0.00  0.00    -0.235 F 
HETATM   15  C   1WU A 501       6.715  28.292  57.299  0.00  0.00     0.040 C 
HETATM   16  C   1WU A 501       5.612  28.977  56.498  0.00  0.00     0.042 C 
HETATM   17  C   1WU A 501       4.830  27.976  55.649  0.00  0.00     0.005 C 
HETATM   18  C   1WU A 501       5.754  27.158  54.750  0.00  0.00     0.033 C 
BRANCH  16  19
HETATM   19  C   1WU A 501       4.653  29.660  57.463  0.00  0.00     0.338 C 
HETATM   20  N   1WU A 501       3.494  30.118  56.744  0.00  0.00     0.618 N 
ENDBRANCH  16  19
ENDBRANCH  11  12
ENDBRANCH   1  11
TORSDOF 3
ENDMDL
MODEL 3
REMARK VINA RESULT:      -7.5      2.906      7.323
REMARK  3 active torsions:
REMARK  status: ('A' for Active; 'I' for Inactive)
REMARK    1  A    between atoms: C_4  and  C_5 
REMARK    2  A    between atoms: C_9  and  O_10 
REMARK    3  A    between atoms: O_10  and  C_11 
ROOT
HETATM    1  C   1WU A 501       8.440  23.348  56.580  0.00  0.00     0.117 C 
HETATM    2  C   1WU A 501       7.985  23.594  55.149  0.00  0.00     0.057 C 
HETATM    3  C   1WU A 501       8.346  21.699  57.123  0.00  0.00     0.030 C 
HETATM    4  C   1WU A 501       8.692  20.643  56.081  0.00  0.00     0.007 C 
HETATM    5  C   1WU A 501       8.875  21.311  54.725  0.00  0.00     0.058 C 
HETATM    6  C   1WU A 501       8.749  20.265  53.624  0.00  0.00     0.178 C 
HETATM    7  O   1WU A 501       8.114  20.949  52.578  0.00  0.00    -0.235 OA
HETATM    8  C   1WU A 501       7.712  22.260  54.466  0.00  0.00     0.143 C 
HETATM    9  O   1WU A 501       7.481  23.516  52.319  0.00  0.00    -0.062 OA
HETATM   10  N   1WU A 501       7.722  22.441  53.039  0.00  0.00    -0.113 N 
ENDROOT
BRANCH   1  11
HETATM   11  O   1WU A 501       7.641  24.127  57.428  0.00  0.00    -0.356 OA
BRANCH  11  12
HETATM   12  C   1WU A 501       7.403  25.337  56.763  0.00  0.00     0.148 C 
HETATM   13  C   1WU A 501       5.966  25.776  57.030  0.00  0.00     0.188 C 
HETATM   14  F   1WU A 501       5.099  24.852  56.453  0.00  0.00    -0.235 F 
HETATM   15  C   1WU A 501       5.680  27.156  56.443  0.00  0.00     0.040 C 
HETATM   16  C   1WU A 501       6.684  28.195  56.934  0.00  0.00     0.042 C 
HETATM   17  C   1WU A 501       8.122  27.756  56.666  0.00  0.00     0.005 C 
HETATM   18  C   1WU A 501       8.408  26.376  57.252  0.00  0.00     0.033 C 
BRANCH  16  19
HETATM   19  C   1WU A 501       6.426  29.509  56.210  0.00  0.00     0.338 C 
HETATM   20  N   1WU A 501       5.579  29.272  55.071  0.00  0.00     0.618 N 
ENDBRANCH  16  19
ENDBRANCH  11  12
ENDBRANCH   1  11
TORSDOF 3
ENDMDL
MODEL 4
REMARK VINA RESULT:      -7.4      4.332      7.482
REMARK  3 active torsions:
REMARK  status: ('A' for Active; 'I' for Inactive)
REMARK    1  A    between atoms: C_4  and  C_5 
REMARK    2  A    between atoms: C_9  and  O_10 
REMARK    3  A    between atoms: O_10  and  C_11 
ROOT
HETATM    1  C   1WU A 501       7.275  24.148  54.847  0.00  0.00     0.117 C 
HETATM    2  C   1WU A 501       7.297  22.928  53.938  0.00  0.00     0.057 C 
HETATM    3  C   1WU A 501       7.459  23.822  56.545  0.00  0.00     0.030 C 
HETATM    4  C   1WU A 501       8.424  22.697  56.897  0.00  0.00     0.007 C 
HETATM    5  C   1WU A 501       8.875  21.999  55.621  0.00  0.00     0.058 C 
HETATM    6  C   1WU A 501       9.435  20.625  55.966  0.00  0.00     0.178 C 
HETATM    7  O   1WU A 501       9.041  19.818  54.890  0.00  0.00    -0.235 OA
HETATM    8  C   1WU A 501       7.661  21.693  54.754  0.00  0.00     0.143 C 
HETATM    9  O   1WU A 501       7.853  20.445  52.599  0.00  0.00    -0.062 OA
HETATM   10  N   1WU A 501       8.116  20.653  53.871  0.00  0.00    -0.113 N 
ENDROOT
BRANCH   1  11
HETATM   11  O   1WU A 501       6.047  24.801  54.665  0.00  0.00    -0.356 OA
BRANCH  11  12
HETATM   12  C   1WU A 501       6.226  25.716  53.619  0.00  0.00     0.148 C 
HETATM   13  C   1WU A 501       4.971  25.728  52.751  0.00  0.00     0.188 C 
HETATM   14  F   1WU A 501       4.831  24.483  52.143  0.00  0.00    -0.235 F 
HETATM   15  C   1WU A 501       5.045  26.802  51.668  0.00  0.00     0.040 C 
HETATM   16  C   1WU A 501       5.332  28.178  52.259  0.00  0.00     0.042 C 
HETATM   17  C   1WU A 501       6.588  28.167  53.127  0.00  0.00     0.005 C 
HETATM   18  C   1WU A 501       6.515  27.093  54.210  0.00  0.00     0.033 C 
BRANCH  16  19
HETATM   19  C   1WU A 501       5.527  29.172  51.122  0.00  0.00     0.338 C 
HETATM   20  N   1WU A 501       5.528  28.470  49.866  0.00  0.00     0.618 N 
ENDBRANCH  16  19
ENDBRANCH  11  12
ENDBRANCH   1  11
TORSDOF 3
ENDMDL
MODEL 5
REMARK VINA RESULT:      -7.4      4.253      7.109
REMARK  3 active torsions:
REMARK  status: ('A' for Active; 'I' for Inactive)
REMARK    1  A    between atoms: C_4  and  C_5 
REMARK    2  A    between atoms: C_9  and  O_10 
REMARK    3  A    between atoms: O_10  and  C_11 
ROOT
HETATM    1  C   1WU A 501       7.352  23.632  53.614  0.00  0.00     0.117 C 
HETATM    2  C   1WU A 501       7.777  23.753  55.071  0.00  0.00     0.057 C 
HETATM    3  C   1WU A 501       7.953  22.235  52.771  0.00  0.00     0.030 C 
HETATM    4  C   1WU A 501       8.028  20.955  53.593  0.00  0.00     0.007 C 
HETATM    5  C   1WU A 501       7.709  21.267  55.048  0.00  0.00     0.058 C 
HETATM    6  C   1WU A 501       8.230  20.141  55.934  0.00  0.00     0.178 C 
HETATM    7  O   1WU A 501       8.660  20.796  57.096  0.00  0.00    -0.235 OA
HETATM    8  C   1WU A 501       8.508  22.484  55.493  0.00  0.00     0.143 C 
HETATM    9  O   1WU A 501       8.428  23.335  57.841  0.00  0.00    -0.062 OA
HETATM   10  N   1WU A 501       8.515  22.391  56.928  0.00  0.00    -0.113 N 
ENDROOT
BRANCH   1  11
HETATM   11  O   1WU A 501       7.806  24.773  52.937  0.00  0.00    -0.356 OA
BRANCH  11  12
HETATM   12  C   1WU A 501       6.751  25.696  52.945  0.00  0.00     0.148 C 
HETATM   13  C   1WU A 501       7.292  27.061  53.358  0.00  0.00     0.188 C 
HETATM   14  F   1WU A 501       7.740  26.989  54.675  0.00  0.00    -0.235 F 
HETATM   15  C   1WU A 501       6.221  28.145  53.259  0.00  0.00     0.040 C 
HETATM   16  C   1WU A 501       5.590  28.187  51.871  0.00  0.00     0.042 C 
HETATM   17  C   1WU A 501       5.048  26.821  51.457  0.00  0.00     0.005 C 
HETATM   18  C   1WU A 501       6.119  25.737  51.556  0.00  0.00     0.033 C 
BRANCH  16  19
HETATM   19  C   1WU A 501       4.444  29.189  51.881  0.00  0.00     0.338 C 
HETATM   20  N   1WU A 501       3.441  28.762  52.820  0.00  0.00     0.618 N 
ENDBRANCH  16  19
ENDBRANCH  11  12
ENDBRANCH   1  11
TORSDOF 3
ENDMDL
MODEL 6
REMARK VINA RESULT:      -7.3      2.065      2.932
REMARK  3 active torsions:
REMARK  status: ('A' for Active; 'I' for Inactive)
REMARK    1  A    between atoms: C_4  and  C_5 
REMARK    2  A    between atoms: C_9  and  O_10 
REMARK    3  A    between atoms: O_10  and  C_11 
ROOT
HETATM    1  C   1WU A 501       8.163  28.015  57.075  0.00  0.00     0.117 C 
HETATM    2  C   1WU A 501       7.857  28.929  58.253  0.00  0.00     0.057 C 
HETATM    3  C   1WU A 501       8.992  28.762  55.741  0.00  0.00     0.030 C 
HETATM    4  C   1WU A 501      10.040  29.801  56.119  0.00  0.00     0.007 C 
HETATM    5  C   1WU A 501       9.978  30.061  57.618  0.00  0.00     0.058 C 
HETATM    6  C   1WU A 501      10.655  31.390  57.930  0.00  0.00     0.178 C 
HETATM    7  O   1WU A 501       9.893  31.920  58.980  0.00  0.00    -0.235 OA
HETATM    8  C   1WU A 501       8.530  30.279  58.037  0.00  0.00     0.143 C 
HETATM    9  O   1WU A 501       7.903  30.859  60.384  0.00  0.00    -0.062 OA
HETATM   10  N   1WU A 501       8.631  30.970  59.294  0.00  0.00    -0.113 N 
ENDROOT
BRANCH   1  11
HETATM   11  O   1WU A 501       6.947  27.507  56.596  0.00  0.00    -0.356 OA
BRANCH  11  12
HETATM   12  C   1WU A 501       7.062  26.110  56.598  0.00  0.00     0.148 C 
HETATM   13  C   1WU A 501       7.064  25.611  55.156  0.00  0.00     0.188 C 
HETATM   14  F   1WU A 501       5.826  25.887  54.582  0.00  0.00    -0.235 F 
HETATM   15  C   1WU A 501       7.320  24.108  55.081  0.00  0.00     0.040 C 
HETATM   16  C   1WU A 501       8.601  23.718  55.812  0.00  0.00     0.042 C 
HETATM   17  C   1WU A 501       8.599  24.217  57.255  0.00  0.00     0.005 C 
HETATM   18  C   1WU A 501       8.343  25.720  57.331  0.00  0.00     0.033 C 
BRANCH  16  19
HETATM   19  C   1WU A 501       8.725  22.201  55.815  0.00  0.00     0.338 C 
HETATM   20  N   1WU A 501       7.784  21.641  54.882  0.00  0.00     0.618 N 
ENDBRANCH  16  19
ENDBRANCH  11  12
ENDBRANCH   1  11
TORSDOF 3
ENDMDL
MODEL 7
REMARK VINA RESULT:      -7.3      2.870      6.828
REMARK  3 active torsions:
REMARK  status: ('A' for Active; 'I' for Inactive)
REMARK    1  A    between atoms: C_4  and  C_5 
REMARK    2  A    between atoms: C_9  and  O_10 
REMARK    3  A    between atoms: O_10  and  C_11 
ROOT
HETATM    1  C   1WU A 501       5.945  24.986  54.137  0.00  0.00     0.117 C 
HETATM    2  C   1WU A 501       6.810  24.680  55.351  0.00  0.00     0.057 C 
HETATM    3  C   1WU A 501       6.690  24.694  52.593  0.00  0.00     0.030 C 
HETATM    4  C   1WU A 501       7.600  23.475  52.523  0.00  0.00     0.007 C 
HETATM    5  C   1WU A 501       7.772  22.890  53.918  0.00  0.00     0.058 C 
HETATM    6  C   1WU A 501       9.009  22.001  53.946  0.00  0.00     0.178 C 
HETATM    7  O   1WU A 501       9.544  22.204  55.225  0.00  0.00    -0.235 OA
HETATM    8  C   1WU A 501       8.100  24.007  54.899  0.00  0.00     0.143 C 
HETATM    9  O   1WU A 501       8.593  23.553  57.306  0.00  0.00    -0.062 OA
HETATM   10  N   1WU A 501       8.701  23.326  56.015  0.00  0.00    -0.113 N 
ENDROOT
BRANCH   1  11
HETATM   11  O   1WU A 501       5.585  26.339  54.193  0.00  0.00    -0.356 OA
BRANCH  11  12
HETATM   12  C   1WU A 501       6.377  26.929  55.187  0.00  0.00     0.148 C 
HETATM   13  C   1WU A 501       7.243  28.014  54.552  0.00  0.00     0.188 C 
HETATM   14  F   1WU A 501       8.134  27.416  53.664  0.00  0.00    -0.235 F 
HETATM   15  C   1WU A 501       8.035  28.789  55.602  0.00  0.00     0.040 C 
HETATM   16  C   1WU A 501       7.125  29.360  56.685  0.00  0.00     0.042 C 
HETATM   17  C   1WU A 501       6.258  28.275  57.321  0.00  0.00     0.005 C 
HETATM   18  C   1WU A 501       5.466  27.500  56.271  0.00  0.00     0.033 C 
BRANCH  16  19
HETATM   19  C   1WU A 501       7.986  30.000  57.765  0.00  0.00     0.338 C 
HETATM   20  N   1WU A 501       7.186  30.913  58.537  0.00  0.00     0.618 N 
ENDBRANCH  16  19
ENDBRANCH  11  12
ENDBRANCH   1  11
TORSDOF 3
ENDMDL
MODEL 8
REMARK VINA RESULT:      -7.2      2.714      7.280
REMARK  3 active torsions:
REMARK  status: ('A' for Active; 'I' for Inactive)
REMARK    1  A    between atoms: C_4  and  C_5 
REMARK    2  A    between atoms: C_9  and  O_10 
REMARK    3  A    between atoms: O_10  and  C_11 
ROOT
HETATM    1  C   1WU A 501       7.424  26.038  55.876  0.00  0.00     0.117 C 
HETATM    2  C   1WU A 501       7.364  25.836  54.368  0.00  0.00     0.057 C 
HETATM    3  C   1WU A 501       7.169  24.609  56.834  0.00  0.00     0.030 C 
HETATM    4  C   1WU A 501       7.764  23.326  56.270  0.00  0.00     0.007 C 
HETATM    5  C   1WU A 501       8.306  23.589  54.872  0.00  0.00     0.058 C 
HETATM    6  C   1WU A 501       8.461  22.267  54.130  0.00  0.00     0.178 C 
HETATM    7  O   1WU A 501       8.132  22.582  52.805  0.00  0.00    -0.235 OA
HETATM    8  C   1WU A 501       7.264  24.347  54.059  0.00  0.00     0.143 C 
HETATM    9  O   1WU A 501       7.623  24.921  51.654  0.00  0.00    -0.062 OA
HETATM   10  N   1WU A 501       7.652  24.115  52.694  0.00  0.00    -0.113 N 
ENDROOT
BRANCH   1  11
HETATM   11  O   1WU A 501       6.439  26.972  56.225  0.00  0.00    -0.356 OA
BRANCH  11  12
HETATM   12  C   1WU A 501       7.100  28.181  56.483  0.00  0.00     0.148 C 
HETATM   13  C   1WU A 501       6.299  28.974  57.512  0.00  0.00     0.188 C 
HETATM   14  F   1WU A 501       5.072  29.326  56.954  0.00  0.00    -0.235 F 
HETATM   15  C   1WU A 501       7.031  30.244  57.938  0.00  0.00     0.040 C 
HETATM   16  C   1WU A 501       8.440  29.940  58.437  0.00  0.00     0.042 C 
HETATM   17  C   1WU A 501       9.242  29.147  57.408  0.00  0.00     0.005 C 
HETATM   18  C   1WU A 501       8.510  27.877  56.981  0.00  0.00     0.033 C 
BRANCH  16  19
HETATM   19  C   1WU A 501       9.158  31.254  58.716  0.00  0.00     0.338 C 
HETATM   20  N   1WU A 501      10.420  31.266  58.026  0.00  0.00     0.618 N 
ENDBRANCH  16  19
ENDBRANCH  11  12
ENDBRANCH   1  11
TORSDOF 3
ENDMDL
MODEL 9
REMARK VINA RESULT:      -7.2      6.283      9.240
REMARK  3 active torsions:
REMARK  status: ('A' for Active; 'I' for Inactive)
REMARK    1  A    between atoms: C_4  and  C_5 
REMARK    2  A    between atoms: C_9  and  O_10 
REMARK    3  A    between atoms: O_10  and  C_11 
ROOT
HETATM    1  C   1WU A 501       6.632  32.988  63.097  0.00  0.00     0.117 C 
HETATM    2  C   1WU A 501       5.167  33.401  63.097  0.00  0.00     0.057 C 
HETATM    3  C   1WU A 501       7.607  33.681  64.359  0.00  0.00     0.030 C 
HETATM    4  C   1WU A 501       6.918  33.839  65.708  0.00  0.00     0.007 C 
HETATM    5  C   1WU A 501       5.441  33.498  65.567  0.00  0.00     0.058 C 
HETATM    6  C   1WU A 501       4.669  34.089  66.740  0.00  0.00     0.178 C 
HETATM    7  O   1WU A 501       3.443  34.473  66.180  0.00  0.00    -0.235 OA
HETATM    8  C   1WU A 501       4.869  34.214  64.351  0.00  0.00     0.143 C 
HETATM    9  O   1WU A 501       2.448  34.073  63.750  0.00  0.00    -0.062 OA
HETATM   10  N   1WU A 501       3.450  34.224  64.589  0.00  0.00    -0.113 N 
ENDROOT
BRANCH   1  11
HETATM   11  O   1WU A 501       7.187  33.366  61.866  0.00  0.00    -0.356 OA
BRANCH  11  12
HETATM   12  C   1WU A 501       7.421  32.187  61.147  0.00  0.00     0.148 C 
HETATM   13  C   1WU A 501       6.794  32.318  59.762  0.00  0.00     0.188 C 
HETATM   14  F   1WU A 501       5.411  32.407  59.901  0.00  0.00    -0.235 F 
HETATM   15  C   1WU A 501       7.126  31.119  58.877  0.00  0.00     0.040 C 
HETATM   16  C   1WU A 501       8.630  30.883  58.791  0.00  0.00     0.042 C 
HETATM   17  C   1WU A 501       9.259  30.751  60.177  0.00  0.00     0.005 C 
HETATM   18  C   1WU A 501       8.927  31.949  61.062  0.00  0.00     0.033 C 
BRANCH  16  19
HETATM   19  C   1WU A 501       8.884  29.601  58.010  0.00  0.00     0.338 C 
HETATM   20  N   1WU A 501       7.707  28.775  58.049  0.00  0.00     0.618 N 
ENDBRANCH  16  19
ENDBRANCH  11  12
ENDBRANCH   1  11
TORSDOF 3
ENDMDL
MODEL 10
REMARK VINA RESULT:      -7.2      4.564      5.487
REMARK  3 active torsions:
REMARK  status: ('A' for Active; 'I' for Inactive)
REMARK    1  A    between atoms: C_4  and  C_5 
REMARK    2  A    between atoms: C_9  and  O_10 
REMARK    3  A    between atoms: O_10  and  C_11 
ROOT
HETATM    1  C   1WU A 501       5.700  26.765  53.393  0.00  0.00     0.117 C 
HETATM    2  C   1WU A 501       5.335  26.667  51.919  0.00  0.00     0.057 C 
HETATM    3  C   1WU A 501       5.603  28.357  54.086  0.00  0.00     0.030 C 
HETATM    4  C   1WU A 501       4.453  29.221  53.584  0.00  0.00     0.007 C 
HETATM    5  C   1WU A 501       3.751  28.514  52.433  0.00  0.00     0.058 C 
HETATM    6  C   1WU A 501       2.941  29.526  51.634  0.00  0.00     0.178 C 
HETATM    7  O   1WU A 501       3.055  29.082  50.309  0.00  0.00    -0.235 OA
HETATM    8  C   1WU A 501       4.789  28.006  51.441  0.00  0.00     0.143 C 
HETATM    9  O   1WU A 501       4.141  26.873  49.311  0.00  0.00    -0.062 OA
HETATM   10  N   1WU A 501       4.044  27.813  50.226  0.00  0.00    -0.113 N 
ENDROOT
BRANCH   1  11
HETATM   11  O   1WU A 501       7.018  26.310  53.543  0.00  0.00    -0.356 OA
BRANCH  11  12
HETATM   12  C   1WU A 501       6.954  24.917  53.680  0.00  0.00     0.148 C 
HETATM   13  C   1WU A 501       8.016  24.281  52.788  0.00  0.00     0.188 C 
HETATM   14  F   1WU A 501       7.703  24.545  51.457  0.00  0.00    -0.235 F 
HETATM   15  C   1WU A 501       8.090  22.770  52.989  0.00  0.00     0.040 C 
HETATM   16  C   1WU A 501       8.299  22.407  54.456  0.00  0.00     0.042 C 
HETATM   17  C   1WU A 501       7.235  23.042  55.349  0.00  0.00     0.005 C 
HETATM   18  C   1WU A 501       7.161  24.554  55.148  0.00  0.00     0.033 C 
BRANCH  16  19
HETATM   19  C   1WU A 501       8.228  20.893  54.604  0.00  0.00     0.338 C 
HETATM   20  N   1WU A 501       7.629  20.563  55.870  0.00  0.00     0.618 N 
ENDBRANCH  16  19
ENDBRANCH  11  12
ENDBRANCH   1  11
TORSDOF 3
ENDMDL
