MODEL 1
REMARK VINA RESULT:      -7.4      0.000      0.000
REMARK  3 active torsions:
REMARK  status: ('A' for Active; 'I' for Inactive)
REMARK    1  A    between atoms: C_4  and  C_5 
REMARK    2  A    between atoms: C_9  and  O_10 
REMARK    3  A    between atoms: O_10  and  C_11 
ROOT
HETATM    1  C   1WU A 501      43.636 -18.497   4.457  0.00  0.00     0.117 C 
HETATM    2  C   1WU A 501      44.196 -19.842   4.897  0.00  0.00     0.057 C 
HETATM    3  C   1WU A 501      43.873 -18.097   2.782  0.00  0.00     0.030 C 
HETATM    4  C   1WU A 501      43.759 -19.262   1.807  0.00  0.00     0.007 C 
HETATM    5  C   1WU A 501      43.631 -20.564   2.585  0.00  0.00     0.058 C 
HETATM    6  C   1WU A 501      43.987 -21.735   1.678  0.00  0.00     0.178 C 
HETATM    7  O   1WU A 501      44.634 -22.640   2.530  0.00  0.00    -0.235 OA
HETATM    8  C   1WU A 501      44.691 -20.609   3.677  0.00  0.00     0.143 C 
HETATM    9  O   1WU A 501      44.978 -22.596   5.163  0.00  0.00    -0.062 OA
HETATM   10  N   1WU A 501      44.799 -22.006   4.001  0.00  0.00    -0.113 N 
ENDROOT
BRANCH   1  11
HETATM   11  O   1WU A 501      44.251 -17.500   5.229  0.00  0.00    -0.356 OA
BRANCH  11  12
HETATM   12  C   1WU A 501      43.224 -16.716   5.772  0.00  0.00     0.148 C 
HETATM   13  C   1WU A 501      43.434 -15.265   5.350  0.00  0.00     0.188 C 
HETATM   14  F   1WU A 501      44.612 -14.794   5.923  0.00  0.00    -0.235 F 
HETATM   15  C   1WU A 501      42.276 -14.375   5.796  0.00  0.00     0.040 C 
HETATM   16  C   1WU A 501      40.934 -14.913   5.310  0.00  0.00     0.042 C 
HETATM   17  C   1WU A 501      40.724 -16.365   5.733  0.00  0.00     0.005 C 
HETATM   18  C   1WU A 501      41.881 -17.255   5.287  0.00  0.00     0.033 C 
BRANCH  16  19
HETATM   19  C   1WU A 501      39.819 -14.061   5.901  0.00  0.00     0.338 C 
HETATM   20  N   1WU A 501      40.295 -12.718   6.101  0.00  0.00     0.618 N 
ENDBRANCH  16  19
ENDBRANCH  11  12
ENDBRANCH   1  11
TORSDOF 3
ENDMDL
MODEL 2
REMARK VINA RESULT:      -7.4      3.952      7.068
REMARK  3 active torsions:
REMARK  status: ('A' for Active; 'I' for Inactive)
REMARK    1  A    between atoms: C_4  and  C_5 
REMARK    2  A    between atoms: C_9  and  O_10 
REMARK    3  A    between atoms: O_10  and  C_11 
ROOT
HETATM    1  C   1WU A 501      41.764 -16.720   2.653  0.00  0.00     0.117 C 
HETATM    2  C   1WU A 501      41.707 -16.411   1.164  0.00  0.00     0.057 C 
HETATM    3  C   1WU A 501      41.125 -15.487   3.700  0.00  0.00     0.030 C 
HETATM    4  C   1WU A 501      39.895 -14.755   3.178  0.00  0.00     0.007 C 
HETATM    5  C   1WU A 501      39.623 -15.182   1.742  0.00  0.00     0.058 C 
HETATM    6  C   1WU A 501      38.729 -14.149   1.067  0.00  0.00     0.178 C 
HETATM    7  O   1WU A 501      39.190 -14.114  -0.256  0.00  0.00    -0.235 OA
HETATM    8  C   1WU A 501      40.917 -15.126   0.942  0.00  0.00     0.143 C 
HETATM    9  O   1WU A 501      40.984 -15.622  -1.506  0.00  0.00    -0.062 OA
HETATM   10  N   1WU A 501      40.479 -15.064  -0.426  0.00  0.00    -0.113 N 
ENDROOT
BRANCH   1  11
HETATM   11  O   1WU A 501      43.107 -16.926   3.000  0.00  0.00    -0.356 OA
BRANCH  11  12
HETATM   12  C   1WU A 501      43.214 -18.252   3.439  0.00  0.00     0.148 C 
HETATM   13  C   1WU A 501      44.136 -19.015   2.493  0.00  0.00     0.188 C 
HETATM   14  F   1WU A 501      43.538 -19.080   1.236  0.00  0.00    -0.235 F 
HETATM   15  C   1WU A 501      44.403 -20.434   2.988  0.00  0.00     0.040 C 
HETATM   16  C   1WU A 501      44.936 -20.440   4.417  0.00  0.00     0.042 C 
HETATM   17  C   1WU A 501      44.013 -19.677   5.365  0.00  0.00     0.005 C 
HETATM   18  C   1WU A 501      43.746 -18.258   4.870  0.00  0.00     0.033 C 
BRANCH  16  19
HETATM   19  C   1WU A 501      45.051 -21.881   4.894  0.00  0.00     0.338 C 
HETATM   20  N   1WU A 501      44.630 -22.769   3.843  0.00  0.00     0.618 N 
ENDBRANCH  16  19
ENDBRANCH  11  12
ENDBRANCH   1  11
TORSDOF 3
ENDMDL
MODEL 3
REMARK VINA RESULT:      -7.1      3.546      5.785
REMARK  3 active torsions:
REMARK  status: ('A' for Active; 'I' for Inactive)
REMARK    1  A    between atoms: C_4  and  C_5 
REMARK    2  A    between atoms: C_9  and  O_10 
REMARK    3  A    between atoms: O_10  and  C_11 
ROOT
HETATM    1  C   1WU A 501      42.726 -17.336   1.777  0.00  0.00     0.117 C 
HETATM    2  C   1WU A 501      43.281 -16.191   2.612  0.00  0.00     0.057 C 
HETATM    3  C   1WU A 501      41.210 -17.020   0.985  0.00  0.00     0.030 C 
HETATM    4  C   1WU A 501      41.031 -15.605   0.451  0.00  0.00     0.007 C 
HETATM    5  C   1WU A 501      42.195 -14.739   0.909  0.00  0.00     0.058 C 
HETATM    6  C   1WU A 501      41.808 -13.269   0.799  0.00  0.00     0.178 C 
HETATM    7  O   1WU A 501      42.439 -12.669   1.898  0.00  0.00    -0.235 OA
HETATM    8  C   1WU A 501      42.426 -14.947   2.400  0.00  0.00     0.143 C 
HETATM    9  O   1WU A 501      44.155 -13.661   3.664  0.00  0.00    -0.062 OA
HETATM   10  N   1WU A 501      43.168 -13.783   2.804  0.00  0.00    -0.113 N 
ENDROOT
BRANCH   1  11
HETATM   11  O   1WU A 501      42.549 -18.440   2.622  0.00  0.00    -0.356 OA
BRANCH  11  12
HETATM   12  C   1WU A 501      43.041 -18.071   3.881  0.00  0.00     0.148 C 
HETATM   13  C   1WU A 501      41.905 -18.143   4.898  0.00  0.00     0.188 C 
HETATM   14  F   1WU A 501      40.947 -17.187   4.571  0.00  0.00    -0.235 F 
HETATM   15  C   1WU A 501      42.402 -17.881   6.317  0.00  0.00     0.040 C 
HETATM   16  C   1WU A 501      43.551 -18.812   6.692  0.00  0.00     0.042 C 
HETATM   17  C   1WU A 501      44.688 -18.739   5.675  0.00  0.00     0.005 C 
HETATM   18  C   1WU A 501      44.191 -19.001   4.255  0.00  0.00     0.033 C 
BRANCH  16  19
HETATM   19  C   1WU A 501      44.086 -18.410   8.059  0.00  0.00     0.338 C 
HETATM   20  N   1WU A 501      43.452 -17.189   8.482  0.00  0.00     0.618 N 
ENDBRANCH  16  19
ENDBRANCH  11  12
ENDBRANCH   1  11
TORSDOF 3
ENDMDL
MODEL 4
REMARK VINA RESULT:      -7.1      2.063      2.953
REMARK  3 active torsions:
REMARK  status: ('A' for Active; 'I' for Inactive)
REMARK    1  A    between atoms: C_4  and  C_5 
REMARK    2  A    between atoms: C_9  and  O_10 
REMARK    3  A    between atoms: O_10  and  C_11 
ROOT
HETATM    1  C   1WU A 501      44.407 -18.811   6.354  0.00  0.00     0.117 C 
HETATM    2  C   1WU A 501      44.271 -18.475   4.875  0.00  0.00     0.057 C 
HETATM    3  C   1WU A 501      43.933 -20.423   6.803  0.00  0.00     0.030 C 
HETATM    4  C   1WU A 501      44.278 -21.513   5.797  0.00  0.00     0.007 C 
HETATM    5  C   1WU A 501      44.818 -20.876   4.524  0.00  0.00     0.058 C 
HETATM    6  C   1WU A 501      44.719 -21.872   3.376  0.00  0.00     0.178 C 
HETATM    7  O   1WU A 501      44.413 -21.078   2.262  0.00  0.00    -0.235 OA
HETATM    8  C   1WU A 501      43.903 -19.734   4.100  0.00  0.00     0.143 C 
HETATM    9  O   1WU A 501      44.289 -18.438   2.000  0.00  0.00    -0.062 OA
HETATM   10  N   1WU A 501      44.205 -19.544   2.707  0.00  0.00    -0.113 N 
ENDROOT
BRANCH   1  11
HETATM   11  O   1WU A 501      43.611 -17.911   7.077  0.00  0.00    -0.356 OA
BRANCH  11  12
HETATM   12  C   1WU A 501      43.390 -16.806   6.244  0.00  0.00     0.148 C 
HETATM   13  C   1WU A 501      41.899 -16.481   6.238  0.00  0.00     0.188 C 
HETATM   14  F   1WU A 501      41.209 -17.539   5.651  0.00  0.00    -0.235 F 
HETATM   15  C   1WU A 501      41.604 -15.204   5.455  0.00  0.00     0.040 C 
HETATM   16  C   1WU A 501      42.433 -14.028   5.963  0.00  0.00     0.042 C 
HETATM   17  C   1WU A 501      43.926 -14.354   5.969  0.00  0.00     0.005 C 
HETATM   18  C   1WU A 501      44.220 -15.630   6.751  0.00  0.00     0.033 C 
BRANCH  16  19
HETATM   19  C   1WU A 501      42.194 -12.828   5.057  0.00  0.00     0.338 C 
HETATM   20  N   1WU A 501      42.685 -13.118   3.736  0.00  0.00     0.618 N 
ENDBRANCH  16  19
ENDBRANCH  11  12
ENDBRANCH   1  11
TORSDOF 3
ENDMDL
MODEL 5
REMARK VINA RESULT:      -7.1      3.073      7.194
REMARK  3 active torsions:
REMARK  status: ('A' for Active; 'I' for Inactive)
REMARK    1  A    between atoms: C_4  and  C_5 
REMARK    2  A    between atoms: C_9  and  O_10 
REMARK    3  A    between atoms: O_10  and  C_11 
ROOT
HETATM    1  C   1WU A 501      42.737 -15.844   3.836  0.00  0.00     0.117 C 
HETATM    2  C   1WU A 501      41.447 -15.786   3.030  0.00  0.00     0.057 C 
HETATM    3  C   1WU A 501      43.397 -14.306   4.308  0.00  0.00     0.030 C 
HETATM    4  C   1WU A 501      42.375 -13.242   4.688  0.00  0.00     0.007 C 
HETATM    5  C   1WU A 501      40.973 -13.754   4.385  0.00  0.00     0.058 C 
HETATM    6  C   1WU A 501      40.009 -12.577   4.307  0.00  0.00     0.178 C 
HETATM    7  O   1WU A 501      39.106 -12.945   3.300  0.00  0.00    -0.235 OA
HETATM    8  C   1WU A 501      40.942 -14.348   2.983  0.00  0.00     0.143 C 
HETATM    9  O   1WU A 501      38.837 -15.223   1.962  0.00  0.00    -0.062 OA
HETATM   10  N   1WU A 501      39.547 -14.342   2.633  0.00  0.00    -0.113 N 
ENDROOT
BRANCH   1  11
HETATM   11  O   1WU A 501      43.700 -16.506   3.061  0.00  0.00    -0.356 OA
BRANCH  11  12
HETATM   12  C   1WU A 501      43.559 -17.876   3.322  0.00  0.00     0.148 C 
HETATM   13  C   1WU A 501      44.164 -18.665   2.164  0.00  0.00     0.188 C 
HETATM   14  F   1WU A 501      43.419 -18.421   1.013  0.00  0.00    -0.235 F 
HETATM   15  C   1WU A 501      44.163 -20.166   2.445  0.00  0.00     0.040 C 
HETATM   16  C   1WU A 501      44.851 -20.492   3.767  0.00  0.00     0.042 C 
HETATM   17  C   1WU A 501      44.245 -19.702   4.925  0.00  0.00     0.005 C 
HETATM   18  C   1WU A 501      44.245 -18.202   4.645  0.00  0.00     0.033 C 
BRANCH  16  19
HETATM   19  C   1WU A 501      44.696 -21.980   4.050  0.00  0.00     0.338 C 
HETATM   20  N   1WU A 501      44.803 -22.212   5.466  0.00  0.00     0.618 N 
ENDBRANCH  16  19
ENDBRANCH  11  12
ENDBRANCH   1  11
TORSDOF 3
ENDMDL
MODEL 6
REMARK VINA RESULT:      -7.0      1.608      2.083
REMARK  3 active torsions:
REMARK  status: ('A' for Active; 'I' for Inactive)
REMARK    1  A    between atoms: C_4  and  C_5 
REMARK    2  A    between atoms: C_9  and  O_10 
REMARK    3  A    between atoms: O_10  and  C_11 
ROOT
HETATM    1  C   1WU A 501      42.980 -16.791   3.231  0.00  0.00     0.117 C 
HETATM    2  C   1WU A 501      43.459 -17.571   4.448  0.00  0.00     0.057 C 
HETATM    3  C   1WU A 501      43.699 -17.250   1.716  0.00  0.00     0.030 C 
HETATM    4  C   1WU A 501      43.966 -18.739   1.540  0.00  0.00     0.007 C 
HETATM    5  C   1WU A 501      43.685 -19.463   2.849  0.00  0.00     0.058 C 
HETATM    6  C   1WU A 501      44.378 -20.819   2.838  0.00  0.00     0.178 C 
HETATM    7  O   1WU A 501      44.785 -21.004   4.167  0.00  0.00    -0.235 OA
HETATM    8  C   1WU A 501      44.355 -18.717   3.995  0.00  0.00     0.143 C 
HETATM    9  O   1WU A 501      44.291 -19.565   6.344  0.00  0.00    -0.062 OA
HETATM   10  N   1WU A 501      44.444 -19.697   5.044  0.00  0.00    -0.113 N 
ENDROOT
BRANCH   1  11
HETATM   11  O   1WU A 501      43.261 -15.435   3.448  0.00  0.00    -0.356 OA
BRANCH  11  12
HETATM   12  C   1WU A 501      42.383 -14.994   4.447  0.00  0.00     0.148 C 
HETATM   13  C   1WU A 501      42.789 -13.587   4.878  0.00  0.00     0.188 C 
HETATM   14  F   1WU A 501      44.045 -13.644   5.477  0.00  0.00    -0.235 F 
HETATM   15  C   1WU A 501      41.793 -12.993   5.871  0.00  0.00     0.040 C 
HETATM   16  C   1WU A 501      40.369 -13.024   5.326  0.00  0.00     0.042 C 
HETATM   17  C   1WU A 501      39.962 -14.432   4.896  0.00  0.00     0.005 C 
HETATM   18  C   1WU A 501      40.957 -15.026   3.903  0.00  0.00     0.033 C 
BRANCH  16  19
HETATM   19  C   1WU A 501      39.415 -12.545   6.413  0.00  0.00     0.338 C 
HETATM   20  N   1WU A 501      40.007 -11.439   7.118  0.00  0.00     0.618 N 
ENDBRANCH  16  19
ENDBRANCH  11  12
ENDBRANCH   1  11
TORSDOF 3
ENDMDL
MODEL 7
REMARK VINA RESULT:      -6.8      3.242      3.584
REMARK  3 active torsions:
REMARK  status: ('A' for Active; 'I' for Inactive)
REMARK    1  A    between atoms: C_4  and  C_5 
REMARK    2  A    between atoms: C_9  and  O_10 
REMARK    3  A    between atoms: O_10  and  C_11 
ROOT
HETATM    1  C   1WU A 501      42.607 -16.854   3.311  0.00  0.00     0.117 C 
HETATM    2  C   1WU A 501      42.926 -17.629   4.583  0.00  0.00     0.057 C 
HETATM    3  C   1WU A 501      43.677 -17.140   1.971  0.00  0.00     0.030 C 
HETATM    4  C   1WU A 501      44.170 -18.574   1.819  0.00  0.00     0.007 C 
HETATM    5  C   1WU A 501      43.725 -19.393   3.022  0.00  0.00     0.058 C 
HETATM    6  C   1WU A 501      44.580 -20.650   3.124  0.00  0.00     0.178 C 
HETATM    7  O   1WU A 501      44.726 -20.850   4.504  0.00  0.00    -0.235 OA
HETATM    8  C   1WU A 501      44.041 -18.629   4.301  0.00  0.00     0.143 C 
HETATM    9  O   1WU A 501      43.610 -19.598   6.563  0.00  0.00    -0.062 OA
HETATM   10  N   1WU A 501      44.042 -19.643   5.321  0.00  0.00    -0.113 N 
ENDROOT
BRANCH   1  11
HETATM   11  O   1WU A 501      42.654 -15.486   3.616  0.00  0.00    -0.356 OA
BRANCH  11  12
HETATM   12  C   1WU A 501      41.496 -14.910   3.077  0.00  0.00     0.148 C 
HETATM   13  C   1WU A 501      41.895 -13.940   1.969  0.00  0.00     0.188 C 
HETATM   14  F   1WU A 501      42.614 -12.887   2.529  0.00  0.00    -0.235 F 
HETATM   15  C   1WU A 501      40.673 -13.376   1.248  0.00  0.00     0.040 C 
HETATM   16  C   1WU A 501      39.767 -14.485   0.724  0.00  0.00     0.042 C 
HETATM   17  C   1WU A 501      39.368 -15.456   1.833  0.00  0.00     0.005 C 
HETATM   18  C   1WU A 501      40.589 -16.020   2.554  0.00  0.00     0.033 C 
BRANCH  16  19
HETATM   19  C   1WU A 501      38.508 -13.859   0.140  0.00  0.00     0.338 C 
HETATM   20  N   1WU A 501      37.372 -14.228   0.942  0.00  0.00     0.618 N 
ENDBRANCH  16  19
ENDBRANCH  11  12
ENDBRANCH   1  11
TORSDOF 3
ENDMDL
MODEL 8
REMARK VINA RESULT:      -6.7      4.301      7.564
REMARK  3 active torsions:
REMARK  status: ('A' for Active; 'I' for Inactive)
REMARK    1  A    between atoms: C_4  and  C_5 
REMARK    2  A    between atoms: C_9  and  O_10 
REMARK    3  A    between atoms: O_10  and  C_11 
ROOT
HETATM    1  C   1WU A 501      40.995 -15.514   1.923  0.00  0.00     0.117 C 
HETATM    2  C   1WU A 501      41.751 -14.258   1.511  0.00  0.00     0.057 C 
HETATM    3  C   1WU A 501      39.271 -15.341   2.059  0.00  0.00     0.030 C 
HETATM    4  C   1WU A 501      38.618 -14.432   1.025  0.00  0.00     0.007 C 
HETATM    5  C   1WU A 501      39.698 -13.740   0.205  0.00  0.00     0.058 C 
HETATM    6  C   1WU A 501      39.107 -12.514  -0.480  0.00  0.00     0.178 C 
HETATM    7  O   1WU A 501      40.151 -11.579  -0.461  0.00  0.00    -0.235 OA
HETATM    8  C   1WU A 501      40.755 -13.166   1.139  0.00  0.00     0.143 C 
HETATM    9  O   1WU A 501      42.686 -11.828   0.290  0.00  0.00    -0.062 OA
HETATM   10  N   1WU A 501      41.416 -12.166   0.344  0.00  0.00    -0.113 N 
ENDROOT
BRANCH   1  11
HETATM   11  O   1WU A 501      41.488 -15.924   3.170  0.00  0.00    -0.356 OA
BRANCH  11  12
HETATM   12  C   1WU A 501      42.545 -16.808   2.918  0.00  0.00     0.148 C 
HETATM   13  C   1WU A 501      43.034 -17.385   4.244  0.00  0.00     0.188 C 
HETATM   14  F   1WU A 501      43.577 -16.356   5.010  0.00  0.00    -0.235 F 
HETATM   15  C   1WU A 501      44.098 -18.459   4.032  0.00  0.00     0.040 C 
HETATM   16  C   1WU A 501      43.613 -19.554   3.089  0.00  0.00     0.042 C 
HETATM   17  C   1WU A 501      43.123 -18.977   1.762  0.00  0.00     0.005 C 
HETATM   18  C   1WU A 501      42.059 -17.904   1.973  0.00  0.00     0.033 C 
BRANCH  16  19
HETATM   19  C   1WU A 501      44.762 -20.514   2.815  0.00  0.00     0.338 C 
HETATM   20  N   1WU A 501      44.293 -21.605   2.002  0.00  0.00     0.618 N 
ENDBRANCH  16  19
ENDBRANCH  11  12
ENDBRANCH   1  11
TORSDOF 3
ENDMDL
MODEL 9
REMARK VINA RESULT:      -6.7      5.919      7.984
REMARK  3 active torsions:
REMARK  status: ('A' for Active; 'I' for Inactive)
REMARK    1  A    between atoms: C_4  and  C_5 
REMARK    2  A    between atoms: C_9  and  O_10 
REMARK    3  A    between atoms: O_10  and  C_11 
ROOT
HETATM    1  C   1WU A 501      41.645 -15.014  -0.576  0.00  0.00     0.117 C 
HETATM    2  C   1WU A 501      42.080 -13.603  -0.207  0.00  0.00     0.057 C 
HETATM    3  C   1WU A 501      40.721 -15.154  -2.043  0.00  0.00     0.030 C 
HETATM    4  C   1WU A 501      41.144 -14.227  -3.176  0.00  0.00     0.007 C 
HETATM    5  C   1WU A 501      42.196 -13.251  -2.667  0.00  0.00     0.058 C 
HETATM    6  C   1WU A 501      42.276 -12.055  -3.607  0.00  0.00     0.178 C 
HETATM    7  O   1WU A 501      42.532 -10.971  -2.756  0.00  0.00    -0.235 OA
HETATM    8  C   1WU A 501      41.735 -12.650  -1.346  0.00  0.00     0.143 C 
HETATM    9  O   1WU A 501      43.058 -10.899  -0.154  0.00  0.00    -0.062 OA
HETATM   10  N   1WU A 501      42.515 -11.449  -1.218  0.00  0.00    -0.113 N 
ENDROOT
BRANCH   1  11
HETATM   11  O   1WU A 501      40.862 -15.513   0.474  0.00  0.00    -0.356 OA
BRANCH  11  12
HETATM   12  C   1WU A 501      41.745 -16.067   1.410  0.00  0.00     0.148 C 
HETATM   13  C   1WU A 501      40.937 -16.739   2.517  0.00  0.00     0.188 C 
HETATM   14  F   1WU A 501      40.219 -15.765   3.206  0.00  0.00    -0.235 F 
HETATM   15  C   1WU A 501      41.837 -17.480   3.502  0.00  0.00     0.040 C 
HETATM   16  C   1WU A 501      42.751 -18.473   2.792  0.00  0.00     0.042 C 
HETATM   17  C   1WU A 501      43.561 -17.801   1.685  0.00  0.00     0.005 C 
HETATM   18  C   1WU A 501      42.660 -17.060   0.700  0.00  0.00     0.033 C 
BRANCH  16  19
HETATM   19  C   1WU A 501      43.711 -19.075   3.809  0.00  0.00     0.338 C 
HETATM   20  N   1WU A 501      44.107 -18.062   4.752  0.00  0.00     0.618 N 
ENDBRANCH  16  19
ENDBRANCH  11  12
ENDBRANCH   1  11
TORSDOF 3
ENDMDL
MODEL 10
REMARK VINA RESULT:      -6.6      5.428      6.401
REMARK  3 active torsions:
REMARK  status: ('A' for Active; 'I' for Inactive)
REMARK    1  A    between atoms: C_4  and  C_5 
REMARK    2  A    between atoms: C_9  and  O_10 
REMARK    3  A    between atoms: O_10  and  C_11 
ROOT
HETATM    1  C   1WU A 501      42.026 -16.628   1.066  0.00  0.00     0.117 C 
HETATM    2  C   1WU A 501      41.563 -16.350   2.489  0.00  0.00     0.057 C 
HETATM    3  C   1WU A 501      43.599 -17.354   0.917  0.00  0.00     0.030 C 
HETATM    4  C   1WU A 501      43.953 -18.379   1.987  0.00  0.00     0.007 C 
HETATM    5  C   1WU A 501      42.871 -18.388   3.058  0.00  0.00     0.058 C 
HETATM    6  C   1WU A 501      43.419 -19.027   4.327  0.00  0.00     0.178 C 
HETATM    7  O   1WU A 501      42.812 -18.302   5.362  0.00  0.00    -0.235 OA
HETATM    8  C   1WU A 501      42.556 -16.957   3.473  0.00  0.00     0.143 C 
HETATM    9  O   1WU A 501      40.925 -16.434   5.292  0.00  0.00    -0.062 OA
HETATM   10  N   1WU A 501      41.929 -17.098   4.760  0.00  0.00    -0.113 N 
ENDROOT
BRANCH   1  11
HETATM   11  O   1WU A 501      42.046 -15.409   0.373  0.00  0.00    -0.356 OA
BRANCH  11  12
HETATM   12  C   1WU A 501      40.880 -15.363  -0.402  0.00  0.00     0.148 C 
HETATM   13  C   1WU A 501      40.191 -14.019  -0.182  0.00  0.00     0.188 C 
HETATM   14  F   1WU A 501      39.768 -13.942   1.142  0.00  0.00    -0.235 F 
HETATM   15  C   1WU A 501      38.983 -13.849  -1.099  0.00  0.00     0.040 C 
HETATM   16  C   1WU A 501      39.354 -14.056  -2.564  0.00  0.00     0.042 C 
HETATM   17  C   1WU A 501      40.043 -15.401  -2.784  0.00  0.00     0.005 C 
HETATM   18  C   1WU A 501      41.252 -15.572  -1.868  0.00  0.00     0.033 C 
BRANCH  16  19
HETATM   19  C   1WU A 501      38.087 -14.007  -3.406  0.00  0.00     0.338 C 
HETATM   20  N   1WU A 501      37.515 -15.325  -3.488  0.00  0.00     0.618 N 
ENDBRANCH  16  19
ENDBRANCH  11  12
ENDBRANCH   1  11
TORSDOF 3
ENDMDL
