MODEL 1
REMARK VINA RESULT:      -7.2      0.000      0.000
REMARK  3 active torsions:
REMARK  status: ('A' for Active; 'I' for Inactive)
REMARK    1  A    between atoms: C_4  and  C_5 
REMARK    2  A    between atoms: C_9  and  O_10 
REMARK    3  A    between atoms: O_10  and  C_11 
ROOT
HETATM    1  C   1WU A 501      27.044  43.928  52.687  0.00  0.00     0.117 C 
HETATM    2  C   1WU A 501      26.934  42.630  51.899  0.00  0.00     0.057 C 
HETATM    3  C   1WU A 501      26.194  45.288  52.014  0.00  0.00     0.030 C 
HETATM    4  C   1WU A 501      24.855  44.969  51.363  0.00  0.00     0.007 C 
HETATM    5  C   1WU A 501      24.665  43.459  51.309  0.00  0.00     0.058 C 
HETATM    6  C   1WU A 501      23.602  43.119  50.272  0.00  0.00     0.178 C 
HETATM    7  O   1WU A 501      24.052  41.917  49.707  0.00  0.00    -0.235 OA
HETATM    8  C   1WU A 501      25.930  42.807  50.767  0.00  0.00     0.143 C 
HETATM    9  O   1WU A 501      26.087  40.345  50.374  0.00  0.00    -0.062 OA
HETATM   10  N   1WU A 501      25.489  41.516  50.313  0.00  0.00    -0.113 N 
ENDROOT
BRANCH   1  11
HETATM   11  O   1WU A 501      28.401  44.268  52.774  0.00  0.00    -0.356 OA
BRANCH  11  12
HETATM   12  C   1WU A 501      28.784  44.074  54.108  0.00  0.00     0.148 C 
HETATM   13  C   1WU A 501      30.122  43.341  54.137  0.00  0.00     0.188 C 
HETATM   14  F   1WU A 501      29.950  42.066  53.605  0.00  0.00    -0.235 F 
HETATM   15  C   1WU A 501      30.664  43.214  55.559  0.00  0.00     0.040 C 
HETATM   16  C   1WU A 501      30.752  44.571  56.251  0.00  0.00     0.042 C 
HETATM   17  C   1WU A 501      29.412  45.305  56.221  0.00  0.00     0.005 C 
HETATM   18  C   1WU A 501      28.871  45.431  54.800  0.00  0.00     0.033 C 
BRANCH  16  19
HETATM   19  C   1WU A 501      31.167  44.360  57.700  0.00  0.00     0.338 C 
HETATM   20  N   1WU A 501      30.482  45.308  58.538  0.00  0.00     0.618 N 
ENDBRANCH  16  19
ENDBRANCH  11  12
ENDBRANCH   1  11
TORSDOF 3
ENDMDL
MODEL 2
REMARK VINA RESULT:      -7.2      3.121      6.894
REMARK  3 active torsions:
REMARK  status: ('A' for Active; 'I' for Inactive)
REMARK    1  A    between atoms: C_4  and  C_5 
REMARK    2  A    between atoms: C_9  and  O_10 
REMARK    3  A    between atoms: O_10  and  C_11 
ROOT
HETATM    1  C   1WU A 501      28.383  46.440  55.710  0.00  0.00     0.117 C 
HETATM    2  C   1WU A 501      28.895  45.238  54.929  0.00  0.00     0.057 C 
HETATM    3  C   1WU A 501      28.568  46.346  57.437  0.00  0.00     0.030 C 
HETATM    4  C   1WU A 501      29.847  45.680  57.925  0.00  0.00     0.007 C 
HETATM    5  C   1WU A 501      30.595  45.087  56.739  0.00  0.00     0.058 C 
HETATM    6  C   1WU A 501      31.586  44.042  57.235  0.00  0.00     0.178 C 
HETATM    7  O   1WU A 501      31.573  43.059  56.236  0.00  0.00    -0.235 OA
HETATM    8  C   1WU A 501      29.625  44.291  55.875  0.00  0.00     0.143 C 
HETATM    9  O   1WU A 501      30.382  43.019  53.862  0.00  0.00    -0.062 OA
HETATM   10  N   1WU A 501      30.474  43.415  55.114  0.00  0.00    -0.113 N 
ENDROOT
BRANCH   1  11
HETATM   11  O   1WU A 501      27.017  46.587  55.430  0.00  0.00    -0.356 OA
BRANCH  11  12
HETATM   12  C   1WU A 501      26.806  46.054  54.152  0.00  0.00     0.148 C 
HETATM   13  C   1WU A 501      25.660  45.049  54.218  0.00  0.00     0.188 C 
HETATM   14  F   1WU A 501      26.047  43.975  55.016  0.00  0.00    -0.235 F 
HETATM   15  C   1WU A 501      25.287  44.527  52.833  0.00  0.00     0.040 C 
HETATM   16  C   1WU A 501      24.979  45.666  51.866  0.00  0.00     0.042 C 
HETATM   17  C   1WU A 501      26.126  46.672  51.799  0.00  0.00     0.005 C 
HETATM   18  C   1WU A 501      26.499  47.194  53.185  0.00  0.00     0.033 C 
BRANCH  16  19
HETATM   19  C   1WU A 501      24.750  45.086  50.477  0.00  0.00     0.338 C 
HETATM   20  N   1WU A 501      25.813  45.503  49.602  0.00  0.00     0.618 N 
ENDBRANCH  16  19
ENDBRANCH  11  12
ENDBRANCH   1  11
TORSDOF 3
ENDMDL
MODEL 3
REMARK VINA RESULT:      -7.2      1.845      2.383
REMARK  3 active torsions:
REMARK  status: ('A' for Active; 'I' for Inactive)
REMARK    1  A    between atoms: C_4  and  C_5 
REMARK    2  A    between atoms: C_9  and  O_10 
REMARK    3  A    between atoms: O_10  and  C_11 
ROOT
HETATM    1  C   1WU A 501      27.945  42.785  52.561  0.00  0.00     0.117 C 
HETATM    2  C   1WU A 501      28.706  41.529  52.159  0.00  0.00     0.057 C 
HETATM    3  C   1WU A 501      26.784  43.362  51.403  0.00  0.00     0.030 C 
HETATM    4  C   1WU A 501      26.016  42.283  50.650  0.00  0.00     0.007 C 
HETATM    5  C   1WU A 501      26.599  40.917  50.986  0.00  0.00     0.058 C 
HETATM    6  C   1WU A 501      26.183  39.911  49.921  0.00  0.00     0.178 C 
HETATM    7  O   1WU A 501      27.296  39.068  49.798  0.00  0.00    -0.235 OA
HETATM    8  C   1WU A 501      28.117  40.970  50.869  0.00  0.00     0.143 C 
HETATM    9  O   1WU A 501      29.542  38.947  51.209  0.00  0.00    -0.062 OA
HETATM   10  N   1WU A 501      28.503  39.593  50.725  0.00  0.00    -0.113 N 
ENDROOT
BRANCH   1  11
HETATM   11  O   1WU A 501      28.881  43.806  52.778  0.00  0.00    -0.356 OA
BRANCH  11  12
HETATM   12  C   1WU A 501      28.955  44.002  54.163  0.00  0.00     0.148 C 
HETATM   13  C   1WU A 501      30.418  43.957  54.593  0.00  0.00     0.188 C 
HETATM   14  F   1WU A 501      30.916  42.676  54.366  0.00  0.00    -0.235 F 
HETATM   15  C   1WU A 501      30.582  44.296  56.072  0.00  0.00     0.040 C 
HETATM   16  C   1WU A 501      29.936  45.635  56.418  0.00  0.00     0.042 C 
HETATM   17  C   1WU A 501      28.471  45.679  55.988  0.00  0.00     0.005 C 
HETATM   18  C   1WU A 501      28.308  45.340  54.509  0.00  0.00     0.033 C 
BRANCH  16  19
HETATM   19  C   1WU A 501      30.015  45.846  57.923  0.00  0.00     0.338 C 
HETATM   20  N   1WU A 501      31.070  45.033  58.467  0.00  0.00     0.618 N 
ENDBRANCH  16  19
ENDBRANCH  11  12
ENDBRANCH   1  11
TORSDOF 3
ENDMDL
MODEL 4
REMARK VINA RESULT:      -7.1      2.629      3.360
REMARK  3 active torsions:
REMARK  status: ('A' for Active; 'I' for Inactive)
REMARK    1  A    between atoms: C_4  and  C_5 
REMARK    2  A    between atoms: C_9  and  O_10 
REMARK    3  A    between atoms: O_10  and  C_11 
ROOT
HETATM    1  C   1WU A 501      26.335  44.032  51.904  0.00  0.00     0.117 C 
HETATM    2  C   1WU A 501      25.763  45.431  51.727  0.00  0.00     0.057 C 
HETATM    3  C   1WU A 501      25.397  42.745  51.206  0.00  0.00     0.030 C 
HETATM    4  C   1WU A 501      24.723  43.069  49.879  0.00  0.00     0.007 C 
HETATM    5  C   1WU A 501      24.903  44.548  49.566  0.00  0.00     0.058 C 
HETATM    6  C   1WU A 501      23.870  44.978  48.533  0.00  0.00     0.178 C 
HETATM    7  O   1WU A 501      23.538  46.287  48.909  0.00  0.00    -0.235 OA
HETATM    8  C   1WU A 501      24.556  45.373  50.799  0.00  0.00     0.143 C 
HETATM    9  O   1WU A 501      24.579  47.871  50.770  0.00  0.00    -0.062 OA
HETATM   10  N   1WU A 501      24.291  46.686  50.276  0.00  0.00    -0.113 N 
ENDROOT
BRANCH   1  11
HETATM   11  O   1WU A 501      26.451  43.783  53.279  0.00  0.00    -0.356 OA
BRANCH  11  12
HETATM   12  C   1WU A 501      27.772  44.084  53.636  0.00  0.00     0.148 C 
HETATM   13  C   1WU A 501      27.763  44.915  54.915  0.00  0.00     0.188 C 
HETATM   14  F   1WU A 501      27.155  46.140  54.652  0.00  0.00    -0.235 F 
HETATM   15  C   1WU A 501      29.176  45.166  55.435  0.00  0.00     0.040 C 
HETATM   16  C   1WU A 501      29.948  43.863  55.618  0.00  0.00     0.042 C 
HETATM   17  C   1WU A 501      29.958  43.031  54.337  0.00  0.00     0.005 C 
HETATM   18  C   1WU A 501      28.544  42.780  53.817  0.00  0.00     0.033 C 
BRANCH  16  19
HETATM   19  C   1WU A 501      31.384  44.190  56.004  0.00  0.00     0.338 C 
HETATM   20  N   1WU A 501      31.811  43.305  57.055  0.00  0.00     0.618 N 
ENDBRANCH  16  19
ENDBRANCH  11  12
ENDBRANCH   1  11
TORSDOF 3
ENDMDL
MODEL 5
REMARK VINA RESULT:      -7.0      2.539      7.456
REMARK  3 active torsions:
REMARK  status: ('A' for Active; 'I' for Inactive)
REMARK    1  A    between atoms: C_4  and  C_5 
REMARK    2  A    between atoms: C_9  and  O_10 
REMARK    3  A    between atoms: O_10  and  C_11 
ROOT
HETATM    1  C   1WU A 501      28.233  43.700  53.058  0.00  0.00     0.117 C 
HETATM    2  C   1WU A 501      28.180  44.749  54.159  0.00  0.00     0.057 C 
HETATM    3  C   1WU A 501      29.795  42.992  52.770  0.00  0.00     0.030 C 
HETATM    4  C   1WU A 501      30.647  42.757  54.011  0.00  0.00     0.007 C 
HETATM    5  C   1WU A 501      29.964  43.380  55.221  0.00  0.00     0.058 C 
HETATM    6  C   1WU A 501      30.985  43.571  56.336  0.00  0.00     0.178 C 
HETATM    7  O   1WU A 501      30.593  44.768  56.952  0.00  0.00    -0.235 OA
HETATM    8  C   1WU A 501      29.522  44.797  54.880  0.00  0.00     0.143 C 
HETATM    9  O   1WU A 501      28.452  46.292  56.571  0.00  0.00    -0.062 OA
HETATM   10  N   1WU A 501      29.355  45.427  56.162  0.00  0.00    -0.113 N 
ENDROOT
BRANCH   1  11
HETATM   11  O   1WU A 501      27.807  44.303  51.866  0.00  0.00    -0.356 OA
BRANCH  11  12
HETATM   12  C   1WU A 501      26.428  44.077  51.767  0.00  0.00     0.148 C 
HETATM   13  C   1WU A 501      25.773  45.290  51.113  0.00  0.00     0.188 C 
HETATM   14  F   1WU A 501      25.915  46.389  51.957  0.00  0.00    -0.235 F 
HETATM   15  C   1WU A 501      24.287  45.056  50.852  0.00  0.00     0.040 C 
HETATM   16  C   1WU A 501      24.051  43.786  50.041  0.00  0.00     0.042 C 
HETATM   17  C   1WU A 501      24.706  42.572  50.695  0.00  0.00     0.005 C 
HETATM   18  C   1WU A 501      26.192  42.806  50.956  0.00  0.00     0.033 C 
BRANCH  16  19
HETATM   19  C   1WU A 501      22.552  43.540  49.934  0.00  0.00     0.338 C 
HETATM   20  N   1WU A 501      21.965  44.526  49.066  0.00  0.00     0.618 N 
ENDBRANCH  16  19
ENDBRANCH  11  12
ENDBRANCH   1  11
TORSDOF 3
ENDMDL
MODEL 6
REMARK VINA RESULT:      -6.9      4.235      5.291
REMARK  3 active torsions:
REMARK  status: ('A' for Active; 'I' for Inactive)
REMARK    1  A    between atoms: C_4  and  C_5 
REMARK    2  A    between atoms: C_9  and  O_10 
REMARK    3  A    between atoms: O_10  and  C_11 
ROOT
HETATM    1  C   1WU A 501      25.641  47.190  50.899  0.00  0.00     0.117 C 
HETATM    2  C   1WU A 501      24.299  47.524  50.264  0.00  0.00     0.057 C 
HETATM    3  C   1WU A 501      27.031  47.416  49.878  0.00  0.00     0.030 C 
HETATM    4  C   1WU A 501      26.971  48.619  48.945  0.00  0.00     0.007 C 
HETATM    5  C   1WU A 501      25.587  49.249  49.018  0.00  0.00     0.058 C 
HETATM    6  C   1WU A 501      25.360  50.119  47.788  0.00  0.00     0.178 C 
HETATM    7  O   1WU A 501      23.999  49.952  47.501  0.00  0.00    -0.235 OA
HETATM    8  C   1WU A 501      24.527  48.161  48.899  0.00  0.00     0.143 C 
HETATM    9  O   1WU A 501      22.087  48.691  48.845  0.00  0.00    -0.062 OA
HETATM   10  N   1WU A 501      23.343  48.871  48.498  0.00  0.00    -0.113 N 
ENDROOT
BRANCH   1  11
HETATM   11  O   1WU A 501      25.610  45.845  51.292  0.00  0.00    -0.356 OA
BRANCH  11  12
HETATM   12  C   1WU A 501      25.937  45.812  52.655  0.00  0.00     0.148 C 
HETATM   13  C   1WU A 501      27.136  44.890  52.855  0.00  0.00     0.188 C 
HETATM   14  F   1WU A 501      26.764  43.589  52.525  0.00  0.00    -0.235 F 
HETATM   15  C   1WU A 501      27.629  44.912  54.299  0.00  0.00     0.040 C 
HETATM   16  C   1WU A 501      27.929  46.332  54.769  0.00  0.00     0.042 C 
HETATM   17  C   1WU A 501      26.729  47.255  54.570  0.00  0.00     0.005 C 
HETATM   18  C   1WU A 501      26.236  47.233  53.126  0.00  0.00     0.033 C 
BRANCH  16  19
HETATM   19  C   1WU A 501      28.283  46.296  56.250  0.00  0.00     0.338 C 
HETATM   20  N   1WU A 501      29.642  45.851  56.407  0.00  0.00     0.618 N 
ENDBRANCH  16  19
ENDBRANCH  11  12
ENDBRANCH   1  11
TORSDOF 3
ENDMDL
MODEL 7
REMARK VINA RESULT:      -6.9      2.532      6.737
REMARK  3 active torsions:
REMARK  status: ('A' for Active; 'I' for Inactive)
REMARK    1  A    between atoms: C_4  and  C_5 
REMARK    2  A    between atoms: C_9  and  O_10 
REMARK    3  A    between atoms: O_10  and  C_11 
ROOT
HETATM    1  C   1WU A 501      27.768  42.798  53.843  0.00  0.00     0.117 C 
HETATM    2  C   1WU A 501      27.534  44.225  54.319  0.00  0.00     0.057 C 
HETATM    3  C   1WU A 501      29.427  42.369  53.548  0.00  0.00     0.030 C 
HETATM    4  C   1WU A 501      30.442  42.966  54.515  0.00  0.00     0.007 C 
HETATM    5  C   1WU A 501      29.745  43.965  55.429  0.00  0.00     0.058 C 
HETATM    6  C   1WU A 501      30.781  44.891  56.053  0.00  0.00     0.178 C 
HETATM    7  O   1WU A 501      30.128  46.129  56.127  0.00  0.00    -0.235 OA
HETATM    8  C   1WU A 501      28.875  44.895  54.594  0.00  0.00     0.143 C 
HETATM    9  O   1WU A 501      27.609  46.792  55.613  0.00  0.00    -0.062 OA
HETATM   10  N   1WU A 501      28.673  46.038  55.443  0.00  0.00    -0.113 N 
ENDROOT
BRANCH   1  11
HETATM   11  O   1WU A 501      27.058  42.620  52.648  0.00  0.00    -0.356 OA
BRANCH  11  12
HETATM   12  C   1WU A 501      26.609  43.886  52.250  0.00  0.00     0.148 C 
HETATM   13  C   1WU A 501      27.259  44.246  50.917  0.00  0.00     0.188 C 
HETATM   14  F   1WU A 501      28.633  44.376  51.107  0.00  0.00    -0.235 F 
HETATM   15  C   1WU A 501      26.712  45.557  50.359  0.00  0.00     0.040 C 
HETATM   16  C   1WU A 501      25.190  45.530  50.251  0.00  0.00     0.042 C 
HETATM   17  C   1WU A 501      24.539  45.170  51.585  0.00  0.00     0.005 C 
HETATM   18  C   1WU A 501      25.086  43.860  52.143  0.00  0.00     0.033 C 
BRANCH  16  19
HETATM   19  C   1WU A 501      24.702  46.906  49.820  0.00  0.00     0.338 C 
HETATM   20  N   1WU A 501      25.823  47.805  49.725  0.00  0.00     0.618 N 
ENDBRANCH  16  19
ENDBRANCH  11  12
ENDBRANCH   1  11
TORSDOF 3
ENDMDL
MODEL 8
REMARK VINA RESULT:      -6.7      1.818      2.212
REMARK  3 active torsions:
REMARK  status: ('A' for Active; 'I' for Inactive)
REMARK    1  A    between atoms: C_4  and  C_5 
REMARK    2  A    between atoms: C_9  and  O_10 
REMARK    3  A    between atoms: O_10  and  C_11 
ROOT
HETATM    1  C   1WU A 501      26.749  44.068  51.621  0.00  0.00     0.117 C 
HETATM    2  C   1WU A 501      25.380  43.429  51.430  0.00  0.00     0.057 C 
HETATM    3  C   1WU A 501      27.299  45.069  50.311  0.00  0.00     0.030 C 
HETATM    4  C   1WU A 501      26.224  45.900  49.623  0.00  0.00     0.007 C 
HETATM    5  C   1WU A 501      24.856  45.503  50.161  0.00  0.00     0.058 C 
HETATM    6  C   1WU A 501      23.776  45.955  49.185  0.00  0.00     0.178 C 
HETATM    7  O   1WU A 501      22.812  44.941  49.253  0.00  0.00    -0.235 OA
HETATM    8  C   1WU A 501      24.733  43.985  50.167  0.00  0.00     0.143 C 
HETATM    9  O   1WU A 501      22.628  42.829  50.853  0.00  0.00    -0.062 OA
HETATM   10  N   1WU A 501      23.315  43.750  50.213  0.00  0.00    -0.113 N 
ENDROOT
BRANCH   1  11
HETATM   11  O   1WU A 501      27.684  43.038  51.799  0.00  0.00    -0.356 OA
BRANCH  11  12
HETATM   12  C   1WU A 501      28.160  43.144  53.112  0.00  0.00     0.148 C 
HETATM   13  C   1WU A 501      29.650  42.813  53.128  0.00  0.00     0.188 C 
HETATM   14  F   1WU A 501      29.819  41.477  52.772  0.00  0.00    -0.235 F 
HETATM   15  C   1WU A 501      30.263  43.038  54.508  0.00  0.00     0.040 C 
HETATM   16  C   1WU A 501      29.996  44.450  55.018  0.00  0.00     0.042 C 
HETATM   17  C   1WU A 501      28.505  44.781  55.003  0.00  0.00     0.005 C 
HETATM   18  C   1WU A 501      27.892  44.556  53.624  0.00  0.00     0.033 C 
BRANCH  16  19
HETATM   19  C   1WU A 501      30.512  44.564  56.446  0.00  0.00     0.338 C 
HETATM   20  N   1WU A 501      31.454  43.507  56.701  0.00  0.00     0.618 N 
ENDBRANCH  16  19
ENDBRANCH  11  12
ENDBRANCH   1  11
TORSDOF 3
ENDMDL
MODEL 9
REMARK VINA RESULT:      -6.7      2.680      3.605
REMARK  3 active torsions:
REMARK  status: ('A' for Active; 'I' for Inactive)
REMARK    1  A    between atoms: C_4  and  C_5 
REMARK    2  A    between atoms: C_9  and  O_10 
REMARK    3  A    between atoms: O_10  and  C_11 
ROOT
HETATM    1  C   1WU A 501      27.528  41.656  51.320  0.00  0.00     0.117 C 
HETATM    2  C   1WU A 501      28.554  40.533  51.270  0.00  0.00     0.057 C 
HETATM    3  C   1WU A 501      26.474  41.771  49.941  0.00  0.00     0.030 C 
HETATM    4  C   1WU A 501      26.038  40.443  49.336  0.00  0.00     0.007 C 
HETATM    5  C   1WU A 501      26.797  39.307  50.007  0.00  0.00     0.058 C 
HETATM    6  C   1WU A 501      26.737  38.066  49.124  0.00  0.00     0.178 C 
HETATM    7  O   1WU A 501      27.988  37.461  49.304  0.00  0.00    -0.235 OA
HETATM    8  C   1WU A 501      28.280  39.649  50.059  0.00  0.00     0.143 C 
HETATM    9  O   1WU A 501      29.976  38.053  50.963  0.00  0.00    -0.062 OA
HETATM   10  N   1WU A 501      28.925  38.376  50.241  0.00  0.00    -0.113 N 
ENDROOT
BRANCH   1  11
HETATM   11  O   1WU A 501      28.221  42.870  51.434  0.00  0.00    -0.356 OA
BRANCH  11  12
HETATM   12  C   1WU A 501      28.136  43.261  52.777  0.00  0.00     0.148 C 
HETATM   13  C   1WU A 501      29.541  43.543  53.301  0.00  0.00     0.188 C 
HETATM   14  F   1WU A 501      30.269  42.356  53.300  0.00  0.00    -0.235 F 
HETATM   15  C   1WU A 501      29.510  44.103  54.721  0.00  0.00     0.040 C 
HETATM   16  C   1WU A 501      28.616  45.335  54.821  0.00  0.00     0.042 C 
HETATM   17  C   1WU A 501      27.210  45.052  54.297  0.00  0.00     0.005 C 
HETATM   18  C   1WU A 501      27.240  44.493  52.877  0.00  0.00     0.033 C 
BRANCH  16  19
HETATM   19  C   1WU A 501      28.523  45.759  56.280  0.00  0.00     0.338 C 
HETATM   20  N   1WU A 501      29.844  45.836  56.843  0.00  0.00     0.618 N 
ENDBRANCH  16  19
ENDBRANCH  11  12
ENDBRANCH   1  11
TORSDOF 3
ENDMDL
MODEL 10
REMARK VINA RESULT:      -6.6      3.221      7.033
REMARK  3 active torsions:
REMARK  status: ('A' for Active; 'I' for Inactive)
REMARK    1  A    between atoms: C_4  and  C_5 
REMARK    2  A    between atoms: C_9  and  O_10 
REMARK    3  A    between atoms: O_10  and  C_11 
ROOT
HETATM    1  C   1WU A 501      27.274  45.174  53.381  0.00  0.00     0.117 C 
HETATM    2  C   1WU A 501      28.308  44.075  53.182  0.00  0.00     0.057 C 
HETATM    3  C   1WU A 501      27.004  45.661  55.029  0.00  0.00     0.030 C 
HETATM    4  C   1WU A 501      28.242  45.686  55.917  0.00  0.00     0.007 C 
HETATM    5  C   1WU A 501      29.422  45.093  55.159  0.00  0.00     0.058 C 
HETATM    6  C   1WU A 501      30.504  44.681  56.149  0.00  0.00     0.178 C 
HETATM    7  O   1WU A 501      31.050  43.518  55.589  0.00  0.00    -0.235 OA
HETATM    8  C   1WU A 501      29.000  43.783  54.508  0.00  0.00     0.143 C 
HETATM    9  O   1WU A 501      30.612  42.355  53.242  0.00  0.00    -0.062 OA
HETATM   10  N   1WU A 501      30.242  43.102  54.260  0.00  0.00    -0.113 N 
ENDROOT
BRANCH   1  11
HETATM   11  O   1WU A 501      26.055  44.719  52.861  0.00  0.00    -0.356 OA
BRANCH  11  12
HETATM   12  C   1WU A 501      25.847  45.405  51.656  0.00  0.00     0.148 C 
HETATM   13  C   1WU A 501      24.419  45.150  51.181  0.00  0.00     0.188 C 
HETATM   14  F   1WU A 501      24.280  43.798  50.876  0.00  0.00    -0.235 F 
HETATM   15  C   1WU A 501      24.081  45.974  49.942  0.00  0.00     0.040 C 
HETATM   16  C   1WU A 501      24.341  47.461  50.167  0.00  0.00     0.042 C 
HETATM   17  C   1WU A 501      25.770  47.716  50.641  0.00  0.00     0.005 C 
HETATM   18  C   1WU A 501      26.108  46.891  51.881  0.00  0.00     0.033 C 
BRANCH  16  19
HETATM   19  C   1WU A 501      24.116  48.204  48.858  0.00  0.00     0.338 C 
HETATM   20  N   1WU A 501      25.097  49.248  48.724  0.00  0.00     0.618 N 
ENDBRANCH  16  19
ENDBRANCH  11  12
ENDBRANCH   1  11
TORSDOF 3
ENDMDL
