MODEL 1
REMARK VINA RESULT:      -7.4      0.000      0.000
REMARK  3 active torsions:
REMARK  status: ('A' for Active; 'I' for Inactive)
REMARK    1  A    between atoms: C_4  and  C_5 
REMARK    2  A    between atoms: C_9  and  O_10 
REMARK    3  A    between atoms: O_10  and  C_11 
ROOT
HETATM    1  C   1WU A 501     -40.778  53.565 -51.913  0.00  0.00     0.117 C 
HETATM    2  C   1WU A 501     -40.247  52.275 -51.303  0.00  0.00     0.057 C 
HETATM    3  C   1WU A 501     -40.331  53.852 -53.568  0.00  0.00     0.030 C 
HETATM    4  C   1WU A 501     -40.284  52.617 -54.459  0.00  0.00     0.007 C 
HETATM    5  C   1WU A 501     -40.480  51.370 -53.608  0.00  0.00     0.058 C 
HETATM    6  C   1WU A 501     -39.975  50.152 -54.370  0.00  0.00     0.178 C 
HETATM    7  O   1WU A 501     -39.424  49.334 -53.374  0.00  0.00    -0.235 OA
HETATM    8  C   1WU A 501     -39.574  51.442 -52.386  0.00  0.00     0.143 C 
HETATM    9  O   1WU A 501     -39.435  49.577 -50.730  0.00  0.00    -0.062 OA
HETATM   10  N   1WU A 501     -39.474  50.076 -51.946  0.00  0.00    -0.113 N 
ENDROOT
BRANCH   1  11
HETATM   11  O   1WU A 501     -40.299  54.635 -51.145  0.00  0.00    -0.356 OA
BRANCH  11  12
HETATM   12  C   1WU A 501     -41.414  55.392 -50.761  0.00  0.00     0.148 C 
HETATM   13  C   1WU A 501     -41.339  56.760 -51.431  0.00  0.00     0.188 C 
HETATM   14  F   1WU A 501     -40.231  57.444 -50.937  0.00  0.00    -0.235 F 
HETATM   15  C   1WU A 501     -42.592  57.589 -51.162  0.00  0.00     0.040 C 
HETATM   16  C   1WU A 501     -43.860  56.838 -51.558  0.00  0.00     0.042 C 
HETATM   17  C   1WU A 501     -43.935  55.468 -50.887  0.00  0.00     0.005 C 
HETATM   18  C   1WU A 501     -42.682  54.640 -51.156  0.00  0.00     0.033 C 
BRANCH  16  19
HETATM   19  C   1WU A 501     -45.071  57.660 -51.140  0.00  0.00     0.338 C 
HETATM   20  N   1WU A 501     -44.700  59.047 -51.044  0.00  0.00     0.618 N 
ENDBRANCH  16  19
ENDBRANCH  11  12
ENDBRANCH   1  11
TORSDOF 3
ENDMDL
MODEL 2
REMARK VINA RESULT:      -7.2      2.583      7.135
REMARK  3 active torsions:
REMARK  status: ('A' for Active; 'I' for Inactive)
REMARK    1  A    between atoms: C_4  and  C_5 
REMARK    2  A    between atoms: C_9  and  O_10 
REMARK    3  A    between atoms: O_10  and  C_11 
ROOT
HETATM    1  C   1WU A 501     -42.440  55.913 -51.988  0.00  0.00     0.117 C 
HETATM    2  C   1WU A 501     -41.383  56.955 -52.326  0.00  0.00     0.057 C 
HETATM    3  C   1WU A 501     -43.854  56.514 -51.174  0.00  0.00     0.030 C 
HETATM    4  C   1WU A 501     -44.336  57.887 -51.624  0.00  0.00     0.007 C 
HETATM    5  C   1WU A 501     -43.324  58.488 -52.590  0.00  0.00     0.058 C 
HETATM    6  C   1WU A 501     -43.535  59.995 -52.673  0.00  0.00     0.178 C 
HETATM    7  O   1WU A 501     -42.240  60.512 -52.815  0.00  0.00    -0.235 OA
HETATM    8  C   1WU A 501     -41.923  58.345 -52.011  0.00  0.00     0.143 C 
HETATM    9  O   1WU A 501     -39.912  59.280 -53.161  0.00  0.00    -0.062 OA
HETATM   10  N   1WU A 501     -41.150  59.330 -52.719  0.00  0.00    -0.113 N 
ENDROOT
BRANCH   1  11
HETATM   11  O   1WU A 501     -41.845  54.948 -51.162  0.00  0.00    -0.356 OA
BRANCH  11  12
HETATM   12  C   1WU A 501     -40.973  54.205 -51.969  0.00  0.00     0.148 C 
HETATM   13  C   1WU A 501     -40.272  53.158 -51.107  0.00  0.00     0.188 C 
HETATM   14  F   1WU A 501     -39.465  53.807 -50.176  0.00  0.00    -0.235 F 
HETATM   15  C   1WU A 501     -39.405  52.225 -51.949  0.00  0.00     0.040 C 
HETATM   16  C   1WU A 501     -40.203  51.581 -53.078  0.00  0.00     0.042 C 
HETATM   17  C   1WU A 501     -40.904  52.629 -53.940  0.00  0.00     0.005 C 
HETATM   18  C   1WU A 501     -41.771  53.562 -53.099  0.00  0.00     0.033 C 
BRANCH  16  19
HETATM   19  C   1WU A 501     -39.255  50.775 -53.955  0.00  0.00     0.338 C 
HETATM   20  N   1WU A 501     -39.994  49.755 -54.650  0.00  0.00     0.618 N 
ENDBRANCH  16  19
ENDBRANCH  11  12
ENDBRANCH   1  11
TORSDOF 3
ENDMDL
MODEL 3
REMARK VINA RESULT:      -6.9      1.647      2.053
REMARK  3 active torsions:
REMARK  status: ('A' for Active; 'I' for Inactive)
REMARK    1  A    between atoms: C_4  and  C_5 
REMARK    2  A    between atoms: C_9  and  O_10 
REMARK    3  A    between atoms: O_10  and  C_11 
ROOT
HETATM    1  C   1WU A 501     -41.358  55.014 -53.188  0.00  0.00     0.117 C 
HETATM    2  C   1WU A 501     -41.008  54.113 -52.013  0.00  0.00     0.057 C 
HETATM    3  C   1WU A 501     -40.454  54.730 -54.646  0.00  0.00     0.030 C 
HETATM    4  C   1WU A 501     -40.135  53.271 -54.947  0.00  0.00     0.007 C 
HETATM    5  C   1WU A 501     -40.553  52.407 -53.765  0.00  0.00     0.058 C 
HETATM    6  C   1WU A 501     -39.832  51.066 -53.837  0.00  0.00     0.178 C 
HETATM    7  O   1WU A 501     -39.581  50.743 -52.497  0.00  0.00    -0.235 OA
HETATM    8  C   1WU A 501     -40.039  53.031 -52.474  0.00  0.00     0.143 C 
HETATM    9  O   1WU A 501     -40.360  51.932 -50.253  0.00  0.00    -0.062 OA
HETATM   10  N   1WU A 501     -40.052  51.944 -51.532  0.00  0.00    -0.113 N 
ENDROOT
BRANCH   1  11
HETATM   11  O   1WU A 501     -41.135  56.342 -52.795  0.00  0.00    -0.356 OA
BRANCH  11  12
HETATM   12  C   1WU A 501     -42.372  56.856 -52.382  0.00  0.00     0.148 C 
HETATM   13  C   1WU A 501     -42.140  58.170 -51.643  0.00  0.00     0.188 C 
HETATM   14  F   1WU A 501     -41.429  57.911 -50.474  0.00  0.00    -0.235 F 
HETATM   15  C   1WU A 501     -43.456  58.853 -51.280  0.00  0.00     0.040 C 
HETATM   16  C   1WU A 501     -44.345  59.046 -52.504  0.00  0.00     0.042 C 
HETATM   17  C   1WU A 501     -44.578  57.730 -53.243  0.00  0.00     0.005 C 
HETATM   18  C   1WU A 501     -43.262  57.048 -53.606  0.00  0.00     0.033 C 
BRANCH  16  19
HETATM   19  C   1WU A 501     -45.689  59.604 -52.054  0.00  0.00     0.338 C 
HETATM   20  N   1WU A 501     -45.892  59.302 -50.662  0.00  0.00     0.618 N 
ENDBRANCH  16  19
ENDBRANCH  11  12
ENDBRANCH   1  11
TORSDOF 3
ENDMDL
MODEL 4
REMARK VINA RESULT:      -6.9      2.030      2.797
REMARK  3 active torsions:
REMARK  status: ('A' for Active; 'I' for Inactive)
REMARK    1  A    between atoms: C_4  and  C_5 
REMARK    2  A    between atoms: C_9  and  O_10 
REMARK    3  A    between atoms: O_10  and  C_11 
ROOT
HETATM    1  C   1WU A 501     -40.096  53.361 -50.635  0.00  0.00     0.117 C 
HETATM    2  C   1WU A 501     -40.346  53.622 -52.114  0.00  0.00     0.057 C 
HETATM    3  C   1WU A 501     -40.317  51.716 -50.117  0.00  0.00     0.030 C 
HETATM    4  C   1WU A 501     -39.867  50.649 -51.107  0.00  0.00     0.007 C 
HETATM    5  C   1WU A 501     -39.481  51.310 -52.423  0.00  0.00     0.058 C 
HETATM    6  C   1WU A 501     -39.491  50.269 -53.536  0.00  0.00     0.178 C 
HETATM    7  O   1WU A 501     -39.956  50.973 -54.655  0.00  0.00    -0.235 OA
HETATM    8  C   1WU A 501     -40.567  52.297 -52.833  0.00  0.00     0.143 C 
HETATM    9  O   1WU A 501     -40.464  53.559 -54.986  0.00  0.00    -0.062 OA
HETATM   10  N   1WU A 501     -40.358  52.478 -54.245  0.00  0.00    -0.113 N 
ENDROOT
BRANCH   1  11
HETATM   11  O   1WU A 501     -40.977  54.166 -49.900  0.00  0.00    -0.356 OA
BRANCH  11  12
HETATM   12  C   1WU A 501     -41.528  55.090 -50.798  0.00  0.00     0.148 C 
HETATM   13  C   1WU A 501     -43.050  55.008 -50.722  0.00  0.00     0.188 C 
HETATM   14  F   1WU A 501     -43.457  53.754 -51.173  0.00  0.00    -0.235 F 
HETATM   15  C   1WU A 501     -43.716  56.081 -51.579  0.00  0.00     0.040 C 
HETATM   16  C   1WU A 501     -43.211  57.477 -51.225  0.00  0.00     0.042 C 
HETATM   17  C   1WU A 501     -41.688  57.559 -51.301  0.00  0.00     0.005 C 
HETATM   18  C   1WU A 501     -41.022  56.486 -50.445  0.00  0.00     0.033 C 
BRANCH  16  19
HETATM   19  C   1WU A 501     -43.809  58.480 -52.202  0.00  0.00     0.338 C 
HETATM   20  N   1WU A 501     -44.616  57.785 -53.169  0.00  0.00     0.618 N 
ENDBRANCH  16  19
ENDBRANCH  11  12
ENDBRANCH   1  11
TORSDOF 3
ENDMDL
MODEL 5
REMARK VINA RESULT:      -6.9      3.141      7.462
REMARK  3 active torsions:
REMARK  status: ('A' for Active; 'I' for Inactive)
REMARK    1  A    between atoms: C_4  and  C_5 
REMARK    2  A    between atoms: C_9  and  O_10 
REMARK    3  A    between atoms: O_10  and  C_11 
ROOT
HETATM    1  C   1WU A 501     -42.241  56.547 -52.624  0.00  0.00     0.117 C 
HETATM    2  C   1WU A 501     -43.561  57.006 -52.022  0.00  0.00     0.057 C 
HETATM    3  C   1WU A 501     -41.178  57.816 -53.158  0.00  0.00     0.030 C 
HETATM    4  C   1WU A 501     -41.160  59.066 -52.288  0.00  0.00     0.007 C 
HETATM    5  C   1WU A 501     -42.243  58.959 -51.224  0.00  0.00     0.058 C 
HETATM    6  C   1WU A 501     -42.551  60.345 -50.672  0.00  0.00     0.178 C 
HETATM    7  O   1WU A 501     -43.931  60.314 -50.427  0.00  0.00    -0.235 OA
HETATM    8  C   1WU A 501     -43.550  58.523 -51.872  0.00  0.00     0.143 C 
HETATM    9  O   1WU A 501     -45.670  58.312 -50.567  0.00  0.00    -0.062 OA
HETATM   10  N   1WU A 501     -44.558  58.917 -50.924  0.00  0.00    -0.113 N 
ENDROOT
BRANCH   1  11
HETATM   11  O   1WU A 501     -42.530  55.734 -53.729  0.00  0.00    -0.356 OA
BRANCH  11  12
HETATM   12  C   1WU A 501     -42.145  54.431 -53.387  0.00  0.00     0.148 C 
HETATM   13  C   1WU A 501     -41.779  53.672 -54.659  0.00  0.00     0.188 C 
HETATM   14  F   1WU A 501     -42.920  53.534 -55.445  0.00  0.00    -0.235 F 
HETATM   15  C   1WU A 501     -41.222  52.285 -54.347  0.00  0.00     0.040 C 
HETATM   16  C   1WU A 501     -40.046  52.356 -53.378  0.00  0.00     0.042 C 
HETATM   17  C   1WU A 501     -40.412  53.115 -52.105  0.00  0.00     0.005 C 
HETATM   18  C   1WU A 501     -40.969  54.502 -52.416  0.00  0.00     0.033 C 
BRANCH  16  19
HETATM   19  C   1WU A 501     -39.628  50.940 -53.006  0.00  0.00     0.338 C 
HETATM   20  N   1WU A 501     -39.902  50.054 -54.106  0.00  0.00     0.618 N 
ENDBRANCH  16  19
ENDBRANCH  11  12
ENDBRANCH   1  11
TORSDOF 3
ENDMDL
MODEL 6
REMARK VINA RESULT:      -6.8      5.591      7.723
REMARK  3 active torsions:
REMARK  status: ('A' for Active; 'I' for Inactive)
REMARK    1  A    between atoms: C_4  and  C_5 
REMARK    2  A    between atoms: C_9  and  O_10 
REMARK    3  A    between atoms: O_10  and  C_11 
ROOT
HETATM    1  C   1WU A 501     -42.457  56.206 -56.887  0.00  0.00     0.117 C 
HETATM    2  C   1WU A 501     -42.156  57.696 -56.801  0.00  0.00     0.057 C 
HETATM    3  C   1WU A 501     -43.362  55.704 -58.285  0.00  0.00     0.030 C 
HETATM    4  C   1WU A 501     -43.026  56.433 -59.580  0.00  0.00     0.007 C 
HETATM    5  C   1WU A 501     -42.070  57.580 -59.284  0.00  0.00     0.058 C 
HETATM    6  C   1WU A 501     -42.102  58.577 -60.436  0.00  0.00     0.178 C 
HETATM    7  O   1WU A 501     -41.950  59.822 -59.811  0.00  0.00    -0.235 OA
HETATM    8  C   1WU A 501     -42.588  58.377 -58.094  0.00  0.00     0.143 C 
HETATM    9  O   1WU A 501     -41.435  60.439 -57.279  0.00  0.00    -0.062 OA
HETATM   10  N   1WU A 501     -41.924  59.648 -58.210  0.00  0.00    -0.113 N 
ENDROOT
BRANCH   1  11
HETATM   11  O   1WU A 501     -43.191  55.847 -55.748  0.00  0.00    -0.356 OA
BRANCH  11  12
HETATM   12  C   1WU A 501     -42.270  55.366 -54.808  0.00  0.00     0.148 C 
HETATM   13  C   1WU A 501     -43.030  54.664 -53.685  0.00  0.00     0.188 C 
HETATM   14  F   1WU A 501     -43.804  55.604 -53.009  0.00  0.00    -0.235 F 
HETATM   15  C   1WU A 501     -42.080  53.998 -52.693  0.00  0.00     0.040 C 
HETATM   16  C   1WU A 501     -41.110  53.051 -53.391  0.00  0.00     0.042 C 
HETATM   17  C   1WU A 501     -40.349  53.754 -54.514  0.00  0.00     0.005 C 
HETATM   18  C   1WU A 501     -41.298  54.419 -55.507  0.00  0.00     0.033 C 
BRANCH  16  19
HETATM   19  C   1WU A 501     -40.109  52.529 -52.369  0.00  0.00     0.338 C 
HETATM   20  N   1WU A 501     -40.073  53.416 -51.236  0.00  0.00     0.618 N 
ENDBRANCH  16  19
ENDBRANCH  11  12
ENDBRANCH   1  11
TORSDOF 3
ENDMDL
MODEL 7
REMARK VINA RESULT:      -6.8      3.849      7.127
REMARK  3 active torsions:
REMARK  status: ('A' for Active; 'I' for Inactive)
REMARK    1  A    between atoms: C_4  and  C_5 
REMARK    2  A    between atoms: C_9  and  O_10 
REMARK    3  A    between atoms: O_10  and  C_11 
ROOT
HETATM    1  C   1WU A 501     -42.358  55.434 -53.978  0.00  0.00     0.117 C 
HETATM    2  C   1WU A 501     -42.438  55.706 -55.474  0.00  0.00     0.057 C 
HETATM    3  C   1WU A 501     -42.895  56.730 -52.950  0.00  0.00     0.030 C 
HETATM    4  C   1WU A 501     -44.095  57.518 -53.461  0.00  0.00     0.007 C 
HETATM    5  C   1WU A 501     -44.431  57.069 -54.877  0.00  0.00     0.058 C 
HETATM    6  C   1WU A 501     -45.282  58.133 -55.557  0.00  0.00     0.178 C 
HETATM    7  O   1WU A 501     -44.856  58.106 -56.892  0.00  0.00    -0.235 OA
HETATM    8  C   1WU A 501     -43.158  57.028 -55.711  0.00  0.00     0.143 C 
HETATM    9  O   1WU A 501     -43.187  56.463 -58.145  0.00  0.00    -0.062 OA
HETATM   10  N   1WU A 501     -43.629  57.078 -57.069  0.00  0.00    -0.113 N 
ENDROOT
BRANCH   1  11
HETATM   11  O   1WU A 501     -41.020  55.159 -53.661  0.00  0.00    -0.356 OA
BRANCH  11  12
HETATM   12  C   1WU A 501     -40.979  53.843 -53.181  0.00  0.00     0.148 C 
HETATM   13  C   1WU A 501     -40.010  53.034 -54.038  0.00  0.00     0.188 C 
HETATM   14  F   1WU A 501     -40.517  52.948 -55.332  0.00  0.00    -0.235 F 
HETATM   15  C   1WU A 501     -39.815  51.623 -53.488  0.00  0.00     0.040 C 
HETATM   16  C   1WU A 501     -39.387  51.643 -52.024  0.00  0.00     0.042 C 
HETATM   17  C   1WU A 501     -40.357  52.453 -51.166  0.00  0.00     0.005 C 
HETATM   18  C   1WU A 501     -40.551  53.864 -51.716  0.00  0.00     0.033 C 
BRANCH  16  19
HETATM   19  C   1WU A 501     -39.343  50.214 -51.503  0.00  0.00     0.338 C 
HETATM   20  N   1WU A 501     -40.078  50.130 -50.269  0.00  0.00     0.618 N 
ENDBRANCH  16  19
ENDBRANCH  11  12
ENDBRANCH   1  11
TORSDOF 3
ENDMDL
MODEL 8
REMARK VINA RESULT:      -6.8     13.888     15.193
REMARK  3 active torsions:
REMARK  status: ('A' for Active; 'I' for Inactive)
REMARK    1  A    between atoms: C_4  and  C_5 
REMARK    2  A    between atoms: C_9  and  O_10 
REMARK    3  A    between atoms: O_10  and  C_11 
ROOT
HETATM    1  C   1WU A 501     -35.255  41.182 -53.073  0.00  0.00     0.117 C 
HETATM    2  C   1WU A 501     -36.013  39.901 -52.753  0.00  0.00     0.057 C 
HETATM    3  C   1WU A 501     -34.602  42.029 -51.702  0.00  0.00     0.030 C 
HETATM    4  C   1WU A 501     -34.060  41.148 -50.584  0.00  0.00     0.007 C 
HETATM    5  C   1WU A 501     -34.392  39.692 -50.879  0.00  0.00     0.058 C 
HETATM    6  C   1WU A 501     -34.290  38.879 -49.595  0.00  0.00     0.178 C 
HETATM    7  O   1WU A 501     -35.313  37.928 -49.714  0.00  0.00    -0.235 OA
HETATM    8  C   1WU A 501     -35.858  39.576 -51.273  0.00  0.00     0.143 C 
HETATM    9  O   1WU A 501     -36.931  37.370 -51.744  0.00  0.00    -0.062 OA
HETATM   10  N   1WU A 501     -36.169  38.189 -51.053  0.00  0.00    -0.113 N 
ENDROOT
BRANCH   1  11
HETATM   11  O   1WU A 501     -36.134  42.049 -53.737  0.00  0.00    -0.356 OA
BRANCH  11  12
HETATM   12  C   1WU A 501     -36.276  41.562 -55.043  0.00  0.00     0.148 C 
HETATM   13  C   1WU A 501     -37.732  41.719 -55.475  0.00  0.00     0.188 C 
HETATM   14  F   1WU A 501     -38.529  40.902 -54.678  0.00  0.00    -0.235 F 
HETATM   15  C   1WU A 501     -37.931  41.330 -56.937  0.00  0.00     0.040 C 
HETATM   16  C   1WU A 501     -36.986  42.097 -57.857  0.00  0.00     0.042 C 
HETATM   17  C   1WU A 501     -35.530  41.939 -57.426  0.00  0.00     0.005 C 
HETATM   18  C   1WU A 501     -35.330  42.328 -55.963  0.00  0.00     0.033 C 
BRANCH  16  19
HETATM   19  C   1WU A 501     -37.140  41.566 -59.276  0.00  0.00     0.338 C 
HETATM   20  N   1WU A 501     -37.298  42.669 -60.186  0.00  0.00     0.618 N 
ENDBRANCH  16  19
ENDBRANCH  11  12
ENDBRANCH   1  11
TORSDOF 3
ENDMDL
MODEL 9
REMARK VINA RESULT:      -6.7      5.804      7.075
REMARK  3 active torsions:
REMARK  status: ('A' for Active; 'I' for Inactive)
REMARK    1  A    between atoms: C_4  and  C_5 
REMARK    2  A    between atoms: C_9  and  O_10 
REMARK    3  A    between atoms: O_10  and  C_11 
ROOT
HETATM    1  C   1WU A 501     -42.760  56.532 -56.711  0.00  0.00     0.117 C 
HETATM    2  C   1WU A 501     -43.234  55.237 -57.357  0.00  0.00     0.057 C 
HETATM    3  C   1WU A 501     -42.527  57.870 -57.797  0.00  0.00     0.030 C 
HETATM    4  C   1WU A 501     -43.536  57.977 -58.933  0.00  0.00     0.007 C 
HETATM    5  C   1WU A 501     -44.427  56.743 -58.937  0.00  0.00     0.058 C 
HETATM    6  C   1WU A 501     -45.096  56.604 -60.300  0.00  0.00     0.178 C 
HETATM    7  O   1WU A 501     -45.151  55.220 -60.511  0.00  0.00    -0.235 OA
HETATM    8  C   1WU A 501     -43.565  55.493 -58.823  0.00  0.00     0.143 C 
HETATM    9  O   1WU A 501     -44.544  53.196 -58.902  0.00  0.00    -0.062 OA
HETATM   10  N   1WU A 501     -44.411  54.439 -59.313  0.00  0.00    -0.113 N 
ENDROOT
BRANCH   1  11
HETATM   11  O   1WU A 501     -41.537  56.275 -56.076  0.00  0.00    -0.356 OA
BRANCH  11  12
HETATM   12  C   1WU A 501     -41.799  55.361 -55.046  0.00  0.00     0.148 C 
HETATM   13  C   1WU A 501     -40.509  54.624 -54.697  0.00  0.00     0.188 C 
HETATM   14  F   1WU A 501     -40.118  53.857 -55.792  0.00  0.00    -0.235 F 
HETATM   15  C   1WU A 501     -40.692  53.707 -53.491  0.00  0.00     0.040 C 
HETATM   16  C   1WU A 501     -41.249  54.463 -52.289  0.00  0.00     0.042 C 
HETATM   17  C   1WU A 501     -42.541  55.200 -52.638  0.00  0.00     0.005 C 
HETATM   18  C   1WU A 501     -42.358  56.117 -53.844  0.00  0.00     0.033 C 
BRANCH  16  19
HETATM   19  C   1WU A 501     -41.535  53.470 -51.171  0.00  0.00     0.338 C 
HETATM   20  N   1WU A 501     -40.402  52.600 -51.001  0.00  0.00     0.618 N 
ENDBRANCH  16  19
ENDBRANCH  11  12
ENDBRANCH   1  11
TORSDOF 3
ENDMDL
MODEL 10
REMARK VINA RESULT:      -6.6      1.696      2.007
REMARK  3 active torsions:
REMARK  status: ('A' for Active; 'I' for Inactive)
REMARK    1  A    between atoms: C_4  and  C_5 
REMARK    2  A    between atoms: C_9  and  O_10 
REMARK    3  A    between atoms: O_10  and  C_11 
ROOT
HETATM    1  C   1WU A 501     -41.158  54.255 -53.516  0.00  0.00     0.117 C 
HETATM    2  C   1WU A 501     -40.857  53.620 -52.165  0.00  0.00     0.057 C 
HETATM    3  C   1WU A 501     -40.211  53.664 -54.849  0.00  0.00     0.030 C 
HETATM    4  C   1WU A 501     -39.900  52.173 -54.824  0.00  0.00     0.007 C 
HETATM    5  C   1WU A 501     -40.366  51.580 -53.501  0.00  0.00     0.058 C 
HETATM    6  C   1WU A 501     -39.660  50.251 -53.264  0.00  0.00     0.178 C 
HETATM    7  O   1WU A 501     -39.456  50.218 -51.878  0.00  0.00    -0.235 OA
HETATM    8  C   1WU A 501     -39.887  52.460 -52.354  0.00  0.00     0.143 C 
HETATM    9  O   1WU A 501     -40.293  51.858 -49.964  0.00  0.00    -0.062 OA
HETATM   10  N   1WU A 501     -39.944  51.597 -51.205  0.00  0.00    -0.113 N 
ENDROOT
BRANCH   1  11
HETATM   11  O   1WU A 501     -40.931  55.634 -53.405  0.00  0.00    -0.356 OA
BRANCH  11  12
HETATM   12  C   1WU A 501     -42.133  56.209 -52.971  0.00  0.00     0.148 C 
HETATM   13  C   1WU A 501     -41.826  57.249 -51.898  0.00  0.00     0.188 C 
HETATM   14  F   1WU A 501     -41.292  56.605 -50.784  0.00  0.00    -0.235 F 
HETATM   15  C   1WU A 501     -43.080  58.010 -51.475  0.00  0.00     0.040 C 
HETATM   16  C   1WU A 501     -43.791  58.632 -52.672  0.00  0.00     0.042 C 
HETATM   17  C   1WU A 501     -44.100  57.591 -53.746  0.00  0.00     0.005 C 
HETATM   18  C   1WU A 501     -42.846  56.830 -54.169  0.00  0.00     0.033 C 
BRANCH  16  19
HETATM   19  C   1WU A 501     -45.098  59.256 -52.201  0.00  0.00     0.338 C 
HETATM   20  N   1WU A 501     -45.602  60.140 -53.217  0.00  0.00     0.618 N 
ENDBRANCH  16  19
ENDBRANCH  11  12
ENDBRANCH   1  11
TORSDOF 3
ENDMDL
