MODEL 1
REMARK VINA RESULT:      -7.3      0.000      0.000
REMARK  3 active torsions:
REMARK  status: ('A' for Active; 'I' for Inactive)
REMARK    1  A    between atoms: C_4  and  C_5 
REMARK    2  A    between atoms: C_9  and  O_10 
REMARK    3  A    between atoms: O_10  and  C_11 
ROOT
HETATM    1  C   1WU A 501      43.189 -16.942   4.876  0.00  0.00     0.117 C 
HETATM    2  C   1WU A 501      43.673 -18.325   5.290  0.00  0.00     0.057 C 
HETATM    3  C   1WU A 501      43.452 -16.524   3.209  0.00  0.00     0.030 C 
HETATM    4  C   1WU A 501      43.276 -17.661   2.211  0.00  0.00     0.007 C 
HETATM    5  C   1WU A 501      43.075 -18.969   2.963  0.00  0.00     0.058 C 
HETATM    6  C   1WU A 501      43.369 -20.139   2.033  0.00  0.00     0.178 C 
HETATM    7  O   1WU A 501      43.964 -21.095   2.868  0.00  0.00    -0.235 OA
HETATM    8  C   1WU A 501      44.129 -19.094   4.055  0.00  0.00     0.143 C 
HETATM    9  O   1WU A 501      44.303 -21.123   5.502  0.00  0.00    -0.062 OA
HETATM   10  N   1WU A 501      44.159 -20.501   4.352  0.00  0.00    -0.113 N 
ENDROOT
BRANCH   1  11
HETATM   11  O   1WU A 501      43.855 -15.996   5.668  0.00  0.00    -0.356 OA
BRANCH  11  12
HETATM   12  C   1WU A 501      42.878 -15.129   6.173  0.00  0.00     0.148 C 
HETATM   13  C   1WU A 501      43.117 -13.731   5.610  0.00  0.00     0.188 C 
HETATM   14  F   1WU A 501      44.333 -13.252   6.093  0.00  0.00    -0.235 F 
HETATM   15  C   1WU A 501      42.008 -12.763   6.014  0.00  0.00     0.040 C 
HETATM   16  C   1WU A 501      40.630 -13.294   5.631  0.00  0.00     0.042 C 
HETATM   17  C   1WU A 501      40.391 -14.693   6.195  0.00  0.00     0.005 C 
HETATM   18  C   1WU A 501      41.499 -15.661   5.791  0.00  0.00     0.033 C 
BRANCH  16  19
HETATM   19  C   1WU A 501      39.569 -12.352   6.181  0.00  0.00     0.338 C 
HETATM   20  N   1WU A 501      40.151 -11.057   6.415  0.00  0.00     0.618 N 
ENDBRANCH  16  19
ENDBRANCH  11  12
ENDBRANCH   1  11
TORSDOF 3
ENDMDL
MODEL 2
REMARK VINA RESULT:      -7.2      3.033      4.026
REMARK  3 active torsions:
REMARK  status: ('A' for Active; 'I' for Inactive)
REMARK    1  A    between atoms: C_4  and  C_5 
REMARK    2  A    between atoms: C_9  and  O_10 
REMARK    3  A    between atoms: O_10  and  C_11 
ROOT
HETATM    1  C   1WU A 501      43.815 -16.793   4.700  0.00  0.00     0.117 C 
HETATM    2  C   1WU A 501      43.709 -17.674   3.463  0.00  0.00     0.057 C 
HETATM    3  C   1WU A 501      43.257 -17.511   6.183  0.00  0.00     0.030 C 
HETATM    4  C   1WU A 501      43.555 -18.995   6.346  0.00  0.00     0.007 C 
HETATM    5  C   1WU A 501      44.137 -19.541   5.049  0.00  0.00     0.058 C 
HETATM    6  C   1WU A 501      43.997 -21.058   5.030  0.00  0.00     0.178 C 
HETATM    7  O   1WU A 501      43.742 -21.358   3.685  0.00  0.00    -0.235 OA
HETATM    8  C   1WU A 501      43.284 -19.078   3.876  0.00  0.00     0.143 C 
HETATM    9  O   1WU A 501      43.753 -19.803   1.531  0.00  0.00    -0.062 OA
HETATM   10  N   1WU A 501      43.608 -20.004   2.823  0.00  0.00    -0.113 N 
ENDROOT
BRANCH   1  11
HETATM   11  O   1WU A 501      43.060 -15.634   4.471  0.00  0.00    -0.356 OA
BRANCH  11  12
HETATM   12  C   1WU A 501      42.365 -15.833   3.271  0.00  0.00     0.148 C 
HETATM   13  C   1WU A 501      40.872 -15.647   3.526  0.00  0.00     0.188 C 
HETATM   14  F   1WU A 501      40.433 -16.651   4.387  0.00  0.00    -0.235 F 
HETATM   15  C   1WU A 501      40.066 -15.719   2.231  0.00  0.00     0.040 C 
HETATM   16  C   1WU A 501      40.585 -14.732   1.190  0.00  0.00     0.042 C 
HETATM   17  C   1WU A 501      42.079 -14.918   0.935  0.00  0.00     0.005 C 
HETATM   18  C   1WU A 501      42.885 -14.847   2.229  0.00  0.00     0.033 C 
BRANCH  16  19
HETATM   19  C   1WU A 501      39.830 -14.949  -0.114  0.00  0.00     0.338 C 
HETATM   20  N   1WU A 501      39.502 -13.675  -0.696  0.00  0.00     0.618 N 
ENDBRANCH  16  19
ENDBRANCH  11  12
ENDBRANCH   1  11
TORSDOF 3
ENDMDL
MODEL 3
REMARK VINA RESULT:      -7.1      2.832      7.270
REMARK  3 active torsions:
REMARK  status: ('A' for Active; 'I' for Inactive)
REMARK    1  A    between atoms: C_4  and  C_5 
REMARK    2  A    between atoms: C_9  and  O_10 
REMARK    3  A    between atoms: O_10  and  C_11 
ROOT
HETATM    1  C   1WU A 501      42.337 -14.511   4.625  0.00  0.00     0.117 C 
HETATM    2  C   1WU A 501      41.121 -14.084   3.814  0.00  0.00     0.057 C 
HETATM    3  C   1WU A 501      43.151 -13.235   5.482  0.00  0.00     0.030 C 
HETATM    4  C   1WU A 501      42.248 -12.162   6.075  0.00  0.00     0.007 C 
HETATM    5  C   1WU A 501      40.817 -12.388   5.607  0.00  0.00     0.058 C 
HETATM    6  C   1WU A 501      40.016 -11.105   5.787  0.00  0.00     0.178 C 
HETATM    7  O   1WU A 501      39.144 -11.094   4.689  0.00  0.00    -0.235 OA
HETATM    8  C   1WU A 501      40.806 -12.622   4.103  0.00  0.00     0.143 C 
HETATM    9  O   1WU A 501      38.681 -12.928   2.826  0.00  0.00    -0.062 OA
HETATM   10  N   1WU A 501      39.450 -12.340   3.716  0.00  0.00    -0.113 N 
ENDROOT
BRANCH   1  11
HETATM   11  O   1WU A 501      43.259 -15.096   3.746  0.00  0.00    -0.356 OA
BRANCH  11  12
HETATM   12  C   1WU A 501      43.032 -16.479   3.782  0.00  0.00     0.148 C 
HETATM   13  C   1WU A 501      43.131 -17.034   2.364  0.00  0.00     0.188 C 
HETATM   14  F   1WU A 501      42.097 -16.502   1.598  0.00  0.00    -0.235 F 
HETATM   15  C   1WU A 501      43.026 -18.557   2.347  0.00  0.00     0.040 C 
HETATM   16  C   1WU A 501      44.051 -19.202   3.275  0.00  0.00     0.042 C 
HETATM   17  C   1WU A 501      43.951 -18.647   4.694  0.00  0.00     0.005 C 
HETATM   18  C   1WU A 501      44.056 -17.124   4.711  0.00  0.00     0.033 C 
BRANCH  16  19
HETATM   19  C   1WU A 501      43.803 -20.704   3.315  0.00  0.00     0.338 C 
HETATM   20  N   1WU A 501      43.814 -21.156   4.681  0.00  0.00     0.618 N 
ENDBRANCH  16  19
ENDBRANCH  11  12
ENDBRANCH   1  11
TORSDOF 3
ENDMDL
MODEL 4
REMARK VINA RESULT:      -7.1      3.811      7.067
REMARK  3 active torsions:
REMARK  status: ('A' for Active; 'I' for Inactive)
REMARK    1  A    between atoms: C_4  and  C_5 
REMARK    2  A    between atoms: C_9  and  O_10 
REMARK    3  A    between atoms: O_10  and  C_11 
ROOT
HETATM    1  C   1WU A 501      41.558 -14.799   3.315  0.00  0.00     0.117 C 
HETATM    2  C   1WU A 501      41.159 -14.744   1.847  0.00  0.00     0.057 C 
HETATM    3  C   1WU A 501      41.442 -13.295   4.180  0.00  0.00     0.030 C 
HETATM    4  C   1WU A 501      40.261 -12.410   3.802  0.00  0.00     0.007 C 
HETATM    5  C   1WU A 501      39.547 -13.005   2.597  0.00  0.00     0.058 C 
HETATM    6  C   1WU A 501      38.695 -11.932   1.931  0.00  0.00     0.178 C 
HETATM    7  O   1WU A 501      38.786 -12.226   0.564  0.00  0.00    -0.235 OA
HETATM    8  C   1WU A 501      40.571 -13.374   1.531  0.00  0.00     0.143 C 
HETATM    9  O   1WU A 501      39.896 -14.284  -0.695  0.00  0.00    -0.062 OA
HETATM   10  N   1WU A 501      39.800 -13.452   0.320  0.00  0.00    -0.113 N 
ENDROOT
BRANCH   1  11
HETATM   11  O   1WU A 501      42.889 -15.234   3.384  0.00  0.00    -0.356 OA
BRANCH  11  12
HETATM   12  C   1WU A 501      42.856 -16.581   3.768  0.00  0.00     0.148 C 
HETATM   13  C   1WU A 501      43.651 -17.404   2.757  0.00  0.00     0.188 C 
HETATM   14  F   1WU A 501      43.007 -17.347   1.524  0.00  0.00    -0.235 F 
HETATM   15  C   1WU A 501      43.768 -18.864   3.187  0.00  0.00     0.040 C 
HETATM   16  C   1WU A 501      44.346 -18.992   4.593  0.00  0.00     0.042 C 
HETATM   17  C   1WU A 501      43.551 -18.169   5.604  0.00  0.00     0.005 C 
HETATM   18  C   1WU A 501      43.433 -16.709   5.175  0.00  0.00     0.033 C 
BRANCH  16  19
HETATM   19  C   1WU A 501      44.309 -20.456   5.009  0.00  0.00     0.338 C 
HETATM   20  N   1WU A 501      43.970 -21.270   3.872  0.00  0.00     0.618 N 
ENDBRANCH  16  19
ENDBRANCH  11  12
ENDBRANCH   1  11
TORSDOF 3
ENDMDL
MODEL 5
REMARK VINA RESULT:      -7.1      4.707      7.350
REMARK  3 active torsions:
REMARK  status: ('A' for Active; 'I' for Inactive)
REMARK    1  A    between atoms: C_4  and  C_5 
REMARK    2  A    between atoms: C_9  and  O_10 
REMARK    3  A    between atoms: O_10  and  C_11 
ROOT
HETATM    1  C   1WU A 501      41.346 -14.490   1.158  0.00  0.00     0.117 C 
HETATM    2  C   1WU A 501      41.620 -12.996   1.264  0.00  0.00     0.057 C 
HETATM    3  C   1WU A 501      39.947 -14.932   0.225  0.00  0.00     0.030 C 
HETATM    4  C   1WU A 501      39.684 -14.078  -1.008  0.00  0.00     0.007 C 
HETATM    5  C   1WU A 501      40.648 -12.899  -1.024  0.00  0.00     0.058 C 
HETATM    6  C   1WU A 501      40.107 -11.814  -1.947  0.00  0.00     0.178 C 
HETATM    7  O   1WU A 501      40.479 -10.618  -1.318  0.00  0.00    -0.235 OA
HETATM    8  C   1WU A 501      40.664 -12.239   0.349  0.00  0.00     0.143 C 
HETATM    9  O   1WU A 501      42.003 -10.182   0.813  0.00  0.00    -0.062 OA
HETATM   10  N   1WU A 501      41.186 -10.923   0.096  0.00  0.00    -0.113 N 
ENDROOT
BRANCH   1  11
HETATM   11  O   1WU A 501      41.174 -14.989   2.457  0.00  0.00    -0.356 OA
BRANCH  11  12
HETATM   12  C   1WU A 501      42.312 -15.751   2.753  0.00  0.00     0.148 C 
HETATM   13  C   1WU A 501      42.567 -15.697   4.257  0.00  0.00     0.188 C 
HETATM   14  F   1WU A 501      42.885 -14.389   4.613  0.00  0.00    -0.235 F 
HETATM   15  C   1WU A 501      43.715 -16.615   4.667  0.00  0.00     0.040 C 
HETATM   16  C   1WU A 501      43.492 -18.046   4.187  0.00  0.00     0.042 C 
HETATM   17  C   1WU A 501      43.237 -18.100   2.682  0.00  0.00     0.005 C 
HETATM   18  C   1WU A 501      42.089 -17.182   2.272  0.00  0.00     0.033 C 
BRANCH  16  19
HETATM   19  C   1WU A 501      44.729 -18.873   4.508  0.00  0.00     0.338 C 
HETATM   20  N   1WU A 501      44.328 -20.166   4.995  0.00  0.00     0.618 N 
ENDBRANCH  16  19
ENDBRANCH  11  12
ENDBRANCH   1  11
TORSDOF 3
ENDMDL
MODEL 6
REMARK VINA RESULT:      -6.9      4.832      5.699
REMARK  3 active torsions:
REMARK  status: ('A' for Active; 'I' for Inactive)
REMARK    1  A    between atoms: C_4  and  C_5 
REMARK    2  A    between atoms: C_9  and  O_10 
REMARK    3  A    between atoms: O_10  and  C_11 
ROOT
HETATM    1  C   1WU A 501      41.935 -14.867   2.859  0.00  0.00     0.117 C 
HETATM    2  C   1WU A 501      42.233 -16.293   2.417  0.00  0.00     0.057 C 
HETATM    3  C   1WU A 501      41.943 -14.596   4.576  0.00  0.00     0.030 C 
HETATM    4  C   1WU A 501      42.996 -15.371   5.357  0.00  0.00     0.007 C 
HETATM    5  C   1WU A 501      43.693 -16.357   4.429  0.00  0.00     0.058 C 
HETATM    6  C   1WU A 501      44.382 -17.434   5.258  0.00  0.00     0.178 C 
HETATM    7  O   1WU A 501      44.237 -18.597   4.490  0.00  0.00    -0.235 OA
HETATM    8  C   1WU A 501      42.650 -17.122   3.626  0.00  0.00     0.143 C 
HETATM    9  O   1WU A 501      43.278 -18.945   2.038  0.00  0.00    -0.062 OA
HETATM   10  N   1WU A 501      43.347 -18.298   3.182  0.00  0.00    -0.113 N 
ENDROOT
BRANCH   1  11
HETATM   11  O   1WU A 501      40.665 -14.522   2.374  0.00  0.00    -0.356 OA
BRANCH  11  12
HETATM   12  C   1WU A 501      40.816 -14.228   1.012  0.00  0.00     0.148 C 
HETATM   13  C   1WU A 501      39.616 -14.781   0.250  0.00  0.00     0.188 C 
HETATM   14  F   1WU A 501      39.626 -16.170   0.340  0.00  0.00    -0.235 F 
HETATM   15  C   1WU A 501      39.650 -14.380  -1.223  0.00  0.00     0.040 C 
HETATM   16  C   1WU A 501      39.775 -12.869  -1.392  0.00  0.00     0.042 C 
HETATM   17  C   1WU A 501      40.977 -12.316  -0.629  0.00  0.00     0.005 C 
HETATM   18  C   1WU A 501      40.943 -12.716   0.843  0.00  0.00     0.033 C 
BRANCH  16  19
HETATM   19  C   1WU A 501      39.940 -12.550  -2.871  0.00  0.00     0.338 C 
HETATM   20  N   1WU A 501      41.325 -12.279  -3.152  0.00  0.00     0.618 N 
ENDBRANCH  16  19
ENDBRANCH  11  12
ENDBRANCH   1  11
TORSDOF 3
ENDMDL
MODEL 7
REMARK VINA RESULT:      -6.9      2.116      2.872
REMARK  3 active torsions:
REMARK  status: ('A' for Active; 'I' for Inactive)
REMARK    1  A    between atoms: C_4  and  C_5 
REMARK    2  A    between atoms: C_9  and  O_10 
REMARK    3  A    between atoms: O_10  and  C_11 
ROOT
HETATM    1  C   1WU A 501      43.289 -16.966   3.618  0.00  0.00     0.117 C 
HETATM    2  C   1WU A 501      43.271 -18.139   2.648  0.00  0.00     0.057 C 
HETATM    3  C   1WU A 501      43.038 -17.370   5.290  0.00  0.00     0.030 C 
HETATM    4  C   1WU A 501      43.671 -18.677   5.751  0.00  0.00     0.007 C 
HETATM    5  C   1WU A 501      44.242 -19.416   4.549  0.00  0.00     0.058 C 
HETATM    6  C   1WU A 501      44.441 -20.884   4.904  0.00  0.00     0.178 C 
HETATM    7  O   1WU A 501      44.139 -21.564   3.715  0.00  0.00    -0.235 OA
HETATM    8  C   1WU A 501      43.207 -19.444   3.432  0.00  0.00     0.143 C 
HETATM    9  O   1WU A 501      43.614 -20.645   1.280  0.00  0.00    -0.062 OA
HETATM   10  N   1WU A 501      43.632 -20.530   2.590  0.00  0.00    -0.113 N 
ENDROOT
BRANCH   1  11
HETATM   11  O   1WU A 501      42.278 -16.073   3.234  0.00  0.00    -0.356 OA
BRANCH  11  12
HETATM   12  C   1WU A 501      42.668 -14.803   3.678  0.00  0.00     0.148 C 
HETATM   13  C   1WU A 501      42.891 -13.901   2.467  0.00  0.00     0.188 C 
HETATM   14  F   1WU A 501      43.968 -14.392   1.732  0.00  0.00    -0.235 F 
HETATM   15  C   1WU A 501      43.190 -12.463   2.882  0.00  0.00     0.040 C 
HETATM   16  C   1WU A 501      42.109 -11.907   3.803  0.00  0.00     0.042 C 
HETATM   17  C   1WU A 501      41.886 -12.809   5.016  0.00  0.00     0.005 C 
HETATM   18  C   1WU A 501      41.587 -14.247   4.601  0.00  0.00     0.033 C 
BRANCH  16  19
HETATM   19  C   1WU A 501      42.534 -10.528   4.286  0.00  0.00     0.338 C 
HETATM   20  N   1WU A 501      42.975 -10.613   5.653  0.00  0.00     0.618 N 
ENDBRANCH  16  19
ENDBRANCH  11  12
ENDBRANCH   1  11
TORSDOF 3
ENDMDL
MODEL 8
REMARK VINA RESULT:      -6.9      2.534      7.138
REMARK  3 active torsions:
REMARK  status: ('A' for Active; 'I' for Inactive)
REMARK    1  A    between atoms: C_4  and  C_5 
REMARK    2  A    between atoms: C_9  and  O_10 
REMARK    3  A    between atoms: O_10  and  C_11 
ROOT
HETATM    1  C   1WU A 501      41.726 -14.484   5.054  0.00  0.00     0.117 C 
HETATM    2  C   1WU A 501      42.815 -13.483   4.693  0.00  0.00     0.057 C 
HETATM    3  C   1WU A 501      40.457 -13.876   6.075  0.00  0.00     0.030 C 
HETATM    4  C   1WU A 501      40.033 -12.437   5.809  0.00  0.00     0.007 C 
HETATM    5  C   1WU A 501      40.978 -11.809   4.793  0.00  0.00     0.058 C 
HETATM    6  C   1WU A 501      40.872 -10.292   4.873  0.00  0.00     0.178 C 
HETATM    7  O   1WU A 501      42.180  -9.848   4.631  0.00  0.00    -0.235 OA
HETATM    8  C   1WU A 501      42.418 -12.099   5.193  0.00  0.00     0.143 C 
HETATM    9  O   1WU A 501      44.358 -11.186   3.911  0.00  0.00    -0.062 OA
HETATM   10  N   1WU A 501      43.182 -11.101   4.494  0.00  0.00    -0.113 N 
ENDROOT
BRANCH   1  11
HETATM   11  O   1WU A 501      42.332 -15.561   5.715  0.00  0.00    -0.356 OA
BRANCH  11  12
HETATM   12  C   1WU A 501      43.049 -16.279   4.748  0.00  0.00     0.148 C 
HETATM   13  C   1WU A 501      43.756 -17.451   5.424  0.00  0.00     0.188 C 
HETATM   14  F   1WU A 501      44.709 -16.953   6.309  0.00  0.00    -0.235 F 
HETATM   15  C   1WU A 501      44.449 -18.353   4.407  0.00  0.00     0.040 C 
HETATM   16  C   1WU A 501      43.483 -18.828   3.326  0.00  0.00     0.042 C 
HETATM   17  C   1WU A 501      42.777 -17.656   2.649  0.00  0.00     0.005 C 
HETATM   18  C   1WU A 501      42.083 -16.753   3.666  0.00  0.00     0.033 C 
BRANCH  16  19
HETATM   19  C   1WU A 501      44.264 -19.607   2.275  0.00  0.00     0.338 C 
HETATM   20  N   1WU A 501      43.387 -20.542   1.622  0.00  0.00     0.618 N 
ENDBRANCH  16  19
ENDBRANCH  11  12
ENDBRANCH   1  11
TORSDOF 3
ENDMDL
MODEL 9
REMARK VINA RESULT:      -6.8      2.147      3.056
REMARK  3 active torsions:
REMARK  status: ('A' for Active; 'I' for Inactive)
REMARK    1  A    between atoms: C_4  and  C_5 
REMARK    2  A    between atoms: C_9  and  O_10 
REMARK    3  A    between atoms: O_10  and  C_11 
ROOT
HETATM    1  C   1WU A 501      43.739 -16.414   5.960  0.00  0.00     0.117 C 
HETATM    2  C   1WU A 501      43.383 -16.179   4.499  0.00  0.00     0.057 C 
HETATM    3  C   1WU A 501      43.471 -18.028   6.547  0.00  0.00     0.030 C 
HETATM    4  C   1WU A 501      43.777 -19.145   5.559  0.00  0.00     0.007 C 
HETATM    5  C   1WU A 501      44.089 -18.545   4.195  0.00  0.00     0.058 C 
HETATM    6  C   1WU A 501      43.929 -19.613   3.121  0.00  0.00     0.178 C 
HETATM    7  O   1WU A 501      43.413 -18.915   2.021  0.00  0.00    -0.235 OA
HETATM    8  C   1WU A 501      43.030 -17.508   3.843  0.00  0.00     0.143 C 
HETATM    9  O   1WU A 501      43.024 -16.314   1.649  0.00  0.00    -0.062 OA
HETATM   10  N   1WU A 501      43.131 -17.379   2.414  0.00  0.00    -0.113 N 
ENDROOT
BRANCH   1  11
HETATM   11  O   1WU A 501      42.967 -15.538   6.738  0.00  0.00    -0.356 OA
BRANCH  11  12
HETATM   12  C   1WU A 501      42.892 -14.329   6.034  0.00  0.00     0.148 C 
HETATM   13  C   1WU A 501      41.467 -13.790   6.127  0.00  0.00     0.188 C 
HETATM   14  F   1WU A 501      40.610 -14.666   5.465  0.00  0.00    -0.235 F 
HETATM   15  C   1WU A 501      41.345 -12.407   5.493  0.00  0.00     0.040 C 
HETATM   16  C   1WU A 501      42.356 -11.427   6.083  0.00  0.00     0.042 C 
HETATM   17  C   1WU A 501      43.782 -11.966   5.989  0.00  0.00     0.005 C 
HETATM   18  C   1WU A 501      43.903 -13.350   6.623  0.00  0.00     0.033 C 
BRANCH  16  19
HETATM   19  C   1WU A 501      42.274 -10.114   5.317  0.00  0.00     0.338 C 
HETATM   20  N   1WU A 501      42.217 -10.385   3.905  0.00  0.00     0.618 N 
ENDBRANCH  16  19
ENDBRANCH  11  12
ENDBRANCH   1  11
TORSDOF 3
ENDMDL
MODEL 10
REMARK VINA RESULT:      -6.8      2.647      7.228
REMARK  3 active torsions:
REMARK  status: ('A' for Active; 'I' for Inactive)
REMARK    1  A    between atoms: C_4  and  C_5 
REMARK    2  A    between atoms: C_9  and  O_10 
REMARK    3  A    between atoms: O_10  and  C_11 
ROOT
HETATM    1  C   1WU A 501      42.661 -14.041   5.214  0.00  0.00     0.117 C 
HETATM    2  C   1WU A 501      43.579 -13.380   6.233  0.00  0.00     0.057 C 
HETATM    3  C   1WU A 501      41.091 -13.314   5.036  0.00  0.00     0.030 C 
HETATM    4  C   1WU A 501      41.057 -11.794   5.136  0.00  0.00     0.007 C 
HETATM    5  C   1WU A 501      42.429 -11.282   5.553  0.00  0.00     0.058 C 
HETATM    6  C   1WU A 501      42.297  -9.869   6.106  0.00  0.00     0.178 C 
HETATM    7  O   1WU A 501      43.247  -9.817   7.135  0.00  0.00    -0.235 OA
HETATM    8  C   1WU A 501      42.935 -12.095   6.737  0.00  0.00     0.143 C 
HETATM    9  O   1WU A 501      45.098 -11.573   7.874  0.00  0.00    -0.062 OA
HETATM   10  N   1WU A 501      43.942 -11.256   7.330  0.00  0.00    -0.113 N 
ENDROOT
BRANCH   1  11
HETATM   11  O   1WU A 501      42.475 -15.376   5.601  0.00  0.00    -0.356 OA
BRANCH  11  12
HETATM   12  C   1WU A 501      43.156 -16.168   4.667  0.00  0.00     0.148 C 
HETATM   13  C   1WU A 501      43.861 -17.304   5.401  0.00  0.00     0.188 C 
HETATM   14  F   1WU A 501      44.845 -16.765   6.226  0.00  0.00    -0.235 F 
HETATM   15  C   1WU A 501      44.514 -18.284   4.429  0.00  0.00     0.040 C 
HETATM   16  C   1WU A 501      43.512 -18.813   3.406  0.00  0.00     0.042 C 
HETATM   17  C   1WU A 501      42.806 -17.675   2.671  0.00  0.00     0.005 C 
HETATM   18  C   1WU A 501      42.154 -16.696   3.643  0.00  0.00     0.033 C 
BRANCH  16  19
HETATM   19  C   1WU A 501      44.252 -19.672   2.391  0.00  0.00     0.338 C 
HETATM   20  N   1WU A 501      43.304 -20.457   1.645  0.00  0.00     0.618 N 
ENDBRANCH  16  19
ENDBRANCH  11  12
ENDBRANCH   1  11
TORSDOF 3
ENDMDL
