MODEL 1
REMARK VINA RESULT:     -11.1      0.000      0.000
REMARK  3 active torsions:
REMARK  status: ('A' for Active; 'I' for Inactive)
REMARK    1  A    between atoms: C_2  and  N_3 
REMARK    2  A    between atoms: C_7  and  C_8 
REMARK       I    between atoms: C_8  and  N_9 
REMARK    3  A    between atoms: N_9  and  C_10 
ROOT
HETATM    1  C   UNL     1      25.033  46.738  50.593  1.00  0.00     0.036 A 
HETATM    2  C   UNL     1      24.504  47.994  50.300  1.00  0.00     0.049 A 
HETATM    3  C   UNL     1      23.380  48.137  49.457  1.00  0.00     0.061 A 
HETATM    4  C   UNL     1      22.774  46.999  48.907  1.00  0.00     0.050 A 
HETATM    5  N   UNL     1      21.598  46.971  48.139  1.00  0.00    -0.324 N 
HETATM    6  C   UNL     1      20.520  47.815  48.197  1.00  0.00     0.245 C 
HETATM    7  O   UNL     1      19.501  47.490  47.583  1.00  0.00    -0.271 OA
HETATM    8  C   UNL     1      20.561  48.982  49.181  1.00  0.00     0.180 C 
HETATM    9  N   UNL     1      21.693  49.850  48.906  1.00  0.00    -0.334 N 
HETATM   10  C   UNL     1      23.014  49.533  49.105  1.00  0.00     0.256 C 
HETATM   11  O   UNL     1      23.906  50.372  49.008  1.00  0.00    -0.267 OA
HETATM   12  C   UNL     1      19.337  49.899  49.048  1.00  0.00     0.037 C 
HETATM   13  C   UNL     1      19.897  51.285  49.334  1.00  0.00     0.022 C 
HETATM   14  C   UNL     1      21.274  51.224  48.698  1.00  0.00     0.127 C 
HETATM   15  C   UNL     1      23.368  45.749  49.133  1.00  0.00     0.033 A 
HETATM   16  C   UNL     1      24.476  45.618  49.974  1.00  0.00     0.032 A 
HETATM   17  H   UNL     1      21.382  46.127  47.622  1.00  0.00     0.169 HD
ENDROOT
BRANCH   1  18
HETATM   18  N   UNL     1      26.076  46.510  51.513  1.00  0.00    -0.323 N 
HETATM   19  C   UNL     1      26.109  46.867  52.850  1.00  0.00     0.256 C 
HETATM   20  O   UNL     1      25.330  47.614  53.427  1.00  0.00    -0.267 OA
HETATM   21  H   UNL     1      26.879  46.007  51.158  1.00  0.00     0.169 HD
BRANCH  19  22
HETATM   22  C   UNL     1      27.220  46.258  53.637  1.00  0.00     0.033 A 
HETATM   23  C   UNL     1      27.601  44.922  53.437  1.00  0.00     0.030 A 
HETATM   24  C   UNL     1      28.618  44.364  54.236  1.00  0.00    -0.007 A 
HETATM   25  C   UNL     1      29.220  45.147  55.228  1.00  0.00     0.044 A 
HETATM   26  C   UNL     1      29.218  43.078  54.286  1.00  0.00     0.031 A 
HETATM   27  N   UNL     1      30.146  44.342  55.868  1.00  0.00    -0.352 N 
HETATM   28  C   UNL     1      28.840  46.483  55.440  1.00  0.00     0.031 A 
HETATM   29  C   UNL     1      30.156  43.094  55.288  1.00  0.00     0.092 A 
HETATM   30  C   UNL     1      27.829  47.021  54.635  1.00  0.00     0.019 A 
BRANCH  27  31
HETATM   31  C   UNL     1      30.980  44.729  57.007  1.00  0.00     0.081 C 
HETATM   32  C   UNL     1      31.924  43.599  57.422  1.00  0.00     0.032 C 
HETATM   33  C   UNL     1      30.136  45.215  58.186  1.00  0.00     0.032 C 
ENDBRANCH  27  31
ENDBRANCH  19  22
ENDBRANCH   1  18
TORSDOF 3
ENDMDL
MODEL 2
REMARK VINA RESULT:     -10.1      2.054      3.381
REMARK  3 active torsions:
REMARK  status: ('A' for Active; 'I' for Inactive)
REMARK    1  A    between atoms: C_2  and  N_3 
REMARK    2  A    between atoms: C_7  and  C_8 
REMARK       I    between atoms: C_8  and  N_9 
REMARK    3  A    between atoms: N_9  and  C_10 
ROOT
HETATM    1  C   UNL     1      22.560  47.265  48.822  1.00  0.00     0.036 A 
HETATM    2  C   UNL     1      22.137  48.579  49.013  1.00  0.00     0.049 A 
HETATM    3  C   UNL     1      20.995  49.084  48.354  1.00  0.00     0.061 A 
HETATM    4  C   UNL     1      20.264  48.253  47.495  1.00  0.00     0.050 A 
HETATM    5  N   UNL     1      19.057  48.576  46.851  1.00  0.00    -0.324 N 
HETATM    6  C   UNL     1      18.065  49.422  47.272  1.00  0.00     0.245 C 
HETATM    7  O   UNL     1      16.994  49.402  46.660  1.00  0.00    -0.271 OA
HETATM    8  C   UNL     1      18.255  50.171  48.589  1.00  0.00     0.180 C 
HETATM    9  N   UNL     1      19.450  50.997  48.545  1.00  0.00    -0.334 N 
HETATM   10  C   UNL     1      20.743  50.538  48.528  1.00  0.00     0.256 C 
HETATM   11  O   UNL     1      21.704  51.294  48.657  1.00  0.00    -0.267 OA
HETATM   12  C   UNL     1      17.117  51.162  48.866  1.00  0.00     0.037 C 
HETATM   13  C   UNL     1      17.813  52.320  49.566  1.00  0.00     0.022 C 
HETATM   14  C   UNL     1      19.149  52.385  48.848  1.00  0.00     0.127 C 
HETATM   15  C   UNL     1      20.749  46.964  47.237  1.00  0.00     0.033 A 
HETATM   16  C   UNL     1      21.877  46.471  47.900  1.00  0.00     0.032 A 
HETATM   17  H   UNL     1      18.742  47.981  46.094  1.00  0.00     0.169 HD
ENDROOT
BRANCH   1  18
HETATM   18  N   UNL     1      23.618  46.659  49.530  1.00  0.00    -0.323 N 
HETATM   19  C   UNL     1      24.740  47.278  50.054  1.00  0.00     0.256 C 
HETATM   20  O   UNL     1      25.116  48.421  49.830  1.00  0.00    -0.267 OA
HETATM   21  H   UNL     1      23.530  45.664  49.693  1.00  0.00     0.169 HD
BRANCH  19  22
HETATM   22  C   UNL     1      25.547  46.436  50.984  1.00  0.00     0.033 A 
HETATM   23  C   UNL     1      25.704  46.795  52.332  1.00  0.00     0.030 A 
HETATM   24  C   UNL     1      26.518  46.005  53.169  1.00  0.00    -0.007 A 
HETATM   25  C   UNL     1      27.169  44.887  52.636  1.00  0.00     0.044 A 
HETATM   26  C   UNL     1      26.875  46.095  54.539  1.00  0.00     0.031 A 
HETATM   27  N   UNL     1      27.913  44.329  53.662  1.00  0.00    -0.352 N 
HETATM   28  C   UNL     1      27.022  44.524  51.287  1.00  0.00     0.031 A 
HETATM   29  C   UNL     1      27.723  45.051  54.818  1.00  0.00     0.092 A 
HETATM   30  C   UNL     1      26.208  45.319  50.471  1.00  0.00     0.019 A 
BRANCH  27  31
HETATM   31  C   UNL     1      28.794  43.166  53.552  1.00  0.00     0.081 C 
HETATM   32  C   UNL     1      28.017  41.857  53.698  1.00  0.00     0.032 C 
HETATM   33  C   UNL     1      29.956  43.241  54.544  1.00  0.00     0.032 C 
ENDBRANCH  27  31
ENDBRANCH  19  22
ENDBRANCH   1  18
TORSDOF 3
ENDMDL
MODEL 3
REMARK VINA RESULT:      -9.9      2.748     10.592
REMARK  3 active torsions:
REMARK  status: ('A' for Active; 'I' for Inactive)
REMARK    1  A    between atoms: C_2  and  N_3 
REMARK    2  A    between atoms: C_7  and  C_8 
REMARK       I    between atoms: C_8  and  N_9 
REMARK    3  A    between atoms: N_9  and  C_10 
ROOT
HETATM    1  C   UNL     1      24.396  44.658  50.784  1.00  0.00     0.036 A 
HETATM    2  C   UNL     1      25.234  44.755  51.894  1.00  0.00     0.049 A 
HETATM    3  C   UNL     1      26.089  43.693  52.262  1.00  0.00     0.061 A 
HETATM    4  C   UNL     1      26.107  42.519  51.497  1.00  0.00     0.050 A 
HETATM    5  N   UNL     1      26.970  41.423  51.674  1.00  0.00    -0.324 N 
HETATM    6  C   UNL     1      28.250  41.415  52.161  1.00  0.00     0.245 C 
HETATM    7  O   UNL     1      28.906  40.379  52.037  1.00  0.00    -0.271 OA
HETATM    8  C   UNL     1      28.862  42.735  52.626  1.00  0.00     0.180 C 
HETATM    9  N   UNL     1      28.067  43.327  53.689  1.00  0.00    -0.334 N 
HETATM   10  C   UNL     1      26.813  43.867  53.548  1.00  0.00     0.256 C 
HETATM   11  O   UNL     1      26.270  44.496  54.452  1.00  0.00    -0.267 OA
HETATM   12  C   UNL     1      30.251  42.546  53.250  1.00  0.00     0.037 C 
HETATM   13  C   UNL     1      30.294  43.595  54.352  1.00  0.00     0.022 C 
HETATM   14  C   UNL     1      28.867  43.586  54.872  1.00  0.00     0.127 C 
HETATM   15  C   UNL     1      25.197  42.395  50.439  1.00  0.00     0.033 A 
HETATM   16  C   UNL     1      24.360  43.454  50.079  1.00  0.00     0.032 A 
HETATM   17  H   UNL     1      26.745  40.554  51.204  1.00  0.00     0.169 HD
ENDROOT
BRANCH   1  18
HETATM   18  N   UNL     1      23.604  45.715  50.291  1.00  0.00    -0.323 N 
HETATM   19  C   UNL     1      24.038  46.847  49.624  1.00  0.00     0.256 C 
HETATM   20  O   UNL     1      25.194  47.234  49.513  1.00  0.00    -0.267 OA
HETATM   21  H   UNL     1      22.606  45.618  50.420  1.00  0.00     0.169 HD
BRANCH  19  22
HETATM   22  C   UNL     1      22.958  47.653  48.984  1.00  0.00     0.033 A 
HETATM   23  C   UNL     1      22.800  49.016  49.282  1.00  0.00     0.030 A 
HETATM   24  C   UNL     1      21.736  49.734  48.700  1.00  0.00    -0.007 A 
HETATM   25  C   UNL     1      20.845  49.071  47.849  1.00  0.00     0.044 A 
HETATM   26  C   UNL     1      21.310  51.085  48.795  1.00  0.00     0.031 A 
HETATM   27  N   UNL     1      19.896  50.001  47.458  1.00  0.00    -0.352 N 
HETATM   28  C   UNL     1      20.991  47.706  47.551  1.00  0.00     0.031 A 
HETATM   29  C   UNL     1      20.187  51.224  48.018  1.00  0.00     0.092 A 
HETATM   30  C   UNL     1      22.055  47.010  48.136  1.00  0.00     0.019 A 
BRANCH  27  31
HETATM   31  C   UNL     1      18.739  49.740  46.600  1.00  0.00     0.081 C 
HETATM   32  C   UNL     1      18.675  50.722  45.430  1.00  0.00     0.032 C 
HETATM   33  C   UNL     1      17.435  49.735  47.399  1.00  0.00     0.032 C 
ENDBRANCH  27  31
ENDBRANCH  19  22
ENDBRANCH   1  18
TORSDOF 3
ENDMDL
MODEL 4
REMARK VINA RESULT:      -9.5      2.699     10.663
REMARK  3 active torsions:
REMARK  status: ('A' for Active; 'I' for Inactive)
REMARK    1  A    between atoms: C_2  and  N_3 
REMARK    2  A    between atoms: C_7  and  C_8 
REMARK       I    between atoms: C_8  and  N_9 
REMARK    3  A    between atoms: N_9  and  C_10 
ROOT
HETATM    1  C   UNL     1      25.011  46.886  51.270  1.00  0.00     0.036 A 
HETATM    2  C   UNL     1      25.590  45.736  50.735  1.00  0.00     0.049 A 
HETATM    3  C   UNL     1      26.579  45.018  51.442  1.00  0.00     0.061 A 
HETATM    4  C   UNL     1      26.987  45.459  52.708  1.00  0.00     0.050 A 
HETATM    5  N   UNL     1      27.880  44.801  53.571  1.00  0.00    -0.324 N 
HETATM    6  C   UNL     1      28.110  43.457  53.697  1.00  0.00     0.245 C 
HETATM    7  O   UNL     1      28.779  43.075  54.660  1.00  0.00    -0.271 OA
HETATM    8  C   UNL     1      27.356  42.498  52.778  1.00  0.00     0.180 C 
HETATM    9  N   UNL     1      27.637  42.791  51.383  1.00  0.00    -0.334 N 
HETATM   10  C   UNL     1      27.219  43.904  50.696  1.00  0.00     0.256 C 
HETATM   11  O   UNL     1      27.353  44.006  49.479  1.00  0.00    -0.267 OA
HETATM   12  C   UNL     1      27.805  41.042  52.959  1.00  0.00     0.037 C 
HETATM   13  C   UNL     1      27.704  40.459  51.557  1.00  0.00     0.022 C 
HETATM   14  C   UNL     1      28.141  41.622  50.684  1.00  0.00     0.127 C 
HETATM   15  C   UNL     1      26.468  46.666  53.196  1.00  0.00     0.033 A 
HETATM   16  C   UNL     1      25.484  47.365  52.492  1.00  0.00     0.032 A 
HETATM   17  H   UNL     1      28.260  45.318  54.355  1.00  0.00     0.169 HD
ENDROOT
BRANCH   1  18
HETATM   18  N   UNL     1      23.940  47.587  50.677  1.00  0.00    -0.323 N 
HETATM   19  C   UNL     1      24.015  48.548  49.684  1.00  0.00     0.256 C 
HETATM   20  O   UNL     1      25.027  49.105  49.279  1.00  0.00    -0.267 OA
HETATM   21  H   UNL     1      23.015  47.338  51.000  1.00  0.00     0.169 HD
BRANCH  19  22
HETATM   22  C   UNL     1      22.709  48.916  49.064  1.00  0.00     0.033 A 
HETATM   23  C   UNL     1      22.212  50.226  49.148  1.00  0.00     0.030 A 
HETATM   24  C   UNL     1      20.949  50.525  48.598  1.00  0.00    -0.007 A 
HETATM   25  C   UNL     1      20.206  49.506  47.992  1.00  0.00     0.044 A 
HETATM   26  C   UNL     1      20.183  51.717  48.520  1.00  0.00     0.031 A 
HETATM   27  N   UNL     1      19.012  50.073  47.577  1.00  0.00    -0.352 N 
HETATM   28  C   UNL     1      20.692  48.191  47.910  1.00  0.00     0.031 A 
HETATM   29  C   UNL     1      19.005  51.414  47.883  1.00  0.00     0.092 A 
HETATM   30  C   UNL     1      21.949  47.913  48.460  1.00  0.00     0.019 A 
BRANCH  27  31
HETATM   31  C   UNL     1      17.904  49.367  46.933  1.00  0.00     0.081 C 
HETATM   32  C   UNL     1      17.520  50.018  45.604  1.00  0.00     0.032 C 
HETATM   33  C   UNL     1      16.697  49.242  47.865  1.00  0.00     0.032 C 
ENDBRANCH  27  31
ENDBRANCH  19  22
ENDBRANCH   1  18
TORSDOF 3
ENDMDL
MODEL 5
REMARK VINA RESULT:      -9.5      6.768      8.876
REMARK  3 active torsions:
REMARK  status: ('A' for Active; 'I' for Inactive)
REMARK    1  A    between atoms: C_2  and  N_3 
REMARK    2  A    between atoms: C_7  and  C_8 
REMARK       I    between atoms: C_8  and  N_9 
REMARK    3  A    between atoms: N_9  and  C_10 
ROOT
HETATM    1  C   UNL     1      28.738  40.067  49.841  1.00  0.00     0.036 A 
HETATM    2  C   UNL     1      28.312  40.294  48.533  1.00  0.00     0.049 A 
HETATM    3  C   UNL     1      28.100  39.224  47.636  1.00  0.00     0.061 A 
HETATM    4  C   UNL     1      28.314  37.906  48.063  1.00  0.00     0.050 A 
HETATM    5  N   UNL     1      28.052  36.739  47.326  1.00  0.00    -0.324 N 
HETATM    6  C   UNL     1      27.093  36.531  46.370  1.00  0.00     0.245 C 
HETATM    7  O   UNL     1      26.895  35.372  45.997  1.00  0.00    -0.271 OA
HETATM    8  C   UNL     1      26.183  37.695  45.984  1.00  0.00     0.180 C 
HETATM    9  N   UNL     1      26.963  38.816  45.486  1.00  0.00    -0.334 N 
HETATM   10  C   UNL     1      27.795  39.611  46.235  1.00  0.00     0.256 C 
HETATM   11  O   UNL     1      28.292  40.640  45.784  1.00  0.00    -0.267 OA
HETATM   12  C   UNL     1      25.243  37.341  44.824  1.00  0.00     0.037 C 
HETATM   13  C   UNL     1      25.127  38.644  44.047  1.00  0.00     0.022 C 
HETATM   14  C   UNL     1      26.526  39.223  44.163  1.00  0.00     0.127 C 
HETATM   15  C   UNL     1      28.831  37.695  49.349  1.00  0.00     0.033 A 
HETATM   16  C   UNL     1      29.031  38.760  50.231  1.00  0.00     0.032 A 
HETATM   17  H   UNL     1      28.447  35.865  47.653  1.00  0.00     0.169 HD
ENDROOT
BRANCH   1  18
HETATM   18  N   UNL     1      28.859  41.072  50.823  1.00  0.00    -0.323 N 
HETATM   19  C   UNL     1      27.839  41.660  51.551  1.00  0.00     0.256 C 
HETATM   20  O   UNL     1      26.638  41.559  51.341  1.00  0.00    -0.267 OA
HETATM   21  H   UNL     1      29.801  41.376  51.032  1.00  0.00     0.169 HD
BRANCH  19  22
HETATM   22  C   UNL     1      28.288  42.492  52.705  1.00  0.00     0.033 A 
HETATM   23  C   UNL     1      27.498  43.548  53.185  1.00  0.00     0.030 A 
HETATM   24  C   UNL     1      27.978  44.347  54.243  1.00  0.00    -0.007 A 
HETATM   25  C   UNL     1      29.242  44.084  54.783  1.00  0.00     0.044 A 
HETATM   26  C   UNL     1      27.441  45.462  54.937  1.00  0.00     0.031 A 
HETATM   27  N   UNL     1      29.462  45.032  55.768  1.00  0.00    -0.352 N 
HETATM   28  C   UNL     1      30.042  43.033  54.304  1.00  0.00     0.031 A 
HETATM   29  C   UNL     1      28.366  45.857  55.872  1.00  0.00     0.092 A 
HETATM   30  C   UNL     1      29.548  42.248  53.256  1.00  0.00     0.019 A 
BRANCH  27  31
HETATM   31  C   UNL     1      30.678  45.171  56.571  1.00  0.00     0.081 C 
HETATM   32  C   UNL     1      31.301  43.810  56.886  1.00  0.00     0.032 C 
HETATM   33  C   UNL     1      30.424  45.979  57.845  1.00  0.00     0.032 C 
ENDBRANCH  27  31
ENDBRANCH  19  22
ENDBRANCH   1  18
TORSDOF 3
ENDMDL
MODEL 6
REMARK VINA RESULT:      -9.4      4.293     12.395
REMARK  3 active torsions:
REMARK  status: ('A' for Active; 'I' for Inactive)
REMARK    1  A    between atoms: C_2  and  N_3 
REMARK    2  A    between atoms: C_7  and  C_8 
REMARK       I    between atoms: C_8  and  N_9 
REMARK    3  A    between atoms: N_9  and  C_10 
ROOT
HETATM    1  C   UNL     1      20.975  50.078  48.279  1.00  0.00     0.036 A 
HETATM    2  C   UNL     1      21.313  48.749  48.529  1.00  0.00     0.049 A 
HETATM    3  C   UNL     1      22.659  48.354  48.692  1.00  0.00     0.061 A 
HETATM    4  C   UNL     1      23.679  49.311  48.609  1.00  0.00     0.050 A 
HETATM    5  N   UNL     1      25.047  49.093  48.847  1.00  0.00    -0.324 N 
HETATM    6  C   UNL     1      25.632  48.188  49.693  1.00  0.00     0.245 C 
HETATM    7  O   UNL     1      26.840  48.303  49.912  1.00  0.00    -0.271 OA
HETATM    8  C   UNL     1      24.732  47.237  50.479  1.00  0.00     0.180 C 
HETATM    9  N   UNL     1      23.922  46.431  49.580  1.00  0.00    -0.334 N 
HETATM   10  C   UNL     1      22.890  46.890  48.801  1.00  0.00     0.256 C 
HETATM   11  O   UNL     1      22.144  46.127  48.193  1.00  0.00    -0.267 OA
HETATM   12  C   UNL     1      25.535  46.211  51.290  1.00  0.00     0.037 C 
HETATM   13  C   UNL     1      24.674  44.958  51.234  1.00  0.00     0.022 C 
HETATM   14  C   UNL     1      24.102  45.012  49.828  1.00  0.00     0.127 C 
HETATM   15  C   UNL     1      23.337  50.626  48.265  1.00  0.00     0.033 A 
HETATM   16  C   UNL     1      22.002  51.008  48.113  1.00  0.00     0.032 A 
HETATM   17  H   UNL     1      25.706  49.801  48.547  1.00  0.00     0.169 HD
ENDROOT
BRANCH   1  18
HETATM   18  N   UNL     1      19.653  50.565  48.220  1.00  0.00    -0.323 N 
HETATM   19  C   UNL     1      18.789  50.776  49.280  1.00  0.00     0.256 C 
HETATM   20  O   UNL     1      18.941  50.398  50.435  1.00  0.00    -0.267 OA
HETATM   21  H   UNL     1      19.310  50.808  47.300  1.00  0.00     0.169 HD
BRANCH  19  22
HETATM   22  C   UNL     1      17.559  51.550  48.946  1.00  0.00     0.033 A 
HETATM   23  C   UNL     1      17.101  51.644  47.622  1.00  0.00     0.030 A 
HETATM   24  C   UNL     1      15.965  52.427  47.335  1.00  0.00    -0.007 A 
HETATM   25  C   UNL     1      15.324  53.112  48.373  1.00  0.00     0.044 A 
HETATM   26  C   UNL     1      15.269  52.722  46.134  1.00  0.00     0.031 A 
HETATM   27  N   UNL     1      14.276  53.816  47.802  1.00  0.00    -0.352 N 
HETATM   28  C   UNL     1      15.779  53.029  49.700  1.00  0.00     0.031 A 
HETATM   29  C   UNL     1      14.233  53.568  46.450  1.00  0.00     0.092 A 
HETATM   30  C   UNL     1      16.907  52.244  49.966  1.00  0.00     0.019 A 
BRANCH  27  31
HETATM   31  C   UNL     1      13.358  54.712  48.507  1.00  0.00     0.081 C 
HETATM   32  C   UNL     1      12.004  54.796  47.802  1.00  0.00     0.032 C 
HETATM   33  C   UNL     1      13.970  56.099  48.711  1.00  0.00     0.032 C 
ENDBRANCH  27  31
ENDBRANCH  19  22
ENDBRANCH   1  18
TORSDOF 3
ENDMDL
MODEL 7
REMARK VINA RESULT:      -9.4      4.369     12.431
REMARK  3 active torsions:
REMARK  status: ('A' for Active; 'I' for Inactive)
REMARK    1  A    between atoms: C_2  and  N_3 
REMARK    2  A    between atoms: C_7  and  C_8 
REMARK       I    between atoms: C_8  and  N_9 
REMARK    3  A    between atoms: N_9  and  C_10 
ROOT
HETATM    1  C   UNL     1      21.026  50.264  48.292  1.00  0.00     0.036 A 
HETATM    2  C   UNL     1      21.304  48.912  48.491  1.00  0.00     0.049 A 
HETATM    3  C   UNL     1      22.629  48.453  48.658  1.00  0.00     0.061 A 
HETATM    4  C   UNL     1      23.690  49.369  48.632  1.00  0.00     0.050 A 
HETATM    5  N   UNL     1      25.043  49.083  48.883  1.00  0.00    -0.324 N 
HETATM    6  C   UNL     1      25.574  48.120  49.699  1.00  0.00     0.245 C 
HETATM    7  O   UNL     1      26.782  48.174  49.942  1.00  0.00    -0.271 OA
HETATM    8  C   UNL     1      24.622  47.176  50.430  1.00  0.00     0.180 C 
HETATM    9  N   UNL     1      23.795  46.444  49.485  1.00  0.00    -0.334 N 
HETATM   10  C   UNL     1      22.797  46.978  48.710  1.00  0.00     0.256 C 
HETATM   11  O   UNL     1      22.031  46.273  48.058  1.00  0.00    -0.267 OA
HETATM   12  C   UNL     1      25.367  46.085  51.210  1.00  0.00     0.037 C 
HETATM   13  C   UNL     1      24.455  44.872  51.087  1.00  0.00     0.022 C 
HETATM   14  C   UNL     1      23.911  45.009  49.676  1.00  0.00     0.127 C 
HETATM   15  C   UNL     1      23.409  50.711  48.339  1.00  0.00     0.033 A 
HETATM   16  C   UNL     1      22.094  51.155  48.182  1.00  0.00     0.032 A 
HETATM   17  H   UNL     1      25.736  49.775  48.624  1.00  0.00     0.169 HD
ENDROOT
BRANCH   1  18
HETATM   18  N   UNL     1      19.727  50.808  48.233  1.00  0.00    -0.323 N 
HETATM   19  C   UNL     1      18.800  50.880  49.258  1.00  0.00     0.256 C 
HETATM   20  O   UNL     1      18.862  50.313  50.342  1.00  0.00    -0.267 OA
HETATM   21  H   UNL     1      19.455  51.211  47.346  1.00  0.00     0.169 HD
BRANCH  19  22
HETATM   22  C   UNL     1      17.620  51.748  48.980  1.00  0.00     0.033 A 
HETATM   23  C   UNL     1      17.059  52.550  49.987  1.00  0.00     0.030 A 
HETATM   24  C   UNL     1      15.911  53.317  49.703  1.00  0.00    -0.007 A 
HETATM   25  C   UNL     1      15.341  53.253  48.427  1.00  0.00     0.044 A 
HETATM   26  C   UNL     1      15.121  54.204  50.480  1.00  0.00     0.031 A 
HETATM   27  N   UNL     1      14.224  54.071  48.445  1.00  0.00    -0.352 N 
HETATM   28  C   UNL     1      15.892  52.449  47.416  1.00  0.00     0.031 A 
HETATM   29  C   UNL     1      14.099  54.658  49.683  1.00  0.00     0.092 A 
HETATM   30  C   UNL     1      17.034  51.696  47.715  1.00  0.00     0.019 A 
BRANCH  27  31
HETATM   31  C   UNL     1      13.289  54.274  47.337  1.00  0.00     0.081 C 
HETATM   32  C   UNL     1      13.840  55.266  46.312  1.00  0.00     0.032 C 
HETATM   33  C   UNL     1      11.906  54.694  47.836  1.00  0.00     0.032 C 
ENDBRANCH  27  31
ENDBRANCH  19  22
ENDBRANCH   1  18
TORSDOF 3
ENDMDL
MODEL 8
REMARK VINA RESULT:      -9.4      2.533      4.374
REMARK  3 active torsions:
REMARK  status: ('A' for Active; 'I' for Inactive)
REMARK    1  A    between atoms: C_2  and  N_3 
REMARK    2  A    between atoms: C_7  and  C_8 
REMARK       I    between atoms: C_8  and  N_9 
REMARK    3  A    between atoms: N_9  and  C_10 
ROOT
HETATM    1  C   UNL     1      22.479  48.135  49.002  1.00  0.00     0.036 A 
HETATM    2  C   UNL     1      21.107  47.934  49.150  1.00  0.00     0.049 A 
HETATM    3  C   UNL     1      20.170  48.779  48.517  1.00  0.00     0.061 A 
HETATM    4  C   UNL     1      20.619  49.838  47.716  1.00  0.00     0.050 A 
HETATM    5  N   UNL     1      19.818  50.697  46.945  1.00  0.00    -0.324 N 
HETATM    6  C   UNL     1      18.616  50.431  46.343  1.00  0.00     0.245 C 
HETATM    7  O   UNL     1      18.181  51.256  45.537  1.00  0.00    -0.271 OA
HETATM    8  C   UNL     1      17.996  49.048  46.531  1.00  0.00     0.180 C 
HETATM    9  N   UNL     1      17.772  48.770  47.940  1.00  0.00    -0.334 N 
HETATM   10  C   UNL     1      18.748  48.548  48.879  1.00  0.00     0.256 C 
HETATM   11  O   UNL     1      18.483  48.157  50.014  1.00  0.00    -0.267 OA
HETATM   12  C   UNL     1      16.603  48.942  45.897  1.00  0.00     0.037 C 
HETATM   13  C   UNL     1      15.848  48.019  46.843  1.00  0.00     0.022 C 
HETATM   14  C   UNL     1      16.386  48.428  48.202  1.00  0.00     0.127 C 
HETATM   15  C   UNL     1      21.997  50.088  47.647  1.00  0.00     0.033 A 
HETATM   16  C   UNL     1      22.916  49.242  48.273  1.00  0.00     0.032 A 
HETATM   17  H   UNL     1      20.233  51.548  46.585  1.00  0.00     0.169 HD
ENDROOT
BRANCH   1  18
HETATM   18  N   UNL     1      23.469  47.268  49.507  1.00  0.00    -0.323 N 
HETATM   19  C   UNL     1      24.752  47.601  49.905  1.00  0.00     0.256 C 
HETATM   20  O   UNL     1      25.326  48.664  49.710  1.00  0.00    -0.267 OA
HETATM   21  H   UNL     1      23.198  46.299  49.612  1.00  0.00     0.169 HD
BRANCH  19  22
HETATM   22  C   UNL     1      25.478  46.531  50.649  1.00  0.00     0.033 A 
HETATM   23  C   UNL     1      25.484  46.502  52.052  1.00  0.00     0.030 A 
HETATM   24  C   UNL     1      26.225  45.508  52.722  1.00  0.00    -0.007 A 
HETATM   25  C   UNL     1      26.956  44.577  51.976  1.00  0.00     0.044 A 
HETATM   26  C   UNL     1      26.434  45.213  54.095  1.00  0.00     0.031 A 
HETATM   27  N   UNL     1      27.602  43.754  52.883  1.00  0.00    -0.352 N 
HETATM   28  C   UNL     1      26.961  44.602  50.571  1.00  0.00     0.031 A 
HETATM   29  C   UNL     1      27.274  44.129  54.165  1.00  0.00     0.092 A 
HETATM   30  C   UNL     1      26.217  45.595  49.923  1.00  0.00     0.019 A 
BRANCH  27  31
HETATM   31  C   UNL     1      28.519  42.662  52.551  1.00  0.00     0.081 C 
HETATM   32  C   UNL     1      28.094  41.351  53.215  1.00  0.00     0.032 C 
HETATM   33  C   UNL     1      29.967  43.018  52.891  1.00  0.00     0.032 C 
ENDBRANCH  27  31
ENDBRANCH  19  22
ENDBRANCH   1  18
TORSDOF 3
ENDMDL
MODEL 9
REMARK VINA RESULT:      -9.2     14.075     14.788
REMARK  3 active torsions:
REMARK  status: ('A' for Active; 'I' for Inactive)
REMARK    1  A    between atoms: C_2  and  N_3 
REMARK    2  A    between atoms: C_7  and  C_8 
REMARK       I    between atoms: C_8  and  N_9 
REMARK    3  A    between atoms: N_9  and  C_10 
ROOT
HETATM    1  C   UNL     1      34.457  51.820  43.849  1.00  0.00     0.036 A 
HETATM    2  C   UNL     1      34.164  51.310  42.585  1.00  0.00     0.049 A 
HETATM    3  C   UNL     1      32.832  51.200  42.131  1.00  0.00     0.061 A 
HETATM    4  C   UNL     1      31.779  51.616  42.957  1.00  0.00     0.050 A 
HETATM    5  N   UNL     1      30.418  51.665  42.610  1.00  0.00    -0.324 N 
HETATM    6  C   UNL     1      29.858  51.878  41.378  1.00  0.00     0.245 C 
HETATM    7  O   UNL     1      28.645  52.092  41.327  1.00  0.00    -0.271 OA
HETATM    8  C   UNL     1      30.784  52.054  40.177  1.00  0.00     0.180 C 
HETATM    9  N   UNL     1      31.630  50.885  40.001  1.00  0.00    -0.334 N 
HETATM   10  C   UNL     1      32.652  50.501  40.832  1.00  0.00     0.256 C 
HETATM   11  O   UNL     1      33.429  49.597  40.534  1.00  0.00    -0.267 OA
HETATM   12  C   UNL     1      30.011  52.167  38.856  1.00  0.00     0.037 C 
HETATM   13  C   UNL     1      30.916  51.469  37.851  1.00  0.00     0.022 C 
HETATM   14  C   UNL     1      31.497  50.328  38.667  1.00  0.00     0.127 C 
HETATM   15  C   UNL     1      32.077  52.041  44.259  1.00  0.00     0.033 A 
HETATM   16  C   UNL     1      33.400  52.153  44.696  1.00  0.00     0.032 A 
HETATM   17  H   UNL     1      29.737  51.775  43.352  1.00  0.00     0.169 HD
ENDROOT
BRANCH   1  18
HETATM   18  N   UNL     1      35.762  52.066  44.324  1.00  0.00    -0.323 N 
HETATM   19  C   UNL     1      36.675  52.982  43.831  1.00  0.00     0.256 C 
HETATM   20  O   UNL     1      36.594  53.603  42.780  1.00  0.00    -0.267 OA
HETATM   21  H   UNL     1      36.049  51.528  45.131  1.00  0.00     0.169 HD
BRANCH  19  22
HETATM   22  C   UNL     1      37.867  53.212  44.699  1.00  0.00     0.033 A 
HETATM   23  C   UNL     1      37.743  53.273  46.096  1.00  0.00     0.030 A 
HETATM   24  C   UNL     1      38.881  53.546  46.881  1.00  0.00    -0.007 A 
HETATM   25  C   UNL     1      40.111  53.768  46.253  1.00  0.00     0.044 A 
HETATM   26  C   UNL     1      39.087  53.673  48.280  1.00  0.00     0.031 A 
HETATM   27  N   UNL     1      41.030  54.040  47.253  1.00  0.00    -0.352 N 
HETATM   28  C   UNL     1      40.243  53.716  44.855  1.00  0.00     0.031 A 
HETATM   29  C   UNL     1      40.413  53.968  48.481  1.00  0.00     0.092 A 
HETATM   30  C   UNL     1      39.102  53.441  44.091  1.00  0.00     0.019 A 
BRANCH  27  31
HETATM   31  C   UNL     1      42.439  54.381  47.057  1.00  0.00     0.081 C 
HETATM   32  C   UNL     1      43.360  53.250  47.517  1.00  0.00     0.032 C 
HETATM   33  C   UNL     1      42.799  55.706  47.731  1.00  0.00     0.032 C 
ENDBRANCH  27  31
ENDBRANCH  19  22
ENDBRANCH   1  18
TORSDOF 3
ENDMDL
MODEL 10
REMARK VINA RESULT:      -9.0     13.549     14.100
REMARK  3 active torsions:
REMARK  status: ('A' for Active; 'I' for Inactive)
REMARK    1  A    between atoms: C_2  and  N_3 
REMARK    2  A    between atoms: C_7  and  C_8 
REMARK       I    between atoms: C_8  and  N_9 
REMARK    3  A    between atoms: N_9  and  C_10 
ROOT
HETATM    1  C   UNL     1      34.295  50.684  42.024  1.00  0.00     0.036 A 
HETATM    2  C   UNL     1      33.234  51.529  41.701  1.00  0.00     0.049 A 
HETATM    3  C   UNL     1      32.058  51.029  41.101  1.00  0.00     0.061 A 
HETATM    4  C   UNL     1      31.944  49.659  40.828  1.00  0.00     0.050 A 
HETATM    5  N   UNL     1      30.806  49.001  40.332  1.00  0.00    -0.324 N 
HETATM    6  C   UNL     1      29.487  49.322  40.514  1.00  0.00     0.245 C 
HETATM    7  O   UNL     1      28.641  48.493  40.169  1.00  0.00    -0.271 OA
HETATM    8  C   UNL     1      29.145  50.571  41.322  1.00  0.00     0.180 C 
HETATM    9  N   UNL     1      29.732  51.755  40.716  1.00  0.00    -0.334 N 
HETATM   10  C   UNL     1      31.071  52.053  40.671  1.00  0.00     0.256 C 
HETATM   11  O   UNL     1      31.481  53.147  40.290  1.00  0.00    -0.267 OA
HETATM   12  C   UNL     1      27.638  50.861  41.339  1.00  0.00     0.037 C 
HETATM   13  C   UNL     1      27.566  52.381  41.337  1.00  0.00     0.022 C 
HETATM   14  C   UNL     1      28.727  52.765  40.438  1.00  0.00     0.127 C 
HETATM   15  C   UNL     1      33.051  48.834  41.072  1.00  0.00     0.033 A 
HETATM   16  C   UNL     1      34.208  49.337  41.672  1.00  0.00     0.032 A 
HETATM   17  H   UNL     1      30.914  48.059  39.975  1.00  0.00     0.169 HD
ENDROOT
BRANCH   1  18
HETATM   18  N   UNL     1      35.449  51.090  42.727  1.00  0.00    -0.323 N 
HETATM   19  C   UNL     1      36.252  52.184  42.458  1.00  0.00     0.256 C 
HETATM   20  O   UNL     1      36.226  52.882  41.453  1.00  0.00    -0.267 OA
HETATM   21  H   UNL     1      35.698  50.530  43.531  1.00  0.00     0.169 HD
BRANCH  19  22
HETATM   22  C   UNL     1      37.238  52.519  43.527  1.00  0.00     0.033 A 
HETATM   23  C   UNL     1      38.400  51.752  43.704  1.00  0.00     0.030 A 
HETATM   24  C   UNL     1      39.282  52.064  44.758  1.00  0.00    -0.007 A 
HETATM   25  C   UNL     1      38.976  53.124  45.619  1.00  0.00     0.044 A 
HETATM   26  C   UNL     1      40.508  51.498  45.198  1.00  0.00     0.031 A 
HETATM   27  N   UNL     1      39.986  53.179  46.564  1.00  0.00    -0.352 N 
HETATM   28  C   UNL     1      37.812  53.893  45.452  1.00  0.00     0.031 A 
HETATM   29  C   UNL     1      40.922  52.205  46.300  1.00  0.00     0.092 A 
HETATM   30  C   UNL     1      36.948  53.569  44.399  1.00  0.00     0.019 A 
BRANCH  27  31
HETATM   31  C   UNL     1      40.057  54.106  47.694  1.00  0.00     0.081 C 
HETATM   32  C   UNL     1      41.484  54.231  48.230  1.00  0.00     0.032 C 
HETATM   33  C   UNL     1      39.075  53.721  48.802  1.00  0.00     0.032 C 
ENDBRANCH  27  31
ENDBRANCH  19  22
ENDBRANCH   1  18
TORSDOF 3
ENDMDL
