MODEL 1
REMARK VINA RESULT:      -9.3      0.000      0.000
REMARK  8 active torsions:
REMARK  status: ('A' for Active; 'I' for Inactive)
REMARK    1  A    between atoms: C_2  and  C_3 
REMARK    2  A    between atoms: C_6  and  N_7 
REMARK    3  A    between atoms: N_7  and  S_8 
REMARK    4  A    between atoms: S_8  and  C_9 
REMARK    5  A    between atoms: C_15  and  C_16 
REMARK       I    between atoms: C_16  and  N_17 
REMARK    6  A    between atoms: N_17  and  C_18 
REMARK    7  A    between atoms: C_18  and  C_19 
REMARK    8  A    between atoms: C_19  and  O_20 
ROOT
HETATM    1  C   UNL     1      25.472  43.429  50.707  1.00  0.00     0.081 A 
HETATM    2  C   UNL     1      25.446  44.806  50.473  1.00  0.00     0.043 A 
HETATM    3  C   UNL     1      24.313  45.371  49.880  1.00  0.00     0.043 A 
HETATM    4  C   UNL     1      23.199  44.581  49.548  1.00  0.00     0.046 A 
HETATM    5  N   UNL     1      22.088  45.170  48.934  1.00  0.00    -0.364 N 
HETATM    6  C   UNL     1      22.029  46.529  48.746  1.00  0.00     0.109 A 
HETATM    7  C   UNL     1      23.017  47.399  49.022  1.00  0.00     0.098 A 
HETATM    8  C   UNL     1      24.271  46.831  49.594  1.00  0.00     0.201 A 
HETATM    9  O   UNL     1      25.254  47.529  49.826  1.00  0.00    -0.286 OA
HETATM   10  C   UNL     1      23.250  43.202  49.780  1.00  0.00     0.032 A 
HETATM   11  C   UNL     1      24.381  42.624  50.368  1.00  0.00     0.027 A 
HETATM   12  H   UNL     1      21.231  44.635  48.843  1.00  0.00     0.165 HD
ENDROOT
BRANCH   1  13
HETATM   13  S   UNL     1      26.895  42.720  51.508  1.00  0.00     0.263 S 
HETATM   14  O   UNL     1      28.070  43.422  51.040  1.00  0.00    -0.200 OA
HETATM   15  O   UNL     1      26.779  41.283  51.377  1.00  0.00    -0.200 OA
BRANCH  13  16
HETATM   16  N   UNL     1      26.622  43.075  53.133  1.00  0.00    -0.281 N 
HETATM   17  H   UNL     1      25.722  43.524  53.291  1.00  0.00     0.179 HD
BRANCH  16  18
HETATM   18  C   UNL     1      27.715  43.468  53.952  1.00  0.00     0.042 A 
HETATM   19  C   UNL     1      27.704  44.716  54.572  1.00  0.00     0.030 A 
HETATM   20  C   UNL     1      28.779  45.103  55.377  1.00  0.00     0.010 A 
HETATM   21  C   UNL     1      29.868  44.242  55.583  1.00  0.00    -0.055 A 
HETATM   22  C   UNL     1      29.871  42.999  54.935  1.00  0.00     0.010 A 
HETATM   23  C   UNL     1      28.803  42.616  54.120  1.00  0.00     0.030 A 
BRANCH  21  24
HETATM   24  C   UNL     1      31.041  44.625  56.471  1.00  0.00     0.010 C 
HETATM   25  C   UNL     1      31.767  43.403  57.040  1.00  0.00     0.015 C 
HETATM   26  C   UNL     1      30.593  45.565  57.592  1.00  0.00     0.015 C 
ENDBRANCH  21  24
ENDBRANCH  16  18
ENDBRANCH  13  16
ENDBRANCH   1  13
BRANCH   7  27
HETATM   27  C   UNL     1      22.793  48.843  48.728  1.00  0.00     0.257 C 
HETATM   28  N   UNL     1      22.227  49.572  49.740  1.00  0.00    -0.355 N 
HETATM   29  H   UNL     1      21.884  49.081  50.566  1.00  0.00     0.162 HD
HETATM   30  O   UNL     1      23.103  49.335  47.645  1.00  0.00    -0.267 OA
BRANCH  28  31
HETATM   31  C   UNL     1      21.893  50.976  49.598  1.00  0.00     0.149 C 
BRANCH  31  32
HETATM   32  C   UNL     1      20.383  51.223  49.619  1.00  0.00     0.186 C 
BRANCH  32  33
HETATM   33  O   UNL     1      20.021  52.010  48.478  1.00  0.00    -0.394 OA
HETATM   34  C   UNL     1      18.664  52.426  48.542  1.00  0.00     0.201 C 
ENDBRANCH  32  33
ENDBRANCH  31  32
ENDBRANCH  28  31
ENDBRANCH   7  27
TORSDOF 8
ENDMDL
MODEL 2
REMARK VINA RESULT:      -9.2      2.029      2.843
REMARK  8 active torsions:
REMARK  status: ('A' for Active; 'I' for Inactive)
REMARK    1  A    between atoms: C_2  and  C_3 
REMARK    2  A    between atoms: C_6  and  N_7 
REMARK    3  A    between atoms: N_7  and  S_8 
REMARK    4  A    between atoms: S_8  and  C_9 
REMARK    5  A    between atoms: C_15  and  C_16 
REMARK       I    between atoms: C_16  and  N_17 
REMARK    6  A    between atoms: N_17  and  C_18 
REMARK    7  A    between atoms: C_18  and  C_19 
REMARK    8  A    between atoms: C_19  and  O_20 
ROOT
HETATM    1  C   UNL     1      27.125  41.625  51.319  1.00  0.00     0.081 A 
HETATM    2  C   UNL     1      26.711  42.955  51.217  1.00  0.00     0.043 A 
HETATM    3  C   UNL     1      25.678  43.278  50.333  1.00  0.00     0.043 A 
HETATM    4  C   UNL     1      25.037  42.283  49.575  1.00  0.00     0.046 A 
HETATM    5  N   UNL     1      24.021  42.639  48.680  1.00  0.00    -0.364 N 
HETATM    6  C   UNL     1      23.571  43.934  48.608  1.00  0.00     0.109 A 
HETATM    7  C   UNL     1      24.090  44.979  49.279  1.00  0.00     0.098 A 
HETATM    8  C   UNL     1      25.239  44.692  50.184  1.00  0.00     0.201 A 
HETATM    9  O   UNL     1      25.822  45.583  50.796  1.00  0.00    -0.286 OA
HETATM   10  C   UNL     1      25.473  40.958  49.683  1.00  0.00     0.032 A 
HETATM   11  C   UNL     1      26.511  40.624  50.561  1.00  0.00     0.027 A 
HETATM   12  H   UNL     1      23.455  41.911  48.257  1.00  0.00     0.165 HD
ENDROOT
BRANCH   1  13
HETATM   13  S   UNL     1      28.406  41.208  52.483  1.00  0.00     0.263 S 
HETATM   14  O   UNL     1      29.122  40.061  51.970  1.00  0.00    -0.200 OA
HETATM   15  O   UNL     1      27.792  41.185  53.793  1.00  0.00    -0.200 OA
BRANCH  13  16
HETATM   16  N   UNL     1      29.399  42.570  52.445  1.00  0.00    -0.281 N 
HETATM   17  H   UNL     1      30.210  42.448  51.841  1.00  0.00     0.179 HD
BRANCH  16  18
HETATM   18  C   UNL     1      29.559  43.348  53.622  1.00  0.00     0.042 A 
HETATM   19  C   UNL     1      30.578  43.044  54.522  1.00  0.00     0.030 A 
HETATM   20  C   UNL     1      30.734  43.809  55.682  1.00  0.00     0.010 A 
HETATM   21  C   UNL     1      29.884  44.893  55.947  1.00  0.00    -0.055 A 
HETATM   22  C   UNL     1      28.851  45.172  55.040  1.00  0.00     0.010 A 
HETATM   23  C   UNL     1      28.687  44.400  53.887  1.00  0.00     0.030 A 
BRANCH  21  24
HETATM   24  C   UNL     1      30.043  45.758  57.186  1.00  0.00     0.010 C 
HETATM   25  C   UNL     1      30.867  45.071  58.278  1.00  0.00     0.015 C 
HETATM   26  C   UNL     1      28.680  46.196  57.725  1.00  0.00     0.015 C 
ENDBRANCH  21  24
ENDBRANCH  16  18
ENDBRANCH  13  16
ENDBRANCH   1  13
BRANCH   7  27
HETATM   27  C   UNL     1      23.495  46.328  49.060  1.00  0.00     0.257 C 
HETATM   28  N   UNL     1      24.187  47.375  49.609  1.00  0.00    -0.355 N 
HETATM   29  H   UNL     1      24.976  47.174  50.225  1.00  0.00     0.162 HD
HETATM   30  O   UNL     1      22.453  46.478  48.426  1.00  0.00    -0.267 OA
BRANCH  28  31
HETATM   31  C   UNL     1      23.717  48.746  49.536  1.00  0.00     0.149 C 
BRANCH  31  32
HETATM   32  C   UNL     1      24.468  49.567  48.487  1.00  0.00     0.186 C 
BRANCH  32  33
HETATM   33  O   UNL     1      23.620  49.763  47.349  1.00  0.00    -0.394 OA
HETATM   34  C   UNL     1      22.410  50.417  47.708  1.00  0.00     0.201 C 
ENDBRANCH  32  33
ENDBRANCH  31  32
ENDBRANCH  28  31
ENDBRANCH   7  27
TORSDOF 8
ENDMDL
MODEL 3
REMARK VINA RESULT:      -8.9      1.813      2.284
REMARK  8 active torsions:
REMARK  status: ('A' for Active; 'I' for Inactive)
REMARK    1  A    between atoms: C_2  and  C_3 
REMARK    2  A    between atoms: C_6  and  N_7 
REMARK    3  A    between atoms: N_7  and  S_8 
REMARK    4  A    between atoms: S_8  and  C_9 
REMARK    5  A    between atoms: C_15  and  C_16 
REMARK       I    between atoms: C_16  and  N_17 
REMARK    6  A    between atoms: N_17  and  C_18 
REMARK    7  A    between atoms: C_18  and  C_19 
REMARK    8  A    between atoms: C_19  and  O_20 
ROOT
HETATM    1  C   UNL     1      26.306  43.577  50.092  1.00  0.00     0.081 A 
HETATM    2  C   UNL     1      25.035  44.008  49.705  1.00  0.00     0.043 A 
HETATM    3  C   UNL     1      24.796  45.379  49.571  1.00  0.00     0.043 A 
HETATM    4  C   UNL     1      25.820  46.317  49.790  1.00  0.00     0.046 A 
HETATM    5  N   UNL     1      25.546  47.684  49.672  1.00  0.00    -0.364 N 
HETATM    6  C   UNL     1      24.317  48.118  49.243  1.00  0.00     0.109 A 
HETATM    7  C   UNL     1      23.254  47.332  48.994  1.00  0.00     0.098 A 
HETATM    8  C   UNL     1      23.443  45.866  49.189  1.00  0.00     0.201 A 
HETATM    9  O   UNL     1      22.522  45.067  49.046  1.00  0.00    -0.286 OA
HETATM   10  C   UNL     1      27.083  45.864  50.188  1.00  0.00     0.032 A 
HETATM   11  C   UNL     1      27.332  44.495  50.331  1.00  0.00     0.027 A 
HETATM   12  H   UNL     1      26.316  48.345  49.672  1.00  0.00     0.165 HD
ENDROOT
BRANCH   1  13
HETATM   13  S   UNL     1      26.621  41.828  50.212  1.00  0.00     0.263 S 
HETATM   14  O   UNL     1      27.950  41.576  49.699  1.00  0.00    -0.200 OA
HETATM   15  O   UNL     1      25.465  41.154  49.662  1.00  0.00    -0.200 OA
BRANCH  13  16
HETATM   16  N   UNL     1      26.586  41.558  51.875  1.00  0.00    -0.281 N 
HETATM   17  H   UNL     1      25.641  41.429  52.233  1.00  0.00     0.179 HD
BRANCH  16  18
HETATM   18  C   UNL     1      27.527  42.220  52.708  1.00  0.00     0.042 A 
HETATM   19  C   UNL     1      27.098  43.211  53.589  1.00  0.00     0.030 A 
HETATM   20  C   UNL     1      28.024  43.863  54.408  1.00  0.00     0.010 A 
HETATM   21  C   UNL     1      29.385  43.524  54.365  1.00  0.00    -0.055 A 
HETATM   22  C   UNL     1      29.802  42.538  53.458  1.00  0.00     0.010 A 
HETATM   23  C   UNL     1      28.878  41.894  52.631  1.00  0.00     0.030 A 
BRANCH  21  24
HETATM   24  C   UNL     1      30.413  44.198  55.259  1.00  0.00     0.010 C 
HETATM   25  C   UNL     1      31.104  43.212  56.205  1.00  0.00     0.015 C 
HETATM   26  C   UNL     1      29.783  45.353  56.040  1.00  0.00     0.015 C 
ENDBRANCH  21  24
ENDBRANCH  16  18
ENDBRANCH  13  16
ENDBRANCH   1  13
BRANCH   7  27
HETATM   27  C   UNL     1      21.981  47.976  48.561  1.00  0.00     0.257 C 
HETATM   28  N   UNL     1      21.099  48.276  49.566  1.00  0.00    -0.355 N 
HETATM   29  H   UNL     1      21.298  47.941  50.510  1.00  0.00     0.162 HD
HETATM   30  O   UNL     1      21.750  48.217  47.379  1.00  0.00    -0.267 OA
BRANCH  28  31
HETATM   31  C   UNL     1      19.793  48.854  49.312  1.00  0.00     0.149 C 
BRANCH  31  32
HETATM   32  C   UNL     1      19.638  50.244  49.931  1.00  0.00     0.186 C 
BRANCH  32  33
HETATM   33  O   UNL     1      18.336  50.353  50.518  1.00  0.00    -0.394 OA
HETATM   34  C   UNL     1      17.526  51.290  49.820  1.00  0.00     0.201 C 
ENDBRANCH  32  33
ENDBRANCH  31  32
ENDBRANCH  28  31
ENDBRANCH   7  27
TORSDOF 8
ENDMDL
MODEL 4
REMARK VINA RESULT:      -8.9      2.514     10.594
REMARK  8 active torsions:
REMARK  status: ('A' for Active; 'I' for Inactive)
REMARK    1  A    between atoms: C_2  and  C_3 
REMARK    2  A    between atoms: C_6  and  N_7 
REMARK    3  A    between atoms: N_7  and  S_8 
REMARK    4  A    between atoms: S_8  and  C_9 
REMARK    5  A    between atoms: C_15  and  C_16 
REMARK       I    between atoms: C_16  and  N_17 
REMARK    6  A    between atoms: N_17  and  C_18 
REMARK    7  A    between atoms: C_18  and  C_19 
REMARK    8  A    between atoms: C_19  and  O_20 
ROOT
HETATM    1  C   UNL     1      23.617  47.415  49.329  1.00  0.00     0.081 A 
HETATM    2  C   UNL     1      24.379  47.458  50.498  1.00  0.00     0.043 A 
HETATM    3  C   UNL     1      24.748  46.258  51.113  1.00  0.00     0.043 A 
HETATM    4  C   UNL     1      24.388  45.019  50.554  1.00  0.00     0.046 A 
HETATM    5  N   UNL     1      24.751  43.833  51.203  1.00  0.00    -0.364 N 
HETATM    6  C   UNL     1      25.543  43.862  52.324  1.00  0.00     0.109 A 
HETATM    7  C   UNL     1      25.962  44.973  52.957  1.00  0.00     0.098 A 
HETATM    8  C   UNL     1      25.535  46.278  52.375  1.00  0.00     0.201 A 
HETATM    9  O   UNL     1      25.813  47.348  52.908  1.00  0.00    -0.286 OA
HETATM   10  C   UNL     1      23.614  44.997  49.388  1.00  0.00     0.032 A 
HETATM   11  C   UNL     1      23.235  46.193  48.768  1.00  0.00     0.027 A 
HETATM   12  H   UNL     1      24.632  42.948  50.722  1.00  0.00     0.165 HD
ENDROOT
BRANCH   1  13
HETATM   13  S   UNL     1      23.192  48.944  48.522  1.00  0.00     0.263 S 
HETATM   14  O   UNL     1      22.261  48.644  47.455  1.00  0.00    -0.200 OA
HETATM   15  O   UNL     1      24.434  49.640  48.260  1.00  0.00    -0.200 OA
BRANCH  13  16
HETATM   16  N   UNL     1      22.409  49.804  49.742  1.00  0.00    -0.281 N 
HETATM   17  H   UNL     1      22.605  49.435  50.671  1.00  0.00     0.179 HD
BRANCH  16  18
HETATM   18  C   UNL     1      21.115  50.337  49.498  1.00  0.00     0.042 A 
HETATM   19  C   UNL     1      19.993  49.704  50.026  1.00  0.00     0.030 A 
HETATM   20  C   UNL     1      18.720  50.228  49.785  1.00  0.00     0.010 A 
HETATM   21  C   UNL     1      18.556  51.397  49.026  1.00  0.00    -0.055 A 
HETATM   22  C   UNL     1      19.696  52.009  48.485  1.00  0.00     0.010 A 
HETATM   23  C   UNL     1      20.968  51.479  48.715  1.00  0.00     0.030 A 
BRANCH  21  24
HETATM   24  C   UNL     1      17.187  52.004  48.766  1.00  0.00     0.010 C 
HETATM   25  C   UNL     1      16.725  52.915  49.906  1.00  0.00     0.015 C 
HETATM   26  C   UNL     1      16.151  50.915  48.482  1.00  0.00     0.015 C 
ENDBRANCH  21  24
ENDBRANCH  16  18
ENDBRANCH  13  16
ENDBRANCH   1  13
BRANCH   7  27
HETATM   27  C   UNL     1      26.796  44.820  54.183  1.00  0.00     0.257 C 
HETATM   28  N   UNL     1      27.943  45.568  54.214  1.00  0.00    -0.355 N 
HETATM   29  H   UNL     1      28.221  46.077  53.373  1.00  0.00     0.162 HD
HETATM   30  O   UNL     1      26.465  44.070  55.098  1.00  0.00    -0.267 OA
BRANCH  28  31
HETATM   31  C   UNL     1      28.893  45.495  55.308  1.00  0.00     0.149 C 
BRANCH  31  32
HETATM   32  C   UNL     1      29.827  44.289  55.193  1.00  0.00     0.186 C 
BRANCH  32  33
HETATM   33  O   UNL     1      31.004  44.531  55.971  1.00  0.00    -0.394 OA
HETATM   34  C   UNL     1      31.384  43.380  56.713  1.00  0.00     0.201 C 
ENDBRANCH  32  33
ENDBRANCH  31  32
ENDBRANCH  28  31
ENDBRANCH   7  27
TORSDOF 8
ENDMDL
MODEL 5
REMARK VINA RESULT:      -8.9      1.487      1.835
REMARK  8 active torsions:
REMARK  status: ('A' for Active; 'I' for Inactive)
REMARK    1  A    between atoms: C_2  and  C_3 
REMARK    2  A    between atoms: C_6  and  N_7 
REMARK    3  A    between atoms: N_7  and  S_8 
REMARK    4  A    between atoms: S_8  and  C_9 
REMARK    5  A    between atoms: C_15  and  C_16 
REMARK       I    between atoms: C_16  and  N_17 
REMARK    6  A    between atoms: N_17  and  C_18 
REMARK    7  A    between atoms: C_18  and  C_19 
REMARK    8  A    between atoms: C_19  and  O_20 
ROOT
HETATM    1  C   UNL     1      25.395  44.477  49.475  1.00  0.00     0.081 A 
HETATM    2  C   UNL     1      24.938  45.782  49.664  1.00  0.00     0.043 A 
HETATM    3  C   UNL     1      23.686  46.143  49.156  1.00  0.00     0.043 A 
HETATM    4  C   UNL     1      22.878  45.204  48.492  1.00  0.00     0.046 A 
HETATM    5  N   UNL     1      21.639  45.599  47.974  1.00  0.00    -0.364 N 
HETATM    6  C   UNL     1      21.156  46.865  48.197  1.00  0.00     0.109 A 
HETATM    7  C   UNL     1      21.821  47.855  48.820  1.00  0.00     0.098 A 
HETATM    8  C   UNL     1      23.189  47.536  49.318  1.00  0.00     0.201 A 
HETATM    9  O   UNL     1      23.902  48.384  49.847  1.00  0.00    -0.286 OA
HETATM   10  C   UNL     1      23.359  43.904  48.303  1.00  0.00     0.032 A 
HETATM   11  C   UNL     1      24.613  43.534  48.802  1.00  0.00     0.027 A 
HETATM   12  H   UNL     1      20.993  44.891  47.640  1.00  0.00     0.165 HD
ENDROOT
BRANCH   1  13
HETATM   13  S   UNL     1      26.968  44.007  50.166  1.00  0.00     0.263 S 
HETATM   14  O   UNL     1      27.851  45.150  50.086  1.00  0.00    -0.200 OA
HETATM   15  O   UNL     1      27.327  42.738  49.568  1.00  0.00    -0.200 OA
BRANCH  13  16
HETATM   16  N   UNL     1      26.585  43.686  51.776  1.00  0.00    -0.281 N 
HETATM   17  H   UNL     1      25.621  43.920  52.004  1.00  0.00     0.179 HD
BRANCH  16  18
HETATM   18  C   UNL     1      27.573  43.884  52.778  1.00  0.00     0.042 A 
HETATM   19  C   UNL     1      28.694  43.059  52.819  1.00  0.00     0.030 A 
HETATM   20  C   UNL     1      29.666  43.252  53.805  1.00  0.00     0.010 A 
HETATM   21  C   UNL     1      29.533  44.280  54.752  1.00  0.00    -0.055 A 
HETATM   22  C   UNL     1      28.387  45.087  54.708  1.00  0.00     0.010 A 
HETATM   23  C   UNL     1      27.410  44.887  53.730  1.00  0.00     0.030 A 
BRANCH  21  24
HETATM   24  C   UNL     1      30.583  44.530  55.822  1.00  0.00     0.010 C 
HETATM   25  C   UNL     1      31.158  43.231  56.393  1.00  0.00     0.015 C 
HETATM   26  C   UNL     1      30.025  45.416  56.938  1.00  0.00     0.015 C 
ENDBRANCH  21  24
ENDBRANCH  16  18
ENDBRANCH  13  16
ENDBRANCH   1  13
BRANCH   7  27
HETATM   27  C   UNL     1      21.155  49.183  48.951  1.00  0.00     0.257 C 
HETATM   28  N   UNL     1      20.330  49.326  50.035  1.00  0.00    -0.355 N 
HETATM   29  H   UNL     1      20.122  48.505  50.605  1.00  0.00     0.162 HD
HETATM   30  O   UNL     1      21.345  50.082  48.136  1.00  0.00    -0.267 OA
BRANCH  28  31
HETATM   31  C   UNL     1      19.565  50.534  50.280  1.00  0.00     0.149 C 
BRANCH  31  32
HETATM   32  C   UNL     1      18.160  50.469  49.677  1.00  0.00     0.186 C 
BRANCH  32  33
HETATM   33  O   UNL     1      17.354  51.502  50.255  1.00  0.00    -0.394 OA
HETATM   34  C   UNL     1      17.501  52.730  49.555  1.00  0.00     0.201 C 
ENDBRANCH  32  33
ENDBRANCH  31  32
ENDBRANCH  28  31
ENDBRANCH   7  27
TORSDOF 8
ENDMDL
MODEL 6
REMARK VINA RESULT:      -8.7      2.395      3.659
REMARK  8 active torsions:
REMARK  status: ('A' for Active; 'I' for Inactive)
REMARK    1  A    between atoms: C_2  and  C_3 
REMARK    2  A    between atoms: C_6  and  N_7 
REMARK    3  A    between atoms: N_7  and  S_8 
REMARK    4  A    between atoms: S_8  and  C_9 
REMARK    5  A    between atoms: C_15  and  C_16 
REMARK       I    between atoms: C_16  and  N_17 
REMARK    6  A    between atoms: N_17  and  C_18 
REMARK    7  A    between atoms: C_18  and  C_19 
REMARK    8  A    between atoms: C_19  and  O_20 
ROOT
HETATM    1  C   UNL     1      25.513  44.898  50.615  1.00  0.00     0.081 A 
HETATM    2  C   UNL     1      24.321  44.745  49.904  1.00  0.00     0.043 A 
HETATM    3  C   UNL     1      23.589  45.884  49.555  1.00  0.00     0.043 A 
HETATM    4  C   UNL     1      24.053  47.170  49.881  1.00  0.00     0.046 A 
HETATM    5  N   UNL     1      23.288  48.291  49.539  1.00  0.00    -0.364 N 
HETATM    6  C   UNL     1      22.141  48.157  48.796  1.00  0.00     0.109 A 
HETATM    7  C   UNL     1      21.590  46.991  48.414  1.00  0.00     0.098 A 
HETATM    8  C   UNL     1      22.301  45.746  48.823  1.00  0.00     0.201 A 
HETATM    9  O   UNL     1      21.851  44.630  48.577  1.00  0.00    -0.286 OA
HETATM   10  C   UNL     1      25.244  47.301  50.603  1.00  0.00     0.032 A 
HETATM   11  C   UNL     1      25.982  46.167  50.963  1.00  0.00     0.027 A 
HETATM   12  H   UNL     1      23.696  49.215  49.630  1.00  0.00     0.165 HD
ENDROOT
BRANCH   1  13
HETATM   13  S   UNL     1      26.469  43.449  51.014  1.00  0.00     0.263 S 
HETATM   14  O   UNL     1      27.851  43.718  50.684  1.00  0.00    -0.200 OA
HETATM   15  O   UNL     1      25.769  42.315  50.448  1.00  0.00    -0.200 OA
BRANCH  13  16
HETATM   16  N   UNL     1      26.289  43.335  52.687  1.00  0.00    -0.281 N 
HETATM   17  H   UNL     1      25.368  43.631  53.004  1.00  0.00     0.179 HD
BRANCH  16  18
HETATM   18  C   UNL     1      27.402  43.610  53.526  1.00  0.00     0.042 A 
HETATM   19  C   UNL     1      28.336  42.611  53.789  1.00  0.00     0.030 A 
HETATM   20  C   UNL     1      29.431  42.881  54.616  1.00  0.00     0.010 A 
HETATM   21  C   UNL     1      29.611  44.154  55.176  1.00  0.00    -0.055 A 
HETATM   22  C   UNL     1      28.649  45.142  54.917  1.00  0.00     0.010 A 
HETATM   23  C   UNL     1      27.549  44.870  54.101  1.00  0.00     0.030 A 
BRANCH  21  24
HETATM   24  C   UNL     1      30.802  44.485  56.060  1.00  0.00     0.010 C 
HETATM   25  C   UNL     1      31.396  43.244  56.732  1.00  0.00     0.015 C 
HETATM   26  C   UNL     1      30.433  45.546  57.099  1.00  0.00     0.015 C 
ENDBRANCH  21  24
ENDBRANCH  16  18
ENDBRANCH  13  16
ENDBRANCH   1  13
BRANCH   7  27
HETATM   27  C   UNL     1      20.321  47.029  47.633  1.00  0.00     0.257 C 
HETATM   28  N   UNL     1      19.251  46.399  48.213  1.00  0.00    -0.355 N 
HETATM   29  H   UNL     1      19.405  45.848  49.058  1.00  0.00     0.162 HD
HETATM   30  O   UNL     1      20.251  47.592  46.543  1.00  0.00    -0.267 OA
BRANCH  28  31
HETATM   31  C   UNL     1      17.959  46.296  47.561  1.00  0.00     0.149 C 
BRANCH  31  32
HETATM   32  C   UNL     1      17.823  45.019  46.731  1.00  0.00     0.186 C 
BRANCH  32  33
HETATM   33  O   UNL     1      18.774  44.054  47.195  1.00  0.00    -0.394 OA
HETATM   34  C   UNL     1      19.515  43.493  46.120  1.00  0.00     0.201 C 
ENDBRANCH  32  33
ENDBRANCH  31  32
ENDBRANCH  28  31
ENDBRANCH   7  27
TORSDOF 8
ENDMDL
MODEL 7
REMARK VINA RESULT:      -8.7      1.878      2.564
REMARK  8 active torsions:
REMARK  status: ('A' for Active; 'I' for Inactive)
REMARK    1  A    between atoms: C_2  and  C_3 
REMARK    2  A    between atoms: C_6  and  N_7 
REMARK    3  A    between atoms: N_7  and  S_8 
REMARK    4  A    between atoms: S_8  and  C_9 
REMARK    5  A    between atoms: C_15  and  C_16 
REMARK       I    between atoms: C_16  and  N_17 
REMARK    6  A    between atoms: N_17  and  C_18 
REMARK    7  A    between atoms: C_18  and  C_19 
REMARK    8  A    between atoms: C_19  and  O_20 
ROOT
HETATM    1  C   UNL     1      25.757  44.842  50.992  1.00  0.00     0.081 A 
HETATM    2  C   UNL     1      24.769  44.772  50.008  1.00  0.00     0.043 A 
HETATM    3  C   UNL     1      24.083  45.937  49.652  1.00  0.00     0.043 A 
HETATM    4  C   UNL     1      24.398  47.172  50.245  1.00  0.00     0.046 A 
HETATM    5  N   UNL     1      23.679  48.318  49.886  1.00  0.00    -0.364 N 
HETATM    6  C   UNL     1      22.741  48.272  48.885  1.00  0.00     0.109 A 
HETATM    7  C   UNL     1      22.349  47.163  48.232  1.00  0.00     0.098 A 
HETATM    8  C   UNL     1      23.005  45.884  48.628  1.00  0.00     0.201 A 
HETATM    9  O   UNL     1      22.678  44.807  48.137  1.00  0.00    -0.286 OA
HETATM   10  C   UNL     1      25.384  47.219  51.237  1.00  0.00     0.032 A 
HETATM   11  C   UNL     1      26.072  46.057  51.606  1.00  0.00     0.027 A 
HETATM   12  H   UNL     1      24.010  49.227  50.192  1.00  0.00     0.165 HD
ENDROOT
BRANCH   1  13
HETATM   13  S   UNL     1      26.663  43.367  51.408  1.00  0.00     0.263 S 
HETATM   14  O   UNL     1      28.051  43.580  51.062  1.00  0.00    -0.200 OA
HETATM   15  O   UNL     1      25.918  42.249  50.866  1.00  0.00    -0.200 OA
BRANCH  13  16
HETATM   16  N   UNL     1      26.494  43.287  53.083  1.00  0.00    -0.281 N 
HETATM   17  H   UNL     1      25.568  43.571  53.399  1.00  0.00     0.179 HD
BRANCH  16  18
HETATM   18  C   UNL     1      27.605  43.603  53.910  1.00  0.00     0.042 A 
HETATM   19  C   UNL     1      28.622  42.668  54.093  1.00  0.00     0.030 A 
HETATM   20  C   UNL     1      29.715  42.979  54.908  1.00  0.00     0.010 A 
HETATM   21  C   UNL     1      29.809  44.230  55.537  1.00  0.00    -0.055 A 
HETATM   22  C   UNL     1      28.766  45.150  55.358  1.00  0.00     0.010 A 
HETATM   23  C   UNL     1      27.668  44.836  54.553  1.00  0.00     0.030 A 
BRANCH  21  24
HETATM   24  C   UNL     1      30.995  44.605  56.409  1.00  0.00     0.010 C 
HETATM   25  C   UNL     1      31.725  43.379  56.964  1.00  0.00     0.015 C 
HETATM   26  C   UNL     1      30.567  45.544  57.539  1.00  0.00     0.015 C 
ENDBRANCH  21  24
ENDBRANCH  16  18
ENDBRANCH  13  16
ENDBRANCH   1  13
BRANCH   7  27
HETATM   27  C   UNL     1      21.293  47.291  47.188  1.00  0.00     0.257 C 
HETATM   28  N   UNL     1      20.232  48.095  47.515  1.00  0.00    -0.355 N 
HETATM   29  H   UNL     1      20.161  48.450  48.469  1.00  0.00     0.162 HD
HETATM   30  O   UNL     1      21.380  46.710  46.109  1.00  0.00    -0.267 OA
BRANCH  28  31
HETATM   31  C   UNL     1      19.094  48.282  46.634  1.00  0.00     0.149 C 
BRANCH  31  32
HETATM   32  C   UNL     1      18.221  49.466  47.052  1.00  0.00     0.186 C 
BRANCH  32  33
HETATM   33  O   UNL     1      17.592  49.166  48.304  1.00  0.00    -0.394 OA
HETATM   34  C   UNL     1      17.750  50.230  49.234  1.00  0.00     0.201 C 
ENDBRANCH  32  33
ENDBRANCH  31  32
ENDBRANCH  28  31
ENDBRANCH   7  27
TORSDOF 8
ENDMDL
MODEL 8
REMARK VINA RESULT:      -8.3      3.228     11.413
REMARK  8 active torsions:
REMARK  status: ('A' for Active; 'I' for Inactive)
REMARK    1  A    between atoms: C_2  and  C_3 
REMARK    2  A    between atoms: C_6  and  N_7 
REMARK    3  A    between atoms: N_7  and  S_8 
REMARK    4  A    between atoms: S_8  and  C_9 
REMARK    5  A    between atoms: C_15  and  C_16 
REMARK       I    between atoms: C_16  and  N_17 
REMARK    6  A    between atoms: N_17  and  C_18 
REMARK    7  A    between atoms: C_18  and  C_19 
REMARK    8  A    between atoms: C_19  and  O_20 
ROOT
HETATM    1  C   UNL     1      21.044  49.014  48.003  1.00  0.00     0.081 A 
HETATM    2  C   UNL     1      21.787  47.930  48.474  1.00  0.00     0.043 A 
HETATM    3  C   UNL     1      23.150  48.104  48.733  1.00  0.00     0.043 A 
HETATM    4  C   UNL     1      23.766  49.355  48.556  1.00  0.00     0.046 A 
HETATM    5  N   UNL     1      25.137  49.495  48.801  1.00  0.00    -0.364 N 
HETATM    6  C   UNL     1      25.868  48.451  49.312  1.00  0.00     0.109 A 
HETATM    7  C   UNL     1      25.404  47.208  49.533  1.00  0.00     0.098 A 
HETATM    8  C   UNL     1      23.971  46.957  49.206  1.00  0.00     0.201 A 
HETATM    9  O   UNL     1      23.465  45.844  49.315  1.00  0.00    -0.286 OA
HETATM   10  C   UNL     1      23.005  50.426  48.073  1.00  0.00     0.032 A 
HETATM   11  C   UNL     1      21.642  50.261  47.805  1.00  0.00     0.027 A 
HETATM   12  H   UNL     1      25.543  50.424  48.828  1.00  0.00     0.165 HD
ENDROOT
BRANCH   1  13
HETATM   13  S   UNL     1      19.298  48.802  47.722  1.00  0.00     0.263 S 
HETATM   14  O   UNL     1      18.672  48.509  48.992  1.00  0.00    -0.200 OA
HETATM   15  O   UNL     1      19.159  47.907  46.593  1.00  0.00    -0.200 OA
BRANCH  13  16
HETATM   16  N   UNL     1      18.821  50.327  47.184  1.00  0.00    -0.281 N 
HETATM   17  H   UNL     1      19.547  50.800  46.649  1.00  0.00     0.179 HD
BRANCH  16  18
HETATM   18  C   UNL     1      17.976  51.121  48.005  1.00  0.00     0.042 A 
HETATM   19  C   UNL     1      16.592  51.018  47.881  1.00  0.00     0.030 A 
HETATM   20  C   UNL     1      15.760  51.800  48.687  1.00  0.00     0.010 A 
HETATM   21  C   UNL     1      16.302  52.682  49.635  1.00  0.00    -0.055 A 
HETATM   22  C   UNL     1      17.697  52.788  49.731  1.00  0.00     0.010 A 
HETATM   23  C   UNL     1      18.529  52.015  48.917  1.00  0.00     0.030 A 
BRANCH  21  24
HETATM   24  C   UNL     1      15.424  53.528  50.542  1.00  0.00     0.010 C 
HETATM   25  C   UNL     1      13.999  52.980  50.655  1.00  0.00     0.015 C 
HETATM   26  C   UNL     1      15.413  54.989  50.085  1.00  0.00     0.015 C 
ENDBRANCH  21  24
ENDBRANCH  16  18
ENDBRANCH  13  16
ENDBRANCH   1  13
BRANCH   7  27
HETATM   27  C   UNL     1      26.347  46.184  50.068  1.00  0.00     0.257 C 
HETATM   28  N   UNL     1      26.032  45.676  51.301  1.00  0.00    -0.355 N 
HETATM   29  H   UNL     1      25.267  46.102  51.826  1.00  0.00     0.162 HD
HETATM   30  O   UNL     1      27.336  45.825  49.433  1.00  0.00    -0.267 OA
BRANCH  28  31
HETATM   31  C   UNL     1      26.873  44.714  51.987  1.00  0.00     0.149 C 
BRANCH  31  32
HETATM   32  C   UNL     1      27.162  45.116  53.434  1.00  0.00     0.186 C 
BRANCH  32  33
HETATM   33  O   UNL     1      28.459  44.633  53.804  1.00  0.00    -0.394 OA
HETATM   34  C   UNL     1      28.774  44.966  55.150  1.00  0.00     0.201 C 
ENDBRANCH  32  33
ENDBRANCH  31  32
ENDBRANCH  28  31
ENDBRANCH   7  27
TORSDOF 8
ENDMDL
MODEL 9
REMARK VINA RESULT:      -8.2      2.224     10.360
REMARK  8 active torsions:
REMARK  status: ('A' for Active; 'I' for Inactive)
REMARK    1  A    between atoms: C_2  and  C_3 
REMARK    2  A    between atoms: C_6  and  N_7 
REMARK    3  A    between atoms: N_7  and  S_8 
REMARK    4  A    between atoms: S_8  and  C_9 
REMARK    5  A    between atoms: C_15  and  C_16 
REMARK       I    between atoms: C_16  and  N_17 
REMARK    6  A    between atoms: N_17  and  C_18 
REMARK    7  A    between atoms: C_18  and  C_19 
REMARK    8  A    between atoms: C_19  and  O_20 
ROOT
HETATM    1  C   UNL     1      23.404  47.202  49.234  1.00  0.00     0.081 A 
HETATM    2  C   UNL     1      24.456  46.829  50.073  1.00  0.00     0.043 A 
HETATM    3  C   UNL     1      24.647  45.473  50.358  1.00  0.00     0.043 A 
HETATM    4  C   UNL     1      23.818  44.491  49.790  1.00  0.00     0.046 A 
HETATM    5  N   UNL     1      24.017  43.143  50.112  1.00  0.00    -0.364 N 
HETATM    6  C   UNL     1      25.079  42.759  50.893  1.00  0.00     0.109 A 
HETATM    7  C   UNL     1      25.948  43.591  51.493  1.00  0.00     0.098 A 
HETATM    8  C   UNL     1      25.742  45.051  51.272  1.00  0.00     0.201 A 
HETATM    9  O   UNL     1      26.443  45.897  51.822  1.00  0.00    -0.286 OA
HETATM   10  C   UNL     1      22.762  44.887  48.961  1.00  0.00     0.032 A 
HETATM   11  C   UNL     1      22.558  46.241  48.674  1.00  0.00     0.027 A 
HETATM   12  H   UNL     1      23.528  42.429  49.582  1.00  0.00     0.165 HD
ENDROOT
BRANCH   1  13
HETATM   13  S   UNL     1      23.194  48.924  48.833  1.00  0.00     0.263 S 
HETATM   14  O   UNL     1      22.768  49.014  47.453  1.00  0.00    -0.200 OA
HETATM   15  O   UNL     1      24.379  49.612  49.298  1.00  0.00    -0.200 OA
BRANCH  13  16
HETATM   16  N   UNL     1      21.937  49.394  49.854  1.00  0.00    -0.281 N 
HETATM   17  H   UNL     1      21.792  48.743  50.623  1.00  0.00     0.179 HD
BRANCH  16  18
HETATM   18  C   UNL     1      20.796  50.037  49.303  1.00  0.00     0.042 A 
HETATM   19  C   UNL     1      20.835  51.401  49.027  1.00  0.00     0.030 A 
HETATM   20  C   UNL     1      19.712  52.034  48.486  1.00  0.00     0.010 A 
HETATM   21  C   UNL     1      18.545  51.309  48.202  1.00  0.00    -0.055 A 
HETATM   22  C   UNL     1      18.518  49.940  48.506  1.00  0.00     0.010 A 
HETATM   23  C   UNL     1      19.635  49.309  49.058  1.00  0.00     0.030 A 
BRANCH  21  24
HETATM   24  C   UNL     1      17.317  51.963  47.593  1.00  0.00     0.010 C 
HETATM   25  C   UNL     1      16.017  51.264  48.000  1.00  0.00     0.015 C 
HETATM   26  C   UNL     1      17.440  52.044  46.070  1.00  0.00     0.015 C 
ENDBRANCH  21  24
ENDBRANCH  16  18
ENDBRANCH  13  16
ENDBRANCH   1  13
BRANCH   7  27
HETATM   27  C   UNL     1      27.030  43.002  52.334  1.00  0.00     0.257 C 
HETATM   28  N   UNL     1      27.634  43.865  53.210  1.00  0.00    -0.355 N 
HETATM   29  H   UNL     1      27.409  44.859  53.154  1.00  0.00     0.162 HD
HETATM   30  O   UNL     1      27.347  41.819  52.240  1.00  0.00    -0.267 OA
BRANCH  28  31
HETATM   31  C   UNL     1      28.740  43.467  54.060  1.00  0.00     0.149 C 
BRANCH  31  32
HETATM   32  C   UNL     1      29.110  44.544  55.081  1.00  0.00     0.186 C 
BRANCH  32  33
HETATM   33  O   UNL     1      28.008  45.448  55.230  1.00  0.00    -0.394 OA
HETATM   34  C   UNL     1      28.435  46.802  55.185  1.00  0.00     0.201 C 
ENDBRANCH  32  33
ENDBRANCH  31  32
ENDBRANCH  28  31
ENDBRANCH   7  27
TORSDOF 8
ENDMDL
MODEL 10
REMARK VINA RESULT:      -8.2      4.785      7.594
REMARK  8 active torsions:
REMARK  status: ('A' for Active; 'I' for Inactive)
REMARK    1  A    between atoms: C_2  and  C_3 
REMARK    2  A    between atoms: C_6  and  N_7 
REMARK    3  A    between atoms: N_7  and  S_8 
REMARK    4  A    between atoms: S_8  and  C_9 
REMARK    5  A    between atoms: C_15  and  C_16 
REMARK       I    between atoms: C_16  and  N_17 
REMARK    6  A    between atoms: N_17  and  C_18 
REMARK    7  A    between atoms: C_18  and  C_19 
REMARK    8  A    between atoms: C_19  and  O_20 
ROOT
HETATM    1  C   UNL     1      25.841  42.802  50.252  1.00  0.00     0.081 A 
HETATM    2  C   UNL     1      26.774  42.237  49.380  1.00  0.00     0.043 A 
HETATM    3  C   UNL     1      26.337  41.318  48.422  1.00  0.00     0.043 A 
HETATM    4  C   UNL     1      24.976  40.984  48.308  1.00  0.00     0.046 A 
HETATM    5  N   UNL     1      24.569  40.044  47.354  1.00  0.00    -0.364 N 
HETATM    6  C   UNL     1      25.468  39.520  46.458  1.00  0.00     0.109 A 
HETATM    7  C   UNL     1      26.792  39.757  46.451  1.00  0.00     0.098 A 
HETATM    8  C   UNL     1      27.314  40.679  47.500  1.00  0.00     0.201 A 
HETATM    9  O   UNL     1      28.513  40.916  47.619  1.00  0.00    -0.286 OA
HETATM   10  C   UNL     1      24.059  41.553  49.198  1.00  0.00     0.032 A 
HETATM   11  C   UNL     1      24.487  42.469  50.166  1.00  0.00     0.027 A 
HETATM   12  H   UNL     1      23.579  39.925  47.166  1.00  0.00     0.165 HD
ENDROOT
BRANCH   1  13
HETATM   13  S   UNL     1      26.394  44.009  51.439  1.00  0.00     0.263 S 
HETATM   14  O   UNL     1      25.296  44.914  51.702  1.00  0.00    -0.200 OA
HETATM   15  O   UNL     1      27.674  44.499  50.975  1.00  0.00    -0.200 OA
BRANCH  13  16
HETATM   16  N   UNL     1      26.707  43.072  52.804  1.00  0.00    -0.281 N 
HETATM   17  H   UNL     1      25.861  42.679  53.214  1.00  0.00     0.179 HD
BRANCH  16  18
HETATM   18  C   UNL     1      27.757  43.452  53.683  1.00  0.00     0.042 A 
HETATM   19  C   UNL     1      27.645  44.621  54.433  1.00  0.00     0.030 A 
HETATM   20  C   UNL     1      28.678  44.995  55.297  1.00  0.00     0.010 A 
HETATM   21  C   UNL     1      29.826  44.199  55.431  1.00  0.00    -0.055 A 
HETATM   22  C   UNL     1      29.930  43.037  54.653  1.00  0.00     0.010 A 
HETATM   23  C   UNL     1      28.903  42.668  53.781  1.00  0.00     0.030 A 
BRANCH  21  24
HETATM   24  C   UNL     1      30.956  44.567  56.379  1.00  0.00     0.010 C 
HETATM   25  C   UNL     1      31.597  43.338  57.030  1.00  0.00     0.015 C 
HETATM   26  C   UNL     1      30.477  45.560  57.440  1.00  0.00     0.015 C 
ENDBRANCH  21  24
ENDBRANCH  16  18
ENDBRANCH  13  16
ENDBRANCH   1  13
BRANCH   7  27
HETATM   27  C   UNL     1      27.629  39.080  45.420  1.00  0.00     0.257 C 
HETATM   28  N   UNL     1      28.172  39.901  44.467  1.00  0.00    -0.355 N 
HETATM   29  H   UNL     1      27.883  40.879  44.439  1.00  0.00     0.162 HD
HETATM   30  O   UNL     1      27.814  37.865  45.436  1.00  0.00    -0.267 OA
BRANCH  28  31
HETATM   31  C   UNL     1      28.966  39.396  43.362  1.00  0.00     0.149 C 
BRANCH  31  32
HETATM   32  C   UNL     1      29.862  40.472  42.746  1.00  0.00     0.186 C 
BRANCH  32  33
HETATM   33  O   UNL     1      29.058  41.600  42.383  1.00  0.00    -0.394 OA
HETATM   34  C   UNL     1      28.342  41.364  41.178  1.00  0.00     0.201 C 
ENDBRANCH  32  33
ENDBRANCH  31  32
ENDBRANCH  28  31
ENDBRANCH   7  27
TORSDOF 8
ENDMDL
