MODEL 1
REMARK VINA RESULT:     -10.2      0.000      0.000
REMARK  4 active torsions:
REMARK  status: ('A' for Active; 'I' for Inactive)
REMARK    1  A    between atoms: C_5  and  C_6 
REMARK    2  A    between atoms: C_10  and  C_11 
REMARK       I    between atoms: C_11  and  N_12 
REMARK    3  A    between atoms: N_12  and  N_13 
REMARK       I    between atoms: N_13  and  C_14 
REMARK       I    between atoms: C_14  and  N_15 
REMARK    4  A    between atoms: N_15  and  C_16 
ROOT
HETATM    1  C   UNL     1      24.808  44.757  51.094  1.00  0.00     0.288 C 
HETATM    2  N   UNL     1      24.771  45.749  50.140  1.00  0.00    -0.261 N 
HETATM    3  O   UNL     1      23.808  44.110  51.401  1.00  0.00    -0.264 OA
HETATM    4  H   UNL     1      25.560  46.350  49.912  1.00  0.00     0.190 HD
ENDROOT
BRANCH   1   5
HETATM    5  C   UNL     1      26.087  44.544  51.713  1.00  0.00     0.121 A 
HETATM    6  N   UNL     1      27.121  43.952  51.046  1.00  0.00    -0.272 N 
HETATM    7  N   UNL     1      28.231  43.794  51.781  1.00  0.00    -0.174 NA
HETATM    8  H   UNL     1      27.119  43.625  50.085  1.00  0.00     0.189 HD
HETATM    9  C   UNL     1      27.920  44.301  52.985  1.00  0.00     0.089 A 
HETATM   10  C   UNL     1      26.586  44.799  52.975  1.00  0.00     0.071 A 
BRANCH   9  11
HETATM   11  C   UNL     1      28.870  44.273  54.105  1.00  0.00    -0.006 A 
HETATM   12  C   UNL     1      28.874  45.277  55.082  1.00  0.00     0.014 A 
HETATM   13  C   UNL     1      29.758  45.219  56.166  1.00  0.00     0.007 A 
HETATM   14  C   UNL     1      30.663  44.160  56.289  1.00  0.00    -0.062 A 
HETATM   15  C   UNL     1      31.578  44.067  57.473  1.00  0.00     0.048 C 
HETATM   16  C   UNL     1      30.664  43.155  55.317  1.00  0.00     0.007 A 
HETATM   17  C   UNL     1      29.781  43.216  54.234  1.00  0.00     0.014 A 
ENDBRANCH   9  11
ENDBRANCH   1   5
BRANCH   2  18
HETATM   18  N   UNL     1      23.536  46.117  49.576  1.00  0.00    -0.249 N 
HETATM   19  C   UNL     1      23.263  47.477  49.546  1.00  0.00     0.339 C 
HETATM   20  N   UNL     1      21.978  47.719  49.107  1.00  0.00    -0.306 N 
HETATM   21  O   UNL     1      24.119  48.313  49.818  1.00  0.00    -0.245 OA
HETATM   22  H   UNL     1      21.678  47.057  48.404  1.00  0.00     0.171 HD
HETATM   23  H   UNL     1      22.771  45.478  49.780  1.00  0.00     0.192 HD
BRANCH  20  24
HETATM   24  C   UNL     1      21.386  49.005  49.051  1.00  0.00     0.058 A 
HETATM   25  C   UNL     1      20.149  49.353  49.625  1.00  0.00     0.060 A 
HETATM   26 CL   UNL     1      19.052  48.196  50.300  1.00  0.00    -0.082 Cl
HETATM   27  C   UNL     1      19.682  50.671  49.536  1.00  0.00     0.026 A 
HETATM   28  C   UNL     1      20.418  51.638  48.853  1.00  0.00     0.002 A 
HETATM   29  C   UNL     1      21.614  51.288  48.234  1.00  0.00     0.002 A 
HETATM   30  C   UNL     1      22.089  49.977  48.324  1.00  0.00     0.031 A 
ENDBRANCH  20  24
ENDBRANCH   2  18
TORSDOF 4
ENDMDL
MODEL 2
REMARK VINA RESULT:     -10.1      1.141      1.736
REMARK  4 active torsions:
REMARK  status: ('A' for Active; 'I' for Inactive)
REMARK    1  A    between atoms: C_5  and  C_6 
REMARK    2  A    between atoms: C_10  and  C_11 
REMARK       I    between atoms: C_11  and  N_12 
REMARK    3  A    between atoms: N_12  and  N_13 
REMARK       I    between atoms: N_13  and  C_14 
REMARK       I    between atoms: C_14  and  N_15 
REMARK    4  A    between atoms: N_15  and  C_16 
ROOT
HETATM    1  C   UNL     1      24.000  45.096  50.012  1.00  0.00     0.288 C 
HETATM    2  N   UNL     1      23.833  46.324  49.412  1.00  0.00    -0.261 N 
HETATM    3  O   UNL     1      23.083  44.278  50.089  1.00  0.00    -0.264 OA
HETATM    4  H   UNL     1      24.546  47.050  49.394  1.00  0.00     0.190 HD
ENDROOT
BRANCH   1   5
HETATM    5  C   UNL     1      25.308  44.845  50.550  1.00  0.00     0.121 A 
HETATM    6  N   UNL     1      26.401  44.691  49.746  1.00  0.00    -0.272 N 
HETATM    7  N   UNL     1      27.536  44.424  50.407  1.00  0.00    -0.174 NA
HETATM    8  H   UNL     1      26.426  44.747  48.733  1.00  0.00     0.189 HD
HETATM    9  C   UNL     1      27.181  44.400  51.702  1.00  0.00     0.089 A 
HETATM   10  C   UNL     1      25.791  44.679  51.833  1.00  0.00     0.071 A 
BRANCH   9  11
HETATM   11  C   UNL     1      28.148  44.088  52.763  1.00  0.00    -0.006 A 
HETATM   12  C   UNL     1      29.202  43.190  52.548  1.00  0.00     0.014 A 
HETATM   13  C   UNL     1      30.139  42.930  53.554  1.00  0.00     0.007 A 
HETATM   14  C   UNL     1      30.035  43.553  54.801  1.00  0.00    -0.062 A 
HETATM   15  C   UNL     1      31.064  43.317  55.865  1.00  0.00     0.048 C 
HETATM   16  C   UNL     1      28.986  44.450  55.023  1.00  0.00     0.007 A 
HETATM   17  C   UNL     1      28.049  44.708  54.017  1.00  0.00     0.014 A 
ENDBRANCH   9  11
ENDBRANCH   1   5
BRANCH   2  18
HETATM   18  N   UNL     1      22.552  46.709  48.976  1.00  0.00    -0.249 N 
HETATM   19  C   UNL     1      22.222  48.044  49.164  1.00  0.00     0.339 C 
HETATM   20  N   UNL     1      20.903  48.283  48.833  1.00  0.00    -0.306 N 
HETATM   21  O   UNL     1      23.056  48.873  49.513  1.00  0.00    -0.245 OA
HETATM   22  H   UNL     1      20.591  47.718  48.056  1.00  0.00     0.171 HD
HETATM   23  H   UNL     1      21.828  46.010  49.121  1.00  0.00     0.192 HD
BRANCH  20  24
HETATM   24  C   UNL     1      20.257  49.531  49.001  1.00  0.00     0.058 A 
HETATM   25  C   UNL     1      19.342  49.839  50.027  1.00  0.00     0.060 A 
HETATM   26 CL   UNL     1      18.697  48.656  51.114  1.00  0.00    -0.082 Cl
HETATM   27  C   UNL     1      18.792  51.125  50.112  1.00  0.00     0.026 A 
HETATM   28  C   UNL     1      19.119  52.099  49.170  1.00  0.00     0.002 A 
HETATM   29  C   UNL     1      19.977  51.786  48.120  1.00  0.00     0.002 A 
HETATM   30  C   UNL     1      20.533  50.507  48.031  1.00  0.00     0.031 A 
ENDBRANCH  20  24
ENDBRANCH   2  18
TORSDOF 4
ENDMDL
MODEL 3
REMARK VINA RESULT:      -9.4      3.036     10.339
REMARK  4 active torsions:
REMARK  status: ('A' for Active; 'I' for Inactive)
REMARK    1  A    between atoms: C_5  and  C_6 
REMARK    2  A    between atoms: C_10  and  C_11 
REMARK       I    between atoms: C_11  and  N_12 
REMARK    3  A    between atoms: N_12  and  N_13 
REMARK       I    between atoms: N_13  and  C_14 
REMARK       I    between atoms: C_14  and  N_15 
REMARK    4  A    between atoms: N_15  and  C_16 
ROOT
HETATM    1  C   UNL     1      25.351  46.423  50.009  1.00  0.00     0.288 C 
HETATM    2  N   UNL     1      25.023  45.913  51.245  1.00  0.00    -0.261 N 
HETATM    3  O   UNL     1      26.220  45.913  49.303  1.00  0.00    -0.264 OA
HETATM    4  H   UNL     1      24.362  46.350  51.884  1.00  0.00     0.190 HD
ENDROOT
BRANCH   1   5
HETATM    5  C   UNL     1      24.623  47.597  49.613  1.00  0.00     0.121 A 
HETATM    6  N   UNL     1      25.257  48.760  49.282  1.00  0.00    -0.272 N 
HETATM    7  N   UNL     1      24.429  49.769  48.975  1.00  0.00    -0.174 NA
HETATM    8  H   UNL     1      26.258  48.925  49.261  1.00  0.00     0.189 HD
HETATM    9  C   UNL     1      23.196  49.253  49.108  1.00  0.00     0.089 A 
HETATM   10  C   UNL     1      23.278  47.884  49.490  1.00  0.00     0.071 A 
BRANCH   9  11
HETATM   11  C   UNL     1      21.991  50.067  48.903  1.00  0.00    -0.006 A 
HETATM   12  C   UNL     1      21.371  50.148  47.648  1.00  0.00     0.014 A 
HETATM   13  C   UNL     1      20.201  50.896  47.474  1.00  0.00     0.007 A 
HETATM   14  C   UNL     1      19.632  51.587  48.548  1.00  0.00    -0.062 A 
HETATM   15  C   UNL     1      18.352  52.349  48.379  1.00  0.00     0.048 C 
HETATM   16  C   UNL     1      20.246  51.511  49.802  1.00  0.00     0.007 A 
HETATM   17  C   UNL     1      21.416  50.764  49.974  1.00  0.00     0.014 A 
ENDBRANCH   9  11
ENDBRANCH   1   5
BRANCH   2  18
HETATM   18  N   UNL     1      25.774  44.847  51.772  1.00  0.00    -0.249 N 
HETATM   19  C   UNL     1      26.683  45.177  52.766  1.00  0.00     0.339 C 
HETATM   20  N   UNL     1      27.462  44.091  53.112  1.00  0.00    -0.306 N 
HETATM   21  O   UNL     1      26.698  46.289  53.285  1.00  0.00    -0.245 OA
HETATM   22  H   UNL     1      26.952  43.219  53.066  1.00  0.00     0.171 HD
HETATM   23  H   UNL     1      26.043  44.142  51.090  1.00  0.00     0.192 HD
BRANCH  20  24
HETATM   24  C   UNL     1      28.532  44.144  54.038  1.00  0.00     0.058 A 
HETATM   25  C   UNL     1      29.630  43.263  54.058  1.00  0.00     0.060 A 
HETATM   26 CL   UNL     1      29.724  41.834  53.086  1.00  0.00    -0.082 Cl
HETATM   27  C   UNL     1      30.650  43.438  55.003  1.00  0.00     0.026 A 
HETATM   28  C   UNL     1      30.573  44.460  55.948  1.00  0.00     0.002 A 
HETATM   29  C   UNL     1      29.463  45.299  55.971  1.00  0.00     0.002 A 
HETATM   30  C   UNL     1      28.445  45.134  55.028  1.00  0.00     0.031 A 
ENDBRANCH  20  24
ENDBRANCH   2  18
TORSDOF 4
ENDMDL
MODEL 4
REMARK VINA RESULT:      -9.2      1.954      3.113
REMARK  4 active torsions:
REMARK  status: ('A' for Active; 'I' for Inactive)
REMARK    1  A    between atoms: C_5  and  C_6 
REMARK    2  A    between atoms: C_10  and  C_11 
REMARK       I    between atoms: C_11  and  N_12 
REMARK    3  A    between atoms: N_12  and  N_13 
REMARK       I    between atoms: N_13  and  C_14 
REMARK       I    between atoms: C_14  and  N_15 
REMARK    4  A    between atoms: N_15  and  C_16 
ROOT
HETATM    1  C   UNL     1      24.296  47.750  49.720  1.00  0.00     0.288 C 
HETATM    2  N   UNL     1      23.098  47.398  49.139  1.00  0.00    -0.261 N 
HETATM    3  O   UNL     1      24.820  48.846  49.522  1.00  0.00    -0.264 OA
HETATM    4  H   UNL     1      22.674  46.477  49.224  1.00  0.00     0.190 HD
ENDROOT
BRANCH   1   5
HETATM    5  C   UNL     1      24.895  46.746  50.555  1.00  0.00     0.121 A 
HETATM    6  N   UNL     1      24.192  45.661  50.995  1.00  0.00    -0.272 N 
HETATM    7  N   UNL     1      24.888  44.843  51.797  1.00  0.00    -0.174 NA
HETATM    8  H   UNL     1      23.225  45.435  50.786  1.00  0.00     0.189 HD
HETATM    9  C   UNL     1      26.103  45.408  51.893  1.00  0.00     0.089 A 
HETATM   10  C   UNL     1      26.151  46.598  51.111  1.00  0.00     0.071 A 
BRANCH   9  11
HETATM   11  C   UNL     1      27.159  44.833  52.735  1.00  0.00    -0.006 A 
HETATM   12  C   UNL     1      27.952  43.769  52.285  1.00  0.00     0.014 A 
HETATM   13  C   UNL     1      28.981  43.254  53.082  1.00  0.00     0.007 A 
HETATM   14  C   UNL     1      29.232  43.787  54.350  1.00  0.00    -0.062 A 
HETATM   15  C   UNL     1      30.365  43.273  55.187  1.00  0.00     0.048 C 
HETATM   16  C   UNL     1      28.445  44.849  54.806  1.00  0.00     0.007 A 
HETATM   17  C   UNL     1      27.416  45.360  54.008  1.00  0.00     0.014 A 
ENDBRANCH   9  11
ENDBRANCH   1   5
BRANCH   2  18
HETATM   18  N   UNL     1      22.506  48.264  48.202  1.00  0.00    -0.249 N 
HETATM   19  C   UNL     1      21.411  48.988  48.652  1.00  0.00     0.339 C 
HETATM   20  N   UNL     1      20.824  49.696  47.623  1.00  0.00    -0.306 N 
HETATM   21  O   UNL     1      21.097  49.014  49.837  1.00  0.00    -0.245 OA
HETATM   22  H   UNL     1      21.499  50.033  46.950  1.00  0.00     0.171 HD
HETATM   23  H   UNL     1      22.489  47.908  47.250  1.00  0.00     0.192 HD
BRANCH  20  24
HETATM   24  C   UNL     1      19.639  50.458  47.759  1.00  0.00     0.058 A 
HETATM   25  C   UNL     1      18.359  50.048  47.340  1.00  0.00     0.060 A 
HETATM   26 CL   UNL     1      18.076  48.632  46.387  1.00  0.00    -0.082 Cl
HETATM   27  C   UNL     1      17.251  50.877  47.562  1.00  0.00     0.026 A 
HETATM   28  C   UNL     1      17.408  52.124  48.167  1.00  0.00     0.002 A 
HETATM   29  C   UNL     1      18.678  52.560  48.531  1.00  0.00     0.002 A 
HETATM   30  C   UNL     1      19.787  51.737  48.318  1.00  0.00     0.031 A 
ENDBRANCH  20  24
ENDBRANCH   2  18
TORSDOF 4
ENDMDL
MODEL 5
REMARK VINA RESULT:      -9.2      2.434      3.848
REMARK  4 active torsions:
REMARK  status: ('A' for Active; 'I' for Inactive)
REMARK    1  A    between atoms: C_5  and  C_6 
REMARK    2  A    between atoms: C_10  and  C_11 
REMARK       I    between atoms: C_11  and  N_12 
REMARK    3  A    between atoms: N_12  and  N_13 
REMARK       I    between atoms: N_13  and  C_14 
REMARK       I    between atoms: C_14  and  N_15 
REMARK    4  A    between atoms: N_15  and  C_16 
ROOT
HETATM    1  C   UNL     1      23.670  47.907  49.423  1.00  0.00     0.288 C 
HETATM    2  N   UNL     1      22.305  47.723  49.425  1.00  0.00    -0.261 N 
HETATM    3  O   UNL     1      24.225  48.661  48.625  1.00  0.00    -0.264 OA
HETATM    4  H   UNL     1      21.821  47.057  50.022  1.00  0.00     0.190 HD
ENDROOT
BRANCH   1   5
HETATM    5  C   UNL     1      24.396  47.149  50.404  1.00  0.00     0.121 A 
HETATM    6  N   UNL     1      24.119  45.834  50.647  1.00  0.00    -0.272 N 
HETATM    7  N   UNL     1      24.861  45.287  51.620  1.00  0.00    -0.174 NA
HETATM    8  H   UNL     1      23.421  45.261  50.183  1.00  0.00     0.189 HD
HETATM    9  C   UNL     1      25.663  46.279  52.039  1.00  0.00     0.089 A 
HETATM   10  C   UNL     1      25.412  47.461  51.285  1.00  0.00     0.071 A 
BRANCH   9  11
HETATM   11  C   UNL     1      26.609  46.093  53.146  1.00  0.00    -0.006 A 
HETATM   12  C   UNL     1      27.277  44.876  53.338  1.00  0.00     0.014 A 
HETATM   13  C   UNL     1      28.206  44.724  54.375  1.00  0.00     0.007 A 
HETATM   14  C   UNL     1      28.478  45.782  55.247  1.00  0.00    -0.062 A 
HETATM   15  C   UNL     1      29.508  45.640  56.327  1.00  0.00     0.048 C 
HETATM   16  C   UNL     1      27.815  46.999  55.061  1.00  0.00     0.007 A 
HETATM   17  C   UNL     1      26.886  47.149  54.026  1.00  0.00     0.014 A 
ENDBRANCH   9  11
ENDBRANCH   1   5
BRANCH   2  18
HETATM   18  N   UNL     1      21.528  48.321  48.416  1.00  0.00    -0.249 N 
HETATM   19  C   UNL     1      20.352  48.928  48.834  1.00  0.00     0.339 C 
HETATM   20  N   UNL     1      19.602  49.357  47.759  1.00  0.00    -0.306 N 
HETATM   21  O   UNL     1      20.101  49.098  50.023  1.00  0.00    -0.245 OA
HETATM   22  H   UNL     1      20.175  49.682  46.992  1.00  0.00     0.171 HD
HETATM   23  H   UNL     1      21.521  47.817  47.534  1.00  0.00     0.192 HD
BRANCH  20  24
HETATM   24  C   UNL     1      18.315  49.937  47.870  1.00  0.00     0.058 A 
HETATM   25  C   UNL     1      18.056  51.307  48.063  1.00  0.00     0.060 A 
HETATM   26 CL   UNL     1      19.290  52.468  48.419  1.00  0.00    -0.082 Cl
HETATM   27  C   UNL     1      16.735  51.769  48.121  1.00  0.00     0.026 A 
HETATM   28  C   UNL     1      15.668  50.877  48.022  1.00  0.00     0.002 A 
HETATM   29  C   UNL     1      15.915  49.514  47.889  1.00  0.00     0.002 A 
HETATM   30  C   UNL     1      17.231  49.047  47.824  1.00  0.00     0.031 A 
ENDBRANCH  20  24
ENDBRANCH   2  18
TORSDOF 4
ENDMDL
MODEL 6
REMARK VINA RESULT:      -8.9      6.779      8.934
REMARK  4 active torsions:
REMARK  status: ('A' for Active; 'I' for Inactive)
REMARK    1  A    between atoms: C_5  and  C_6 
REMARK    2  A    between atoms: C_10  and  C_11 
REMARK       I    between atoms: C_11  and  N_12 
REMARK    3  A    between atoms: N_12  and  N_13 
REMARK       I    between atoms: N_13  and  C_14 
REMARK       I    between atoms: C_14  and  N_15 
REMARK    4  A    between atoms: N_15  and  C_16 
ROOT
HETATM    1  C   UNL     1      27.538  40.708  51.382  1.00  0.00     0.288 C 
HETATM    2  N   UNL     1      28.587  39.864  51.095  1.00  0.00    -0.261 N 
HETATM    3  O   UNL     1      26.394  40.486  50.985  1.00  0.00    -0.264 OA
HETATM    4  H   UNL     1      29.555  40.053  51.346  1.00  0.00     0.190 HD
ENDROOT
BRANCH   1   5
HETATM    5  C   UNL     1      27.875  41.867  52.161  1.00  0.00     0.121 A 
HETATM    6  N   UNL     1      27.717  43.133  51.674  1.00  0.00    -0.272 N 
HETATM    7  N   UNL     1      28.116  44.099  52.514  1.00  0.00    -0.174 NA
HETATM    8  H   UNL     1      27.351  43.396  50.765  1.00  0.00     0.189 HD
HETATM    9  C   UNL     1      28.556  43.447  53.602  1.00  0.00     0.089 A 
HETATM   10  C   UNL     1      28.403  42.042  53.425  1.00  0.00     0.071 A 
BRANCH   9  11
HETATM   11  C   UNL     1      29.130  44.159  54.751  1.00  0.00    -0.006 A 
HETATM   12  C   UNL     1      28.505  45.290  55.294  1.00  0.00     0.014 A 
HETATM   13  C   UNL     1      29.041  45.937  56.413  1.00  0.00     0.007 A 
HETATM   14  C   UNL     1      30.219  45.474  57.006  1.00  0.00    -0.062 A 
HETATM   15  C   UNL     1      30.771  46.133  58.235  1.00  0.00     0.048 C 
HETATM   16  C   UNL     1      30.848  44.346  56.470  1.00  0.00     0.007 A 
HETATM   17  C   UNL     1      30.312  43.701  55.350  1.00  0.00     0.014 A 
ENDBRANCH   9  11
ENDBRANCH   1   5
BRANCH   2  18
HETATM   18  N   UNL     1      28.378  38.776  50.228  1.00  0.00    -0.249 N 
HETATM   19  C   UNL     1      28.649  39.006  48.887  1.00  0.00     0.339 C 
HETATM   20  N   UNL     1      28.280  37.927  48.110  1.00  0.00    -0.306 N 
HETATM   21  O   UNL     1      29.213  40.028  48.509  1.00  0.00    -0.245 OA
HETATM   22  H   UNL     1      28.422  37.045  48.581  1.00  0.00     0.171 HD
HETATM   23  H   UNL     1      27.576  38.196  50.463  1.00  0.00     0.192 HD
BRANCH  20  24
HETATM   24  C   UNL     1      28.357  37.904  46.696  1.00  0.00     0.058 A 
HETATM   25  C   UNL     1      27.564  38.678  45.828  1.00  0.00     0.060 A 
HETATM   26 CL   UNL     1      26.211  39.618  46.358  1.00  0.00    -0.082 Cl
HETATM   27  C   UNL     1      27.757  38.595  44.443  1.00  0.00     0.026 A 
HETATM   28  C   UNL     1      28.709  37.726  43.911  1.00  0.00     0.002 A 
HETATM   29  C   UNL     1      29.457  36.916  44.759  1.00  0.00     0.002 A 
HETATM   30  C   UNL     1      29.274  36.997  46.142  1.00  0.00     0.031 A 
ENDBRANCH  20  24
ENDBRANCH   2  18
TORSDOF 4
ENDMDL
MODEL 7
REMARK VINA RESULT:      -8.9      2.769     10.376
REMARK  4 active torsions:
REMARK  status: ('A' for Active; 'I' for Inactive)
REMARK    1  A    between atoms: C_5  and  C_6 
REMARK    2  A    between atoms: C_10  and  C_11 
REMARK       I    between atoms: C_11  and  N_12 
REMARK    3  A    between atoms: N_12  and  N_13 
REMARK       I    between atoms: N_13  and  C_14 
REMARK       I    between atoms: C_14  and  N_15 
REMARK    4  A    between atoms: N_15  and  C_16 
ROOT
HETATM    1  C   UNL     1      24.802  47.047  49.377  1.00  0.00     0.288 C 
HETATM    2  N   UNL     1      24.888  45.680  49.230  1.00  0.00    -0.261 N 
HETATM    3  O   UNL     1      25.797  47.745  49.571  1.00  0.00    -0.264 OA
HETATM    4  H   UNL     1      24.081  45.066  49.139  1.00  0.00     0.190 HD
ENDROOT
BRANCH   1   5
HETATM    5  C   UNL     1      23.476  47.593  49.306  1.00  0.00     0.121 A 
HETATM    6  N   UNL     1      22.410  46.848  48.889  1.00  0.00    -0.272 N 
HETATM    7  N   UNL     1      21.252  47.521  48.844  1.00  0.00    -0.174 NA
HETATM    8  H   UNL     1      22.421  45.872  48.611  1.00  0.00     0.189 HD
HETATM    9  C   UNL     1      21.562  48.764  49.247  1.00  0.00     0.089 A 
HETATM   10  C   UNL     1      22.948  48.844  49.564  1.00  0.00     0.071 A 
BRANCH   9  11
HETATM   11  C   UNL     1      20.559  49.836  49.291  1.00  0.00    -0.006 A 
HETATM   12  C   UNL     1      20.732  51.026  48.571  1.00  0.00     0.014 A 
HETATM   13  C   UNL     1      19.750  52.024  48.590  1.00  0.00     0.007 A 
HETATM   14  C   UNL     1      18.581  51.857  49.337  1.00  0.00    -0.062 A 
HETATM   15  C   UNL     1      17.505  52.901  49.321  1.00  0.00     0.048 C 
HETATM   16  C   UNL     1      18.402  50.672  50.058  1.00  0.00     0.007 A 
HETATM   17  C   UNL     1      19.384  49.676  50.039  1.00  0.00     0.014 A 
ENDBRANCH   9  11
ENDBRANCH   1   5
BRANCH   2  18
HETATM   18  N   UNL     1      26.127  45.043  49.417  1.00  0.00    -0.249 N 
HETATM   19  C   UNL     1      26.338  44.480  50.667  1.00  0.00     0.339 C 
HETATM   20  N   UNL     1      27.629  44.007  50.791  1.00  0.00    -0.306 N 
HETATM   21  O   UNL     1      25.435  44.378  51.490  1.00  0.00    -0.245 OA
HETATM   22  H   UNL     1      27.989  43.632  49.924  1.00  0.00     0.171 HD
HETATM   23  H   UNL     1      26.911  45.500  48.957  1.00  0.00     0.192 HD
BRANCH  20  24
HETATM   24  C   UNL     1      28.163  43.457  51.982  1.00  0.00     0.058 A 
HETATM   25  C   UNL     1      28.539  42.112  52.155  1.00  0.00     0.060 A 
HETATM   26 CL   UNL     1      28.196  40.870  51.000  1.00  0.00    -0.082 Cl
HETATM   27  C   UNL     1      29.091  41.691  53.373  1.00  0.00     0.026 A 
HETATM   28  C   UNL     1      29.242  42.588  54.429  1.00  0.00     0.002 A 
HETATM   29  C   UNL     1      28.819  43.905  54.285  1.00  0.00     0.002 A 
HETATM   30  C   UNL     1      28.273  44.334  53.072  1.00  0.00     0.031 A 
ENDBRANCH  20  24
ENDBRANCH   2  18
TORSDOF 4
ENDMDL
MODEL 8
REMARK VINA RESULT:      -8.6      6.937      8.652
REMARK  4 active torsions:
REMARK  status: ('A' for Active; 'I' for Inactive)
REMARK    1  A    between atoms: C_5  and  C_6 
REMARK    2  A    between atoms: C_10  and  C_11 
REMARK       I    between atoms: C_11  and  N_12 
REMARK    3  A    between atoms: N_12  and  N_13 
REMARK       I    between atoms: N_13  and  C_14 
REMARK       I    between atoms: C_14  and  N_15 
REMARK    4  A    between atoms: N_15  and  C_16 
ROOT
HETATM    1  C   UNL     1      26.956  41.589  51.024  1.00  0.00     0.288 C 
HETATM    2  N   UNL     1      26.824  40.219  51.020  1.00  0.00    -0.261 N 
HETATM    3  O   UNL     1      26.321  42.307  50.252  1.00  0.00    -0.264 OA
HETATM    4  H   UNL     1      27.384  39.592  51.594  1.00  0.00     0.190 HD
ENDROOT
BRANCH   1   5
HETATM    5  C   UNL     1      27.894  42.117  51.976  1.00  0.00     0.121 A 
HETATM    6  N   UNL     1      29.198  41.714  52.002  1.00  0.00    -0.272 N 
HETATM    7  N   UNL     1      29.927  42.274  52.977  1.00  0.00    -0.174 NA
HETATM    8  H   UNL     1      29.643  41.046  51.380  1.00  0.00     0.189 HD
HETATM    9  C   UNL     1      29.072  43.081  53.625  1.00  0.00     0.089 A 
HETATM   10  C   UNL     1      27.787  43.023  53.013  1.00  0.00     0.071 A 
BRANCH   9  11
HETATM   11  C   UNL     1      29.479  43.851  54.807  1.00  0.00    -0.006 A 
HETATM   12  C   UNL     1      30.602  43.486  55.563  1.00  0.00     0.014 A 
HETATM   13  C   UNL     1      31.003  44.250  56.665  1.00  0.00     0.007 A 
HETATM   14  C   UNL     1      30.283  45.388  57.041  1.00  0.00    -0.062 A 
HETATM   15  C   UNL     1      30.737  46.237  58.191  1.00  0.00     0.048 C 
HETATM   16  C   UNL     1      29.162  45.757  56.292  1.00  0.00     0.007 A 
HETATM   17  C   UNL     1      28.762  44.992  55.192  1.00  0.00     0.014 A 
ENDBRANCH   9  11
ENDBRANCH   1   5
BRANCH   2  18
HETATM   18  N   UNL     1      26.030  39.605  50.035  1.00  0.00    -0.249 N 
HETATM   19  C   UNL     1      26.714  39.049  48.963  1.00  0.00     0.339 C 
HETATM   20  N   UNL     1      25.841  38.601  47.992  1.00  0.00    -0.306 N 
HETATM   21  O   UNL     1      27.935  38.932  48.967  1.00  0.00    -0.245 OA
HETATM   22  H   UNL     1      24.986  38.231  48.382  1.00  0.00     0.171 HD
HETATM   23  H   UNL     1      25.148  40.076  49.850  1.00  0.00     0.192 HD
BRANCH  20  24
HETATM   24  C   UNL     1      26.247  38.064  46.747  1.00  0.00     0.058 A 
HETATM   25  C   UNL     1      26.472  36.699  46.488  1.00  0.00     0.060 A 
HETATM   26 CL   UNL     1      26.500  35.486  47.723  1.00  0.00    -0.082 Cl
HETATM   27  C   UNL     1      26.837  36.281  45.201  1.00  0.00     0.026 A 
HETATM   28  C   UNL     1      27.013  37.212  44.178  1.00  0.00     0.002 A 
HETATM   29  C   UNL     1      26.850  38.568  44.441  1.00  0.00     0.002 A 
HETATM   30  C   UNL     1      26.480  38.991  45.720  1.00  0.00     0.031 A 
ENDBRANCH  20  24
ENDBRANCH   2  18
TORSDOF 4
ENDMDL
MODEL 9
REMARK VINA RESULT:      -8.5     18.263     19.840
REMARK  4 active torsions:
REMARK  status: ('A' for Active; 'I' for Inactive)
REMARK    1  A    between atoms: C_5  and  C_6 
REMARK    2  A    between atoms: C_10  and  C_11 
REMARK       I    between atoms: C_11  and  N_12 
REMARK    3  A    between atoms: N_12  and  N_13 
REMARK       I    between atoms: N_13  and  C_14 
REMARK       I    between atoms: C_14  and  N_15 
REMARK    4  A    between atoms: N_15  and  C_16 
ROOT
HETATM    1  C   UNL     1      37.894  42.657  63.494  1.00  0.00     0.288 C 
HETATM    2  N   UNL     1      38.555  43.764  63.011  1.00  0.00    -0.261 N 
HETATM    3  O   UNL     1      36.721  42.707  63.862  1.00  0.00    -0.264 OA
HETATM    4  H   UNL     1      39.542  43.776  62.765  1.00  0.00     0.190 HD
ENDROOT
BRANCH   1   5
HETATM    5  C   UNL     1      38.672  41.451  63.552  1.00  0.00     0.121 A 
HETATM    6  N   UNL     1      39.102  40.815  62.422  1.00  0.00    -0.272 N 
HETATM    7  N   UNL     1      39.782  39.684  62.652  1.00  0.00    -0.174 NA
HETATM    8  H   UNL     1      38.948  41.108  61.462  1.00  0.00     0.189 HD
HETATM    9  C   UNL     1      39.804  39.563  63.990  1.00  0.00     0.089 A 
HETATM   10  C   UNL     1      39.132  40.665  64.591  1.00  0.00     0.071 A 
BRANCH   9  11
HETATM   11  C   UNL     1      40.424  38.408  64.652  1.00  0.00    -0.006 A 
HETATM   12  C   UNL     1      39.851  37.828  65.792  1.00  0.00     0.014 A 
HETATM   13  C   UNL     1      40.431  36.703  66.392  1.00  0.00     0.007 A 
HETATM   14  C   UNL     1      41.600  36.143  65.870  1.00  0.00    -0.062 A 
HETATM   15  C   UNL     1      42.197  34.909  66.479  1.00  0.00     0.048 C 
HETATM   16  C   UNL     1      42.177  36.716  64.733  1.00  0.00     0.007 A 
HETATM   17  C   UNL     1      41.597  37.841  64.136  1.00  0.00     0.014 A 
ENDBRANCH   9  11
ENDBRANCH   1   5
BRANCH   2  18
HETATM   18  N   UNL     1      37.915  45.016  63.042  1.00  0.00    -0.249 N 
HETATM   19  C   UNL     1      38.158  45.795  64.164  1.00  0.00     0.339 C 
HETATM   20  N   UNL     1      37.378  46.933  64.161  1.00  0.00    -0.306 N 
HETATM   21  O   UNL     1      39.020  45.495  64.984  1.00  0.00    -0.245 OA
HETATM   22  H   UNL     1      37.229  47.298  63.230  1.00  0.00     0.171 HD
HETATM   23  H   UNL     1      36.977  45.022  62.648  1.00  0.00     0.192 HD
BRANCH  20  24
HETATM   24  C   UNL     1      37.345  47.876  65.217  1.00  0.00     0.058 A 
HETATM   25  C   UNL     1      38.188  48.998  65.329  1.00  0.00     0.060 A 
HETATM   26 CL   UNL     1      39.552  49.271  64.298  1.00  0.00    -0.082 Cl
HETATM   27  C   UNL     1      38.037  49.883  66.404  1.00  0.00     0.026 A 
HETATM   28  C   UNL     1      37.076  49.647  67.386  1.00  0.00     0.002 A 
HETATM   29  C   UNL     1      36.277  48.510  67.313  1.00  0.00     0.002 A 
HETATM   30  C   UNL     1      36.419  47.625  66.241  1.00  0.00     0.031 A 
ENDBRANCH  20  24
ENDBRANCH   2  18
TORSDOF 4
ENDMDL
MODEL 10
REMARK VINA RESULT:      -8.5      9.656     13.416
REMARK  4 active torsions:
REMARK  status: ('A' for Active; 'I' for Inactive)
REMARK    1  A    between atoms: C_5  and  C_6 
REMARK    2  A    between atoms: C_10  and  C_11 
REMARK       I    between atoms: C_11  and  N_12 
REMARK    3  A    between atoms: N_12  and  N_13 
REMARK       I    between atoms: N_13  and  C_14 
REMARK       I    between atoms: C_14  and  N_15 
REMARK    4  A    between atoms: N_15  and  C_16 
ROOT
HETATM    1  C   UNL     1      14.564  53.511  50.662  1.00  0.00     0.288 C 
HETATM    2  N   UNL     1      14.945  54.108  51.843  1.00  0.00    -0.261 N 
HETATM    3  O   UNL     1      13.418  53.603  50.225  1.00  0.00    -0.264 OA
HETATM    4  H   UNL     1      15.862  53.993  52.269  1.00  0.00     0.190 HD
ENDROOT
BRANCH   1   5
HETATM    5  C   UNL     1      15.591  52.764  49.990  1.00  0.00     0.121 A 
HETATM    6  N   UNL     1      15.298  51.703  49.181  1.00  0.00    -0.272 N 
HETATM    7  N   UNL     1      16.373  51.093  48.663  1.00  0.00    -0.174 NA
HETATM    8  H   UNL     1      14.375  51.344  48.956  1.00  0.00     0.189 HD
HETATM    9  C   UNL     1      17.422  51.776  49.149  1.00  0.00     0.089 A 
HETATM   10  C   UNL     1      16.969  52.846  49.973  1.00  0.00     0.071 A 
BRANCH   9  11
HETATM   11  C   UNL     1      18.806  51.385  48.850  1.00  0.00    -0.006 A 
HETATM   12  C   UNL     1      19.174  50.922  47.579  1.00  0.00     0.014 A 
HETATM   13  C   UNL     1      20.503  50.589  47.295  1.00  0.00     0.007 A 
HETATM   14  C   UNL     1      21.490  50.701  48.278  1.00  0.00    -0.062 A 
HETATM   15  C   UNL     1      22.923  50.393  47.966  1.00  0.00     0.048 C 
HETATM   16  C   UNL     1      21.130  51.161  49.549  1.00  0.00     0.007 A 
HETATM   17  C   UNL     1      19.800  51.492  49.832  1.00  0.00     0.014 A 
ENDBRANCH   9  11
ENDBRANCH   1   5
BRANCH   2  18
HETATM   18  N   UNL     1      13.975  54.747  52.636  1.00  0.00    -0.249 N 
HETATM   19  C   UNL     1      14.305  56.014  53.096  1.00  0.00     0.339 C 
HETATM   20  N   UNL     1      13.352  56.491  53.972  1.00  0.00    -0.306 N 
HETATM   21  O   UNL     1      15.294  56.613  52.685  1.00  0.00    -0.245 OA
HETATM   22  H   UNL     1      12.417  56.195  53.727  1.00  0.00     0.171 HD
HETATM   23  H   UNL     1      13.463  54.128  53.259  1.00  0.00     0.192 HD
BRANCH  20  24
HETATM   24  C   UNL     1      13.458  57.719  54.669  1.00  0.00     0.058 A 
HETATM   25  C   UNL     1      13.295  58.994  54.095  1.00  0.00     0.060 A 
HETATM   26 CL   UNL     1      13.159  59.260  52.390  1.00  0.00    -0.082 Cl
HETATM   27  C   UNL     1      13.388  60.140  54.896  1.00  0.00     0.026 A 
HETATM   28  C   UNL     1      13.673  60.032  56.256  1.00  0.00     0.002 A 
HETATM   29  C   UNL     1      13.893  58.779  56.819  1.00  0.00     0.002 A 
HETATM   30  C   UNL     1      13.796  57.631  56.028  1.00  0.00     0.031 A 
ENDBRANCH  20  24
ENDBRANCH   2  18
TORSDOF 4
ENDMDL
