MODEL 1
REMARK VINA RESULT:     -10.3      0.000      0.000
REMARK  7 active torsions:
REMARK  status: ('A' for Active; 'I' for Inactive)
REMARK       I    between atoms: C_2  and  N_3 
REMARK    1  A    between atoms: N_3  and  C_4 
REMARK    2  A    between atoms: C_7  and  N_8 
REMARK       I    between atoms: N_8  and  C_9 
REMARK    3  A    between atoms: C_9  and  C_10 
REMARK    4  A    between atoms: C_10  and  S_11 
REMARK    5  A    between atoms: S_11  and  C_12 
REMARK    6  A    between atoms: N_13  and  N_14 
REMARK    7  A    between atoms: C_20  and  C_21 
ROOT
HETATM    1  C   UNL     1      23.772  45.984  49.863  1.00  0.00     0.206 A 
HETATM    2  N   UNL     1      24.612  45.363  50.754  1.00  0.00    -0.234 N 
HETATM    3  C   UNL     1      25.229  46.391  51.436  1.00  0.00     0.197 A 
HETATM    4  C   UNL     1      26.179  46.279  52.491  1.00  0.00     0.101 A 
HETATM    5  N   UNL     1      26.447  47.321  53.329  1.00  0.00    -0.274 N 
HETATM    6  H   UNL     1      26.033  48.248  53.312  1.00  0.00     0.189 HD
HETATM    7  N   UNL     1      27.357  47.040  54.276  1.00  0.00    -0.174 NA
HETATM    8  C   UNL     1      27.740  45.779  54.011  1.00  0.00     0.089 A 
HETATM    9  C   UNL     1      27.005  45.261  52.907  1.00  0.00     0.069 A 
HETATM   10  N   UNL     1      24.780  47.547  50.978  1.00  0.00    -0.125 NA
HETATM   11  N   UNL     1      23.885  47.289  49.965  1.00  0.00    -0.121 NA
ENDROOT
BRANCH   1  12
HETATM   12  S   UNL     1      22.686  45.121  48.828  1.00  0.00    -0.080 SA
BRANCH  12  13
HETATM   13  C   UNL     1      22.389  46.357  47.529  1.00  0.00     0.185 C 
BRANCH  13  14
HETATM   14  C   UNL     1      21.184  47.224  47.876  1.00  0.00     0.231 C 
HETATM   15  N   UNL     1      21.535  48.505  48.265  1.00  0.00    -0.327 N 
HETATM   16  H   UNL     1      22.529  48.673  48.409  1.00  0.00     0.169 HD
HETATM   17  O   UNL     1      20.044  46.769  47.818  1.00  0.00    -0.272 OA
BRANCH  15  18
HETATM   18  C   UNL     1      20.687  49.544  48.692  1.00  0.00     0.034 A 
HETATM   19  C   UNL     1      20.657  50.816  48.126  1.00  0.00     0.032 A 
HETATM   20  C   UNL     1      19.749  51.783  48.587  1.00  0.00     0.032 A 
HETATM   21  C   UNL     1      18.860  51.492  49.620  1.00  0.00     0.034 A 
HETATM   22  C   UNL     1      18.929  50.230  50.220  1.00  0.00     0.032 A 
HETATM   23  C   UNL     1      19.822  49.262  49.752  1.00  0.00     0.032 A 
BRANCH  21  24
HETATM   24  N   UNL     1      17.914  52.386  50.147  1.00  0.00    -0.328 N 
HETATM   25  C   UNL     1      16.590  52.594  49.899  1.00  0.00     0.218 C 
HETATM   26  C   UNL     1      15.797  51.652  49.040  1.00  0.00     0.117 C 
HETATM   27  O   UNL     1      16.039  53.556  50.442  1.00  0.00    -0.274 OA
HETATM   28  H   UNL     1      18.242  53.010  50.877  1.00  0.00     0.169 HD
ENDBRANCH  21  24
ENDBRANCH  15  18
ENDBRANCH  13  14
ENDBRANCH  12  13
ENDBRANCH   1  12
BRANCH   2  29
HETATM   29  N   UNL     1      24.746  43.945  50.986  1.00  0.00    -0.239 NA
HETATM   30  H   UNL     1      23.887  43.463  50.715  1.00  0.00     0.143 HD
HETATM   31  H   UNL     1      24.849  43.762  51.984  1.00  0.00     0.143 HD
ENDBRANCH   2  29
BRANCH   8  32
HETATM   32  C   UNL     1      28.783  45.113  54.798  1.00  0.00    -0.006 A 
HETATM   33  C   UNL     1      29.334  45.741  55.925  1.00  0.00     0.015 A 
HETATM   34  C   UNL     1      30.336  45.119  56.675  1.00  0.00     0.024 A 
HETATM   35  C   UNL     1      30.801  43.862  56.297  1.00  0.00     0.034 A 
HETATM   36 CL   UNL     1      32.040  43.095  57.211  1.00  0.00    -0.084 Cl
HETATM   37  C   UNL     1      30.269  43.223  55.180  1.00  0.00     0.024 A 
HETATM   38  C   UNL     1      29.263  43.845  54.433  1.00  0.00     0.015 A 
ENDBRANCH   8  32
TORSDOF 7
ENDMDL
MODEL 2
REMARK VINA RESULT:     -10.2      5.201     11.925
REMARK  7 active torsions:
REMARK  status: ('A' for Active; 'I' for Inactive)
REMARK       I    between atoms: C_2  and  N_3 
REMARK    1  A    between atoms: N_3  and  C_4 
REMARK    2  A    between atoms: C_7  and  N_8 
REMARK       I    between atoms: N_8  and  C_9 
REMARK    3  A    between atoms: C_9  and  C_10 
REMARK    4  A    between atoms: C_10  and  S_11 
REMARK    5  A    between atoms: S_11  and  C_12 
REMARK    6  A    between atoms: N_13  and  N_14 
REMARK    7  A    between atoms: C_20  and  C_21 
ROOT
HETATM    1  C   UNL     1      25.178  46.429  49.956  1.00  0.00     0.206 A 
HETATM    2  N   UNL     1      23.948  46.887  49.554  1.00  0.00    -0.234 N 
HETATM    3  C   UNL     1      24.073  48.260  49.522  1.00  0.00     0.197 A 
HETATM    4  C   UNL     1      23.082  49.209  49.142  1.00  0.00     0.101 A 
HETATM    5  N   UNL     1      23.406  50.488  48.798  1.00  0.00    -0.274 N 
HETATM    6  H   UNL     1      24.333  50.902  48.769  1.00  0.00     0.189 HD
HETATM    7  N   UNL     1      22.352  51.244  48.452  1.00  0.00    -0.174 NA
HETATM    8  C   UNL     1      21.288  50.442  48.631  1.00  0.00     0.089 A 
HETATM    9  C   UNL     1      21.710  49.147  49.045  1.00  0.00     0.069 A 
HETATM   10  N   UNL     1      25.301  48.592  49.882  1.00  0.00    -0.125 NA
HETATM   11  N   UNL     1      25.987  47.438  50.186  1.00  0.00    -0.121 NA
ENDROOT
BRANCH   1  12
HETATM   12  S   UNL     1      25.575  44.747  50.059  1.00  0.00    -0.080 SA
BRANCH  12  13
HETATM   13  C   UNL     1      24.555  44.236  51.474  1.00  0.00     0.185 C 
BRANCH  13  14
HETATM   14  C   UNL     1      25.386  44.207  52.752  1.00  0.00     0.231 C 
HETATM   15  N   UNL     1      26.749  44.220  52.509  1.00  0.00    -0.327 N 
HETATM   16  H   UNL     1      27.032  44.108  51.537  1.00  0.00     0.169 HD
HETATM   17  O   UNL     1      24.845  44.154  53.854  1.00  0.00    -0.272 OA
BRANCH  15  18
HETATM   18  C   UNL     1      27.797  44.158  53.447  1.00  0.00     0.034 A 
HETATM   19  C   UNL     1      28.099  45.169  54.356  1.00  0.00     0.032 A 
HETATM   20  C   UNL     1      29.138  45.007  55.286  1.00  0.00     0.032 A 
HETATM   21  C   UNL     1      29.891  43.835  55.319  1.00  0.00     0.034 A 
HETATM   22  C   UNL     1      29.618  42.844  54.370  1.00  0.00     0.032 A 
HETATM   23  C   UNL     1      28.574  42.997  53.454  1.00  0.00     0.032 A 
BRANCH  21  24
HETATM   24  N   UNL     1      30.944  43.577  56.211  1.00  0.00    -0.328 N 
HETATM   25  C   UNL     1      31.315  44.131  57.399  1.00  0.00     0.218 C 
HETATM   26  C   UNL     1      30.433  45.112  58.116  1.00  0.00     0.117 C 
HETATM   27  O   UNL     1      32.382  43.769  57.905  1.00  0.00    -0.274 OA
HETATM   28  H   UNL     1      31.568  42.816  55.963  1.00  0.00     0.169 HD
ENDBRANCH  21  24
ENDBRANCH  15  18
ENDBRANCH  13  14
ENDBRANCH  12  13
ENDBRANCH   1  12
BRANCH   2  29
HETATM   29  N   UNL     1      22.808  46.096  49.161  1.00  0.00    -0.239 NA
HETATM   30  H   UNL     1      23.026  45.101  49.239  1.00  0.00     0.143 HD
HETATM   31  H   UNL     1      22.603  46.244  48.172  1.00  0.00     0.143 HD
ENDBRANCH   2  29
BRANCH   8  32
HETATM   32  C   UNL     1      19.920  50.922  48.414  1.00  0.00    -0.006 A 
HETATM   33  C   UNL     1      19.425  52.014  49.144  1.00  0.00     0.015 A 
HETATM   34  C   UNL     1      18.118  52.472  48.953  1.00  0.00     0.024 A 
HETATM   35  C   UNL     1      17.292  51.835  48.031  1.00  0.00     0.034 A 
HETATM   36 CL   UNL     1      15.680  52.389  47.797  1.00  0.00    -0.084 Cl
HETATM   37  C   UNL     1      17.764  50.748  47.298  1.00  0.00     0.024 A 
HETATM   38  C   UNL     1      19.073  50.294  47.488  1.00  0.00     0.015 A 
ENDBRANCH   8  32
TORSDOF 7
ENDMDL
MODEL 3
REMARK VINA RESULT:     -10.0      5.044      8.978
REMARK  7 active torsions:
REMARK  status: ('A' for Active; 'I' for Inactive)
REMARK       I    between atoms: C_2  and  N_3 
REMARK    1  A    between atoms: N_3  and  C_4 
REMARK    2  A    between atoms: C_7  and  N_8 
REMARK       I    between atoms: N_8  and  C_9 
REMARK    3  A    between atoms: C_9  and  C_10 
REMARK    4  A    between atoms: C_10  and  S_11 
REMARK    5  A    between atoms: S_11  and  C_12 
REMARK    6  A    between atoms: N_13  and  N_14 
REMARK    7  A    between atoms: C_20  and  C_21 
ROOT
HETATM    1  C   UNL     1      23.482  45.151  49.969  1.00  0.00     0.206 A 
HETATM    2  N   UNL     1      24.354  44.679  50.918  1.00  0.00    -0.234 N 
HETATM    3  C   UNL     1      25.042  45.792  51.355  1.00  0.00     0.197 A 
HETATM    4  C   UNL     1      26.048  45.845  52.360  1.00  0.00     0.101 A 
HETATM    5  N   UNL     1      26.397  47.017  52.966  1.00  0.00    -0.274 N 
HETATM    6  H   UNL     1      26.010  47.939  52.792  1.00  0.00     0.189 HD
HETATM    7  N   UNL     1      27.352  46.884  53.901  1.00  0.00    -0.174 NA
HETATM    8  C   UNL     1      27.680  45.582  53.866  1.00  0.00     0.089 A 
HETATM    9  C   UNL     1      26.866  44.892  52.922  1.00  0.00     0.069 A 
HETATM   10  N   UNL     1      24.601  46.856  50.706  1.00  0.00    -0.125 NA
HETATM   11  N   UNL     1      23.640  46.446  49.810  1.00  0.00    -0.121 NA
ENDROOT
BRANCH   1  12
HETATM   12  S   UNL     1      22.311  44.152  49.179  1.00  0.00    -0.080 SA
BRANCH  12  13
HETATM   13  C   UNL     1      23.262  43.573  47.742  1.00  0.00     0.185 C 
BRANCH  13  14
HETATM   14  C   UNL     1      24.072  42.331  48.098  1.00  0.00     0.231 C 
HETATM   15  N   UNL     1      25.420  42.598  48.269  1.00  0.00    -0.327 N 
HETATM   16  H   UNL     1      25.728  43.532  48.007  1.00  0.00     0.169 HD
HETATM   17  O   UNL     1      23.532  41.231  48.188  1.00  0.00    -0.272 OA
BRANCH  15  18
HETATM   18  C   UNL     1      26.453  41.687  48.558  1.00  0.00     0.034 A 
HETATM   19  C   UNL     1      27.311  41.143  47.606  1.00  0.00     0.032 A 
HETATM   20  C   UNL     1      28.343  40.272  47.988  1.00  0.00     0.032 A 
HETATM   21  C   UNL     1      28.532  39.932  49.325  1.00  0.00     0.034 A 
HETATM   22  C   UNL     1      27.637  40.439  50.273  1.00  0.00     0.032 A 
HETATM   23  C   UNL     1      26.618  41.319  49.896  1.00  0.00     0.032 A 
BRANCH  21  24
HETATM   24  N   UNL     1      29.535  39.075  49.806  1.00  0.00    -0.328 N 
HETATM   25  C   UNL     1      29.527  37.784  50.245  1.00  0.00     0.218 C 
HETATM   26  C   UNL     1      28.314  36.913  50.091  1.00  0.00     0.117 C 
HETATM   27  O   UNL     1      30.565  37.327  50.733  1.00  0.00    -0.274 OA
HETATM   28  H   UNL     1      30.476  39.452  49.829  1.00  0.00     0.169 HD
ENDBRANCH  21  24
ENDBRANCH  15  18
ENDBRANCH  13  14
ENDBRANCH  12  13
ENDBRANCH   1  12
BRANCH   2  29
HETATM   29  N   UNL     1      24.458  43.327  51.413  1.00  0.00    -0.239 NA
HETATM   30  H   UNL     1      25.432  43.021  51.395  1.00  0.00     0.143 HD
HETATM   31  H   UNL     1      23.968  42.687  50.787  1.00  0.00     0.143 HD
ENDBRANCH   2  29
BRANCH   8  32
HETATM   32  C   UNL     1      28.747  45.036  54.710  1.00  0.00    -0.006 A 
HETATM   33  C   UNL     1      29.335  43.799  54.403  1.00  0.00     0.015 A 
HETATM   34  C   UNL     1      30.345  43.265  55.208  1.00  0.00     0.024 A 
HETATM   35  C   UNL     1      30.772  43.964  56.334  1.00  0.00     0.034 A 
HETATM   36 CL   UNL     1      32.008  43.308  57.334  1.00  0.00    -0.084 Cl
HETATM   37  C   UNL     1      30.200  45.192  56.657  1.00  0.00     0.024 A 
HETATM   38  C   UNL     1      29.192  45.727  55.848  1.00  0.00     0.015 A 
ENDBRANCH   8  32
TORSDOF 7
ENDMDL
MODEL 4
REMARK VINA RESULT:      -9.9      1.365      2.070
REMARK  7 active torsions:
REMARK  status: ('A' for Active; 'I' for Inactive)
REMARK       I    between atoms: C_2  and  N_3 
REMARK    1  A    between atoms: N_3  and  C_4 
REMARK    2  A    between atoms: C_7  and  N_8 
REMARK       I    between atoms: N_8  and  C_9 
REMARK    3  A    between atoms: C_9  and  C_10 
REMARK    4  A    between atoms: C_10  and  S_11 
REMARK    5  A    between atoms: S_11  and  C_12 
REMARK    6  A    between atoms: N_13  and  N_14 
REMARK    7  A    between atoms: C_20  and  C_21 
ROOT
HETATM    1  C   UNL     1      23.916  46.482  49.618  1.00  0.00     0.206 A 
HETATM    2  N   UNL     1      24.937  46.484  50.536  1.00  0.00    -0.234 N 
HETATM    3  C   UNL     1      25.308  45.161  50.659  1.00  0.00     0.197 A 
HETATM    4  C   UNL     1      26.347  44.628  51.473  1.00  0.00     0.101 A 
HETATM    5  N   UNL     1      26.867  43.387  51.253  1.00  0.00    -0.274 N 
HETATM    6  H   UNL     1      26.600  42.727  50.530  1.00  0.00     0.189 HD
HETATM    7  N   UNL     1      27.848  43.047  52.105  1.00  0.00    -0.174 NA
HETATM    8  C   UNL     1      27.936  44.088  52.950  1.00  0.00     0.089 A 
HETATM    9  C   UNL     1      27.020  45.111  52.572  1.00  0.00     0.069 A 
HETATM   10  N   UNL     1      24.554  44.424  49.862  1.00  0.00    -0.125 NA
HETATM   11  N   UNL     1      23.656  45.254  49.230  1.00  0.00    -0.121 NA
ENDROOT
BRANCH   1  12
HETATM   12  S   UNL     1      23.163  47.927  49.035  1.00  0.00    -0.080 SA
BRANCH  12  13
HETATM   13  C   UNL     1      21.918  47.238  47.904  1.00  0.00     0.185 C 
BRANCH  13  14
HETATM   14  C   UNL     1      20.667  48.109  47.887  1.00  0.00     0.231 C 
HETATM   15  N   UNL     1      20.777  49.226  48.697  1.00  0.00    -0.327 N 
HETATM   16  H   UNL     1      21.597  49.264  49.300  1.00  0.00     0.169 HD
HETATM   17  O   UNL     1      19.685  47.788  47.222  1.00  0.00    -0.272 OA
BRANCH  15  18
HETATM   18  C   UNL     1      19.806  50.213  48.949  1.00  0.00     0.034 A 
HETATM   19  C   UNL     1      18.762  50.074  49.861  1.00  0.00     0.032 A 
HETATM   20  C   UNL     1      17.860  51.127  50.081  1.00  0.00     0.032 A 
HETATM   21  C   UNL     1      17.986  52.331  49.392  1.00  0.00     0.034 A 
HETATM   22  C   UNL     1      19.005  52.449  48.441  1.00  0.00     0.032 A 
HETATM   23  C   UNL     1      19.913  51.407  48.231  1.00  0.00     0.032 A 
BRANCH  21  24
HETATM   24  N   UNL     1      17.140  53.441  49.545  1.00  0.00    -0.328 N 
HETATM   25  C   UNL     1      15.789  53.572  49.671  1.00  0.00     0.218 C 
HETATM   26  C   UNL     1      14.902  52.377  49.872  1.00  0.00     0.117 C 
HETATM   27  O   UNL     1      15.309  54.710  49.667  1.00  0.00    -0.274 OA
HETATM   28  H   UNL     1      17.591  54.348  49.594  1.00  0.00     0.169 HD
ENDBRANCH  21  24
ENDBRANCH  15  18
ENDBRANCH  13  14
ENDBRANCH  12  13
ENDBRANCH   1  12
BRANCH   2  29
HETATM   29  N   UNL     1      25.547  47.633  51.160  1.00  0.00    -0.239 NA
HETATM   30  H   UNL     1      25.922  48.262  50.448  1.00  0.00     0.143 HD
HETATM   31  H   UNL     1      26.355  47.344  51.711  1.00  0.00     0.143 HD
ENDBRANCH   2  29
BRANCH   8  32
HETATM   32  C   UNL     1      28.868  44.080  54.083  1.00  0.00    -0.006 A 
HETATM   33  C   UNL     1      28.902  45.157  54.982  1.00  0.00     0.015 A 
HETATM   34  C   UNL     1      29.794  45.164  56.058  1.00  0.00     0.024 A 
HETATM   35  C   UNL     1      30.666  44.094  56.240  1.00  0.00     0.034 A 
HETATM   36 CL   UNL     1      31.772  44.101  57.557  1.00  0.00    -0.084 Cl
HETATM   37  C   UNL     1      30.648  43.017  55.356  1.00  0.00     0.024 A 
HETATM   38  C   UNL     1      29.753  43.010  54.283  1.00  0.00     0.015 A 
ENDBRANCH   8  32
TORSDOF 7
ENDMDL
MODEL 5
REMARK VINA RESULT:      -9.9      1.682      2.121
REMARK  7 active torsions:
REMARK  status: ('A' for Active; 'I' for Inactive)
REMARK       I    between atoms: C_2  and  N_3 
REMARK    1  A    between atoms: N_3  and  C_4 
REMARK    2  A    between atoms: C_7  and  N_8 
REMARK       I    between atoms: N_8  and  C_9 
REMARK    3  A    between atoms: C_9  and  C_10 
REMARK    4  A    between atoms: C_10  and  S_11 
REMARK    5  A    between atoms: S_11  and  C_12 
REMARK    6  A    between atoms: N_13  and  N_14 
REMARK    7  A    between atoms: C_20  and  C_21 
ROOT
HETATM    1  C   UNL     1      24.023  44.861  49.522  1.00  0.00     0.206 A 
HETATM    2  N   UNL     1      24.825  45.171  50.592  1.00  0.00    -0.234 N 
HETATM    3  C   UNL     1      25.790  44.186  50.612  1.00  0.00     0.197 A 
HETATM    4  C   UNL     1      26.882  44.063  51.518  1.00  0.00     0.101 A 
HETATM    5  N   UNL     1      27.965  43.283  51.236  1.00  0.00    -0.274 N 
HETATM    6  H   UNL     1      28.123  42.728  50.402  1.00  0.00     0.189 HD
HETATM    7  N   UNL     1      28.907  43.294  52.193  1.00  0.00    -0.174 NA
HETATM    8  C   UNL     1      28.395  44.069  53.164  1.00  0.00     0.089 A 
HETATM    9  C   UNL     1      27.130  44.587  52.766  1.00  0.00     0.069 A 
HETATM   10  N   UNL     1      25.573  43.346  49.613  1.00  0.00    -0.125 NA
HETATM   11  N   UNL     1      24.440  43.755  48.947  1.00  0.00    -0.121 NA
ENDROOT
BRANCH   1  12
HETATM   12  S   UNL     1      22.708  45.858  49.004  1.00  0.00    -0.080 SA
BRANCH  12  13
HETATM   13  C   UNL     1      23.589  47.378  48.536  1.00  0.00     0.185 C 
BRANCH  13  14
HETATM   14  C   UNL     1      22.895  48.604  49.120  1.00  0.00     0.231 C 
HETATM   15  N   UNL     1      21.571  48.709  48.731  1.00  0.00    -0.327 N 
HETATM   16  H   UNL     1      21.262  48.059  48.010  1.00  0.00     0.169 HD
HETATM   17  O   UNL     1      23.507  49.391  49.838  1.00  0.00    -0.272 OA
BRANCH  15  18
HETATM   18  C   UNL     1      20.654  49.730  49.046  1.00  0.00     0.034 A 
HETATM   19  C   UNL     1      20.668  51.002  48.480  1.00  0.00     0.032 A 
HETATM   20  C   UNL     1      19.688  51.947  48.821  1.00  0.00     0.032 A 
HETATM   21  C   UNL     1      18.683  51.636  49.735  1.00  0.00     0.034 A 
HETATM   22  C   UNL     1      18.703  50.375  50.340  1.00  0.00     0.032 A 
HETATM   23  C   UNL     1      19.669  49.427  49.989  1.00  0.00     0.032 A 
BRANCH  21  24
HETATM   24  N   UNL     1      17.659  52.509  50.137  1.00  0.00    -0.328 N 
HETATM   25  C   UNL     1      16.378  52.700  49.713  1.00  0.00     0.218 C 
HETATM   26  C   UNL     1      15.725  51.759  48.743  1.00  0.00     0.117 C 
HETATM   27  O   UNL     1      15.741  53.647  50.186  1.00  0.00    -0.274 OA
HETATM   28  H   UNL     1      17.873  53.127  50.912  1.00  0.00     0.169 HD
ENDBRANCH  21  24
ENDBRANCH  15  18
ENDBRANCH  13  14
ENDBRANCH  12  13
ENDBRANCH   1  12
BRANCH   2  29
HETATM   29  N   UNL     1      24.730  46.328  51.448  1.00  0.00    -0.239 NA
HETATM   30  H   UNL     1      25.336  47.074  51.101  1.00  0.00     0.143 HD
HETATM   31  H   UNL     1      25.089  46.107  52.377  1.00  0.00     0.143 HD
ENDBRANCH   2  29
BRANCH   8  32
HETATM   32  C   UNL     1      29.106  44.288  54.427  1.00  0.00    -0.006 A 
HETATM   33  C   UNL     1      28.778  45.378  55.248  1.00  0.00     0.015 A 
HETATM   34  C   UNL     1      29.458  45.601  56.449  1.00  0.00     0.024 A 
HETATM   35  C   UNL     1      30.477  44.736  56.836  1.00  0.00     0.034 A 
HETATM   36 CL   UNL     1      31.323  45.011  58.309  1.00  0.00    -0.084 Cl
HETATM   37  C   UNL     1      30.819  43.649  56.034  1.00  0.00     0.024 A 
HETATM   38  C   UNL     1      30.135  43.426  54.835  1.00  0.00     0.015 A 
ENDBRANCH   8  32
TORSDOF 7
ENDMDL
MODEL 6
REMARK VINA RESULT:      -9.6      3.829      5.544
REMARK  7 active torsions:
REMARK  status: ('A' for Active; 'I' for Inactive)
REMARK       I    between atoms: C_2  and  N_3 
REMARK    1  A    between atoms: N_3  and  C_4 
REMARK    2  A    between atoms: C_7  and  N_8 
REMARK       I    between atoms: N_8  and  C_9 
REMARK    3  A    between atoms: C_9  and  C_10 
REMARK    4  A    between atoms: C_10  and  S_11 
REMARK    5  A    between atoms: S_11  and  C_12 
REMARK    6  A    between atoms: N_13  and  N_14 
REMARK    7  A    between atoms: C_20  and  C_21 
ROOT
HETATM    1  C   UNL     1      26.122  40.659  48.072  1.00  0.00     0.206 A 
HETATM    2  N   UNL     1      26.675  41.536  48.972  1.00  0.00    -0.234 N 
HETATM    3  C   UNL     1      27.186  40.741  49.976  1.00  0.00     0.197 A 
HETATM    4  C   UNL     1      27.888  41.165  51.140  1.00  0.00     0.101 A 
HETATM    5  N   UNL     1      28.656  40.305  51.868  1.00  0.00    -0.274 N 
HETATM    6  H   UNL     1      28.817  39.319  51.688  1.00  0.00     0.189 HD
HETATM    7  N   UNL     1      29.259  40.873  52.925  1.00  0.00    -0.174 NA
HETATM    8  C   UNL     1      28.822  42.144  52.920  1.00  0.00     0.089 A 
HETATM    9  C   UNL     1      27.973  42.370  51.799  1.00  0.00     0.069 A 
HETATM   10  N   UNL     1      26.951  39.473  49.686  1.00  0.00    -0.125 NA
HETATM   11  N   UNL     1      26.252  39.424  48.502  1.00  0.00    -0.121 NA
ENDROOT
BRANCH   1  12
HETATM   12  S   UNL     1      25.429  41.158  46.567  1.00  0.00    -0.080 SA
BRANCH  12  13
HETATM   13  C   UNL     1      23.669  40.814  46.864  1.00  0.00     0.185 C 
BRANCH  13  14
HETATM   14  C   UNL     1      22.941  42.079  47.306  1.00  0.00     0.231 C 
HETATM   15  N   UNL     1      23.788  43.164  47.454  1.00  0.00    -0.327 N 
HETATM   16  H   UNL     1      24.786  42.966  47.391  1.00  0.00     0.169 HD
HETATM   17  O   UNL     1      21.731  42.068  47.515  1.00  0.00    -0.272 OA
BRANCH  15  18
HETATM   18  C   UNL     1      23.464  44.464  47.886  1.00  0.00     0.034 A 
HETATM   19  C   UNL     1      22.530  45.289  47.264  1.00  0.00     0.032 A 
HETATM   20  C   UNL     1      22.238  46.558  47.787  1.00  0.00     0.032 A 
HETATM   21  C   UNL     1      22.875  47.022  48.936  1.00  0.00     0.034 A 
HETATM   22  C   UNL     1      23.850  46.211  49.527  1.00  0.00     0.032 A 
HETATM   23  C   UNL     1      24.131  44.940  49.017  1.00  0.00     0.032 A 
BRANCH  21  24
HETATM   24  N   UNL     1      22.649  48.270  49.537  1.00  0.00    -0.328 N 
HETATM   25  C   UNL     1      22.961  49.548  49.177  1.00  0.00     0.218 C 
HETATM   26  C   UNL     1      23.508  49.866  47.816  1.00  0.00     0.117 C 
HETATM   27  O   UNL     1      22.735  50.454  49.985  1.00  0.00    -0.274 OA
HETATM   28  H   UNL     1      22.134  48.263  50.411  1.00  0.00     0.169 HD
ENDBRANCH  21  24
ENDBRANCH  15  18
ENDBRANCH  13  14
ENDBRANCH  12  13
ENDBRANCH   1  12
BRANCH   2  29
HETATM   29  N   UNL     1      26.778  42.970  48.842  1.00  0.00    -0.239 NA
HETATM   30  H   UNL     1      27.500  43.210  48.161  1.00  0.00     0.143 HD
HETATM   31  H   UNL     1      27.098  43.378  49.721  1.00  0.00     0.143 HD
ENDBRANCH   2  29
BRANCH   8  32
HETATM   32  C   UNL     1      29.211  43.094  53.967  1.00  0.00    -0.006 A 
HETATM   33  C   UNL     1      28.401  44.203  54.257  1.00  0.00     0.015 A 
HETATM   34  C   UNL     1      28.768  45.120  55.246  1.00  0.00     0.024 A 
HETATM   35  C   UNL     1      29.956  44.938  55.950  1.00  0.00     0.034 A 
HETATM   36 CL   UNL     1      30.417  46.068  57.162  1.00  0.00    -0.084 Cl
HETATM   37  C   UNL     1      30.774  43.845  55.675  1.00  0.00     0.024 A 
HETATM   38  C   UNL     1      30.403  42.926  54.688  1.00  0.00     0.015 A 
ENDBRANCH   8  32
TORSDOF 7
ENDMDL
MODEL 7
REMARK VINA RESULT:      -9.5      5.295     11.340
REMARK  7 active torsions:
REMARK  status: ('A' for Active; 'I' for Inactive)
REMARK       I    between atoms: C_2  and  N_3 
REMARK    1  A    between atoms: N_3  and  C_4 
REMARK    2  A    between atoms: C_7  and  N_8 
REMARK       I    between atoms: N_8  and  C_9 
REMARK    3  A    between atoms: C_9  and  C_10 
REMARK    4  A    between atoms: C_10  and  S_11 
REMARK    5  A    between atoms: S_11  and  C_12 
REMARK    6  A    between atoms: N_13  and  N_14 
REMARK    7  A    between atoms: C_20  and  C_21 
ROOT
HETATM    1  C   UNL     1      25.822  43.641  49.481  1.00  0.00     0.206 A 
HETATM    2  N   UNL     1      24.736  44.451  49.257  1.00  0.00    -0.234 N 
HETATM    3  C   UNL     1      25.197  45.733  49.473  1.00  0.00     0.197 A 
HETATM    4  C   UNL     1      24.465  46.947  49.345  1.00  0.00     0.101 A 
HETATM    5  N   UNL     1      25.090  48.153  49.223  1.00  0.00    -0.274 N 
HETATM    6  H   UNL     1      26.089  48.330  49.207  1.00  0.00     0.189 HD
HETATM    7  N   UNL     1      24.249  49.193  49.098  1.00  0.00    -0.174 NA
HETATM    8  C   UNL     1      23.024  48.650  49.198  1.00  0.00     0.089 A 
HETATM    9  C   UNL     1      23.120  47.236  49.335  1.00  0.00     0.069 A 
HETATM   10  N   UNL     1      26.477  45.683  49.801  1.00  0.00    -0.125 NA
HETATM   11  N   UNL     1      26.861  44.362  49.837  1.00  0.00    -0.121 NA
ENDROOT
BRANCH   1  12
HETATM   12  S   UNL     1      25.790  41.928  49.242  1.00  0.00    -0.080 SA
BRANCH  12  13
HETATM   13  C   UNL     1      27.492  41.482  49.700  1.00  0.00     0.185 C 
BRANCH  13  14
HETATM   14  C   UNL     1      27.721  41.697  51.191  1.00  0.00     0.231 C 
HETATM   15  N   UNL     1      28.612  42.723  51.457  1.00  0.00    -0.327 N 
HETATM   16  H   UNL     1      29.104  43.109  50.653  1.00  0.00     0.169 HD
HETATM   17  O   UNL     1      27.162  40.987  52.023  1.00  0.00    -0.272 OA
BRANCH  15  18
HETATM   18  C   UNL     1      29.081  43.161  52.710  1.00  0.00     0.034 A 
HETATM   19  C   UNL     1      30.288  42.764  53.279  1.00  0.00     0.032 A 
HETATM   20  C   UNL     1      30.700  43.283  54.517  1.00  0.00     0.032 A 
HETATM   21  C   UNL     1      29.910  44.202  55.204  1.00  0.00     0.034 A 
HETATM   22  C   UNL     1      28.674  44.558  54.654  1.00  0.00     0.032 A 
HETATM   23  C   UNL     1      28.270  44.055  53.414  1.00  0.00     0.032 A 
BRANCH  21  24
HETATM   24  N   UNL     1      30.235  44.779  56.443  1.00  0.00    -0.328 N 
HETATM   25  C   UNL     1      31.032  44.383  57.475  1.00  0.00     0.218 C 
HETATM   26  C   UNL     1      31.944  43.197  57.349  1.00  0.00     0.117 C 
HETATM   27  O   UNL     1      31.026  45.057  58.510  1.00  0.00    -0.274 OA
HETATM   28  H   UNL     1      29.826  45.687  56.637  1.00  0.00     0.169 HD
ENDBRANCH  21  24
ENDBRANCH  15  18
ENDBRANCH  13  14
ENDBRANCH  12  13
ENDBRANCH   1  12
BRANCH   2  29
HETATM   29  N   UNL     1      23.426  44.050  48.805  1.00  0.00    -0.239 NA
HETATM   30  H   UNL     1      23.474  43.132  48.359  1.00  0.00     0.143 HD
HETATM   31  H   UNL     1      23.100  44.682  48.073  1.00  0.00     0.143 HD
ENDBRANCH   2  29
BRANCH   8  32
HETATM   32  C   UNL     1      21.813  49.477  49.170  1.00  0.00    -0.006 A 
HETATM   33  C   UNL     1      20.561  48.913  49.457  1.00  0.00     0.015 A 
HETATM   34  C   UNL     1      19.399  49.691  49.422  1.00  0.00     0.024 A 
HETATM   35  C   UNL     1      19.482  51.041  49.093  1.00  0.00     0.034 A 
HETATM   36 CL   UNL     1      18.056  52.001  49.040  1.00  0.00    -0.084 Cl
HETATM   37  C   UNL     1      20.716  51.618  48.802  1.00  0.00     0.024 A 
HETATM   38  C   UNL     1      21.877  50.840  48.842  1.00  0.00     0.015 A 
ENDBRANCH   8  32
TORSDOF 7
ENDMDL
MODEL 8
REMARK VINA RESULT:      -9.5      3.010      4.322
REMARK  7 active torsions:
REMARK  status: ('A' for Active; 'I' for Inactive)
REMARK       I    between atoms: C_2  and  N_3 
REMARK    1  A    between atoms: N_3  and  C_4 
REMARK    2  A    between atoms: C_7  and  N_8 
REMARK       I    between atoms: N_8  and  C_9 
REMARK    3  A    between atoms: C_9  and  C_10 
REMARK    4  A    between atoms: C_10  and  S_11 
REMARK    5  A    between atoms: S_11  and  C_12 
REMARK    6  A    between atoms: N_13  and  N_14 
REMARK    7  A    between atoms: C_20  and  C_21 
ROOT
HETATM    1  C   UNL     1      25.648  41.590  49.051  1.00  0.00     0.206 A 
HETATM    2  N   UNL     1      26.174  42.422  50.008  1.00  0.00    -0.234 N 
HETATM    3  C   UNL     1      27.133  41.665  50.649  1.00  0.00     0.197 A 
HETATM    4  C   UNL     1      27.990  42.075  51.709  1.00  0.00     0.101 A 
HETATM    5  N   UNL     1      29.128  41.390  52.020  1.00  0.00    -0.274 N 
HETATM    6  H   UNL     1      29.488  40.557  51.566  1.00  0.00     0.189 HD
HETATM    7  N   UNL     1      29.825  41.922  53.037  1.00  0.00    -0.174 NA
HETATM    8  C   UNL     1      29.084  42.967  53.444  1.00  0.00     0.089 A 
HETATM    9  C   UNL     1      27.931  43.106  52.619  1.00  0.00     0.069 A 
HETATM   10  N   UNL     1      27.172  40.461  50.103  1.00  0.00    -0.125 NA
HETATM   11  N   UNL     1      26.213  40.405  49.118  1.00  0.00    -0.121 NA
ENDROOT
BRANCH   1  12
HETATM   12  S   UNL     1      24.462  42.102  47.899  1.00  0.00    -0.080 SA
BRANCH  12  13
HETATM   13  C   UNL     1      22.948  42.023  48.902  1.00  0.00     0.185 C 
BRANCH  13  14
HETATM   14  C   UNL     1      22.573  43.408  49.420  1.00  0.00     0.231 C 
HETATM   15  N   UNL     1      22.043  44.225  48.436  1.00  0.00    -0.327 N 
HETATM   16  H   UNL     1      22.095  43.871  47.482  1.00  0.00     0.169 HD
HETATM   17  O   UNL     1      22.766  43.715  50.593  1.00  0.00    -0.272 OA
BRANCH  15  18
HETATM   18  C   UNL     1      21.634  45.567  48.552  1.00  0.00     0.034 A 
HETATM   19  C   UNL     1      20.308  45.979  48.648  1.00  0.00     0.032 A 
HETATM   20  C   UNL     1      19.990  47.338  48.803  1.00  0.00     0.032 A 
HETATM   21  C   UNL     1      20.993  48.303  48.861  1.00  0.00     0.034 A 
HETATM   22  C   UNL     1      22.321  47.891  48.712  1.00  0.00     0.032 A 
HETATM   23  C   UNL     1      22.640  46.537  48.573  1.00  0.00     0.032 A 
BRANCH  21  24
HETATM   24  N   UNL     1      20.777  49.682  49.017  1.00  0.00    -0.328 N 
HETATM   25  C   UNL     1      20.289  50.648  48.189  1.00  0.00     0.218 C 
HETATM   26  C   UNL     1      19.656  50.304  46.872  1.00  0.00     0.117 C 
HETATM   27  O   UNL     1      20.333  51.822  48.571  1.00  0.00    -0.274 OA
HETATM   28  H   UNL     1      21.003  50.073  49.925  1.00  0.00     0.169 HD
ENDBRANCH  21  24
ENDBRANCH  15  18
ENDBRANCH  13  14
ENDBRANCH  12  13
ENDBRANCH   1  12
BRANCH   2  29
HETATM   29  N   UNL     1      25.856  43.812  50.227  1.00  0.00    -0.239 NA
HETATM   30  H   UNL     1      25.216  44.144  49.503  1.00  0.00     0.143 HD
HETATM   31  H   UNL     1      26.694  44.383  50.122  1.00  0.00     0.143 HD
ENDBRANCH   2  29
BRANCH   8  32
HETATM   32  C   UNL     1      29.480  43.788  54.592  1.00  0.00    -0.006 A 
HETATM   33  C   UNL     1      30.592  43.431  55.371  1.00  0.00     0.015 A 
HETATM   34  C   UNL     1      30.970  44.201  56.475  1.00  0.00     0.024 A 
HETATM   35  C   UNL     1      30.234  45.333  56.812  1.00  0.00     0.034 A 
HETATM   36 CL   UNL     1      30.690  46.280  58.174  1.00  0.00    -0.084 Cl
HETATM   37  C   UNL     1      29.126  45.702  56.053  1.00  0.00     0.024 A 
HETATM   38  C   UNL     1      28.750  44.933  54.947  1.00  0.00     0.015 A 
ENDBRANCH   8  32
TORSDOF 7
ENDMDL
MODEL 9
REMARK VINA RESULT:      -9.2      1.411      1.855
REMARK  7 active torsions:
REMARK  status: ('A' for Active; 'I' for Inactive)
REMARK       I    between atoms: C_2  and  N_3 
REMARK    1  A    between atoms: N_3  and  C_4 
REMARK    2  A    between atoms: C_7  and  N_8 
REMARK       I    between atoms: N_8  and  C_9 
REMARK    3  A    between atoms: C_9  and  C_10 
REMARK    4  A    between atoms: C_10  and  S_11 
REMARK    5  A    between atoms: S_11  and  C_12 
REMARK    6  A    between atoms: N_13  and  N_14 
REMARK    7  A    between atoms: C_20  and  C_21 
ROOT
HETATM    1  C   UNL     1      23.659  45.121  50.042  1.00  0.00     0.206 A 
HETATM    2  N   UNL     1      24.534  44.641  50.985  1.00  0.00    -0.234 N 
HETATM    3  C   UNL     1      25.177  45.758  51.476  1.00  0.00     0.197 A 
HETATM    4  C   UNL     1      26.167  45.805  52.498  1.00  0.00     0.101 A 
HETATM    5  N   UNL     1      26.466  46.962  53.154  1.00  0.00    -0.274 N 
HETATM    6  H   UNL     1      26.051  47.877  53.011  1.00  0.00     0.189 HD
HETATM    7  N   UNL     1      27.413  46.825  54.097  1.00  0.00    -0.174 NA
HETATM    8  C   UNL     1      27.786  45.537  54.016  1.00  0.00     0.089 A 
HETATM    9  C   UNL     1      27.010  44.858  53.034  1.00  0.00     0.069 A 
HETATM   10  N   UNL     1      24.709  46.832  50.862  1.00  0.00    -0.125 NA
HETATM   11  N   UNL     1      23.776  46.425  49.936  1.00  0.00    -0.121 NA
ENDROOT
BRANCH   1  12
HETATM   12  S   UNL     1      22.535  44.115  49.195  1.00  0.00    -0.080 SA
BRANCH  12  13
HETATM   13  C   UNL     1      22.887  44.574  47.472  1.00  0.00     0.185 C 
BRANCH  13  14
HETATM   14  C   UNL     1      21.948  45.682  47.008  1.00  0.00     0.231 C 
HETATM   15  N   UNL     1      21.229  46.249  48.047  1.00  0.00    -0.327 N 
HETATM   16  H   UNL     1      21.301  45.782  48.949  1.00  0.00     0.169 HD
HETATM   17  O   UNL     1      21.865  45.981  45.819  1.00  0.00    -0.272 OA
BRANCH  15  18
HETATM   18  C   UNL     1      20.251  47.258  47.974  1.00  0.00     0.034 A 
HETATM   19  C   UNL     1      18.943  47.119  48.431  1.00  0.00     0.032 A 
HETATM   20  C   UNL     1      18.041  48.193  48.357  1.00  0.00     0.032 A 
HETATM   21  C   UNL     1      18.433  49.419  47.824  1.00  0.00     0.034 A 
HETATM   22  C   UNL     1      19.732  49.538  47.319  1.00  0.00     0.032 A 
HETATM   23  C   UNL     1      20.636  48.475  47.406  1.00  0.00     0.032 A 
BRANCH  21  24
HETATM   24  N   UNL     1      17.609  50.550  47.710  1.00  0.00    -0.328 N 
HETATM   25  C   UNL     1      17.286  51.557  48.571  1.00  0.00     0.218 C 
HETATM   26  C   UNL     1      17.997  51.725  49.882  1.00  0.00     0.117 C 
HETATM   27  O   UNL     1      16.420  52.366  48.224  1.00  0.00    -0.274 OA
HETATM   28  H   UNL     1      17.160  50.692  46.813  1.00  0.00     0.169 HD
ENDBRANCH  21  24
ENDBRANCH  15  18
ENDBRANCH  13  14
ENDBRANCH  12  13
ENDBRANCH   1  12
BRANCH   2  29
HETATM   29  N   UNL     1      24.678  43.275  51.427  1.00  0.00    -0.239 NA
HETATM   30  H   UNL     1      24.667  43.233  52.447  1.00  0.00     0.143 HD
HETATM   31  H   UNL     1      25.593  42.914  51.157  1.00  0.00     0.143 HD
ENDBRANCH   2  29
BRANCH   8  32
HETATM   32  C   UNL     1      28.859  44.994  54.855  1.00  0.00    -0.006 A 
HETATM   33  C   UNL     1      29.306  45.700  55.983  1.00  0.00     0.015 A 
HETATM   34  C   UNL     1      30.336  45.196  56.782  1.00  0.00     0.024 A 
HETATM   35  C   UNL     1      30.933  43.982  56.455  1.00  0.00     0.034 A 
HETATM   36 CL   UNL     1      32.206  43.361  57.431  1.00  0.00    -0.084 Cl
HETATM   37  C   UNL     1      30.505  43.267  55.339  1.00  0.00     0.024 A 
HETATM   38  C   UNL     1      29.472  43.771  54.542  1.00  0.00     0.015 A 
ENDBRANCH   8  32
TORSDOF 7
ENDMDL
MODEL 10
REMARK VINA RESULT:      -8.7      5.662      9.510
REMARK  7 active torsions:
REMARK  status: ('A' for Active; 'I' for Inactive)
REMARK       I    between atoms: C_2  and  N_3 
REMARK    1  A    between atoms: N_3  and  C_4 
REMARK    2  A    between atoms: C_7  and  N_8 
REMARK       I    between atoms: N_8  and  C_9 
REMARK    3  A    between atoms: C_9  and  C_10 
REMARK    4  A    between atoms: C_10  and  S_11 
REMARK    5  A    between atoms: S_11  and  C_12 
REMARK    6  A    between atoms: N_13  and  N_14 
REMARK    7  A    between atoms: C_20  and  C_21 
ROOT
HETATM    1  C   UNL     1      23.588  44.860  50.013  1.00  0.00     0.206 A 
HETATM    2  N   UNL     1      24.477  44.419  50.961  1.00  0.00    -0.234 N 
HETATM    3  C   UNL     1      25.088  45.562  51.435  1.00  0.00     0.197 A 
HETATM    4  C   UNL     1      26.077  45.653  52.454  1.00  0.00     0.101 A 
HETATM    5  N   UNL     1      26.344  46.828  53.093  1.00  0.00    -0.274 N 
HETATM    6  H   UNL     1      25.902  47.728  52.936  1.00  0.00     0.189 HD
HETATM    7  N   UNL     1      27.295  46.732  54.037  1.00  0.00    -0.174 NA
HETATM    8  C   UNL     1      27.705  45.454  53.974  1.00  0.00     0.089 A 
HETATM    9  C   UNL     1      26.947  44.739  53.003  1.00  0.00     0.069 A 
HETATM   10  N   UNL     1      24.588  46.612  50.806  1.00  0.00    -0.125 NA
HETATM   11  N   UNL     1      23.666  46.165  49.888  1.00  0.00    -0.121 NA
ENDROOT
BRANCH   1  12
HETATM   12  S   UNL     1      22.491  43.809  49.183  1.00  0.00    -0.080 SA
BRANCH  12  13
HETATM   13  C   UNL     1      23.479  43.359  47.725  1.00  0.00     0.185 C 
BRANCH  13  14
HETATM   14  C   UNL     1      24.286  42.093  47.992  1.00  0.00     0.231 C 
HETATM   15  N   UNL     1      25.114  41.749  46.937  1.00  0.00    -0.327 N 
HETATM   16  H   UNL     1      24.989  42.280  46.077  1.00  0.00     0.169 HD
HETATM   17  O   UNL     1      24.155  41.473  49.045  1.00  0.00    -0.272 OA
BRANCH  15  18
HETATM   18  C   UNL     1      25.958  40.628  46.827  1.00  0.00     0.034 A 
HETATM   19  C   UNL     1      27.182  40.498  47.479  1.00  0.00     0.032 A 
HETATM   20  C   UNL     1      27.942  39.325  47.346  1.00  0.00     0.032 A 
HETATM   21  C   UNL     1      27.491  38.268  46.559  1.00  0.00     0.034 A 
HETATM   22  C   UNL     1      26.287  38.423  45.865  1.00  0.00     0.032 A 
HETATM   23  C   UNL     1      25.521  39.584  46.008  1.00  0.00     0.032 A 
BRANCH  21  24
HETATM   24  N   UNL     1      28.175  37.056  46.367  1.00  0.00    -0.328 N 
HETATM   25  C   UNL     1      28.965  36.582  45.362  1.00  0.00     0.218 C 
HETATM   26  C   UNL     1      29.430  37.470  44.245  1.00  0.00     0.117 C 
HETATM   27  O   UNL     1      29.335  35.405  45.417  1.00  0.00    -0.274 OA
HETATM   28  H   UNL     1      28.106  36.377  47.116  1.00  0.00     0.169 HD
ENDBRANCH  21  24
ENDBRANCH  15  18
ENDBRANCH  13  14
ENDBRANCH  12  13
ENDBRANCH   1  12
BRANCH   2  29
HETATM   29  N   UNL     1      24.661  43.065  51.424  1.00  0.00    -0.239 NA
HETATM   30  H   UNL     1      24.059  42.429  50.897  1.00  0.00     0.143 HD
HETATM   31  H   UNL     1      24.350  42.981  52.392  1.00  0.00     0.143 HD
ENDBRANCH   2  29
BRANCH   8  32
HETATM   32  C   UNL     1      28.795  44.955  54.819  1.00  0.00    -0.006 A 
HETATM   33  C   UNL     1      29.241  45.704  55.919  1.00  0.00     0.015 A 
HETATM   34  C   UNL     1      30.286  45.242  56.724  1.00  0.00     0.024 A 
HETATM   35  C   UNL     1      30.899  44.027  56.430  1.00  0.00     0.034 A 
HETATM   36 CL   UNL     1      32.191  43.458  57.412  1.00  0.00    -0.084 Cl
HETATM   37  C   UNL     1      30.471  43.270  55.342  1.00  0.00     0.024 A 
HETATM   38  C   UNL     1      29.423  43.732  54.540  1.00  0.00     0.015 A 
ENDBRANCH   8  32
TORSDOF 7
ENDMDL
