MODEL 1
REMARK VINA RESULT:      -8.8      0.000      0.000
REMARK  7 active torsions:
REMARK  status: ('A' for Active; 'I' for Inactive)
REMARK       I    between atoms: C_2  and  N_3 
REMARK    1  A    between atoms: N_3  and  C_4 
REMARK    2  A    between atoms: C_7  and  N_8 
REMARK       I    between atoms: N_8  and  C_9 
REMARK    3  A    between atoms: C_9  and  C_10 
REMARK    4  A    between atoms: C_11  and  C_12 
REMARK    5  A    between atoms: C_13  and  O_14 
REMARK    6  A    between atoms: N_20  and  C_21 
REMARK    7  A    between atoms: C_24  and  O_25 
ROOT
HETATM    1  C   UNL     1      24.623  43.019  50.245  1.00  0.00     0.106 C 
HETATM    2  C   UNL     1      25.996  43.539  50.711  1.00  0.00     0.142 C 
HETATM    3  N   UNL     1      26.854  42.374  51.078  1.00  0.00    -0.308 N 
HETATM    4  C   UNL     1      27.000  41.338  50.141  1.00  0.00     0.225 C 
HETATM    5  O   UNL     1      27.951  40.553  50.098  1.00  0.00    -0.273 OA
HETATM    6  C   UNL     1      25.792  41.048  49.257  1.00  0.00     0.104 C 
HETATM    7  C   UNL     1      24.854  42.207  48.974  1.00  0.00     0.026 C 
ENDROOT
BRANCH   1   8
HETATM    8  C   UNL     1      23.526  44.051  50.006  1.00  0.00     0.228 C 
HETATM    9  N   UNL     1      23.800  45.036  49.076  1.00  0.00    -0.327 N 
HETATM   10  H   UNL     1      24.730  45.067  48.679  1.00  0.00     0.169 HD
HETATM   11  O   UNL     1      22.469  43.922  50.624  1.00  0.00    -0.273 OA
BRANCH   9  12
HETATM   12  C   UNL     1      22.994  46.164  48.796  1.00  0.00     0.034 A 
HETATM   13  C   UNL     1      21.801  46.114  48.076  1.00  0.00     0.032 A 
HETATM   14  C   UNL     1      21.019  47.264  47.895  1.00  0.00     0.032 A 
HETATM   15  C   UNL     1      21.415  48.485  48.433  1.00  0.00     0.034 A 
HETATM   16  C   UNL     1      22.629  48.545  49.127  1.00  0.00     0.032 A 
HETATM   17  C   UNL     1      23.413  47.397  49.303  1.00  0.00     0.032 A 
BRANCH  15  18
HETATM   18  N   UNL     1      20.660  49.672  48.338  1.00  0.00    -0.328 N 
HETATM   19  C   UNL     1      19.836  50.224  49.305  1.00  0.00     0.218 C 
HETATM   20  C   UNL     1      19.241  51.543  48.878  1.00  0.00     0.117 C 
HETATM   21  O   UNL     1      19.598  49.770  50.417  1.00  0.00    -0.274 OA
HETATM   22  H   UNL     1      20.760  50.190  47.475  1.00  0.00     0.169 HD
ENDBRANCH  15  18
ENDBRANCH   9  12
ENDBRANCH   1   8
BRANCH   2  23
HETATM   23  C   UNL     1      25.956  44.728  51.672  1.00  0.00    -0.001 A 
HETATM   24  C   UNL     1      26.314  46.015  51.218  1.00  0.00     0.076 A 
HETATM   25  C   UNL     1      26.232  47.122  52.070  1.00  0.00     0.037 A 
HETATM   26  C   UNL     1      25.820  46.958  53.391  1.00  0.00     0.003 A 
HETATM   27  C   UNL     1      25.484  45.692  53.861  1.00  0.00     0.001 A 
HETATM   28  C   UNL     1      25.550  44.586  53.012  1.00  0.00     0.012 A 
BRANCH  24  29
HETATM   29  O   UNL     1      26.665  46.148  49.897  1.00  0.00    -0.355 OA
HETATM   30  C   UNL     1      26.971  47.488  49.512  1.00  0.00     0.210 C 
ENDBRANCH  24  29
ENDBRANCH   2  23
BRANCH   3  31
HETATM   31  C   UNL     1      27.828  42.519  52.114  1.00  0.00     0.038 A 
HETATM   32  C   UNL     1      28.957  43.329  51.964  1.00  0.00     0.032 A 
HETATM   33  C   UNL     1      29.889  43.445  53.001  1.00  0.00     0.039 A 
HETATM   34  C   UNL     1      29.719  42.745  54.197  1.00  0.00     0.068 A 
HETATM   35  C   UNL     1      28.614  41.910  54.341  1.00  0.00     0.039 A 
HETATM   36  C   UNL     1      27.685  41.791  53.301  1.00  0.00     0.032 A 
BRANCH  34  37
HETATM   37  O   UNL     1      30.695  42.955  55.132  1.00  0.00    -0.356 OA
HETATM   38  C   UNL     1      30.645  44.187  55.842  1.00  0.00     0.210 C 
ENDBRANCH  34  37
ENDBRANCH   3  31
TORSDOF 7
ENDMDL
MODEL 2
REMARK VINA RESULT:      -7.7     11.438     12.610
REMARK  7 active torsions:
REMARK  status: ('A' for Active; 'I' for Inactive)
REMARK       I    between atoms: C_2  and  N_3 
REMARK    1  A    between atoms: N_3  and  C_4 
REMARK    2  A    between atoms: C_7  and  N_8 
REMARK       I    between atoms: N_8  and  C_9 
REMARK    3  A    between atoms: C_9  and  C_10 
REMARK    4  A    between atoms: C_11  and  C_12 
REMARK    5  A    between atoms: C_13  and  O_14 
REMARK    6  A    between atoms: N_20  and  C_21 
REMARK    7  A    between atoms: C_24  and  O_25 
ROOT
HETATM    1  C   UNL     1      28.353  48.091  39.724  1.00  0.00     0.106 C 
HETATM    2  C   UNL     1      29.527  49.089  39.740  1.00  0.00     0.142 C 
HETATM    3  N   UNL     1      30.634  48.517  40.561  1.00  0.00    -0.308 N 
HETATM    4  C   UNL     1      31.080  47.219  40.262  1.00  0.00     0.225 C 
HETATM    5  O   UNL     1      32.200  46.777  40.532  1.00  0.00    -0.273 OA
HETATM    6  C   UNL     1      30.026  46.240  39.756  1.00  0.00     0.104 C 
HETATM    7  C   UNL     1      28.839  46.830  39.016  1.00  0.00     0.026 C 
ENDROOT
BRANCH   1   8
HETATM    8  C   UNL     1      27.043  48.560  39.100  1.00  0.00     0.228 C 
HETATM    9  N   UNL     1      25.955  48.650  39.946  1.00  0.00    -0.327 N 
HETATM   10  H   UNL     1      26.065  48.321  40.897  1.00  0.00     0.169 HD
HETATM   11  O   UNL     1      27.048  48.856  37.905  1.00  0.00    -0.273 OA
BRANCH   9  12
HETATM   12  C   UNL     1      24.622  48.928  39.564  1.00  0.00     0.034 A 
HETATM   13  C   UNL     1      23.512  48.222  40.026  1.00  0.00     0.032 A 
HETATM   14  C   UNL     1      22.212  48.598  39.656  1.00  0.00     0.032 A 
HETATM   15  C   UNL     1      22.000  49.688  38.817  1.00  0.00     0.034 A 
HETATM   16  C   UNL     1      23.113  50.378  38.324  1.00  0.00     0.032 A 
HETATM   17  C   UNL     1      24.412  49.998  38.690  1.00  0.00     0.032 A 
BRANCH  15  18
HETATM   18  N   UNL     1      20.724  50.158  38.441  1.00  0.00    -0.328 N 
HETATM   19  C   UNL     1      19.945  51.093  39.103  1.00  0.00     0.218 C 
HETATM   20  C   UNL     1      18.664  51.405  38.369  1.00  0.00     0.117 C 
HETATM   21  O   UNL     1      20.214  51.671  40.148  1.00  0.00    -0.274 OA
HETATM   22  H   UNL     1      20.357  49.790  37.574  1.00  0.00     0.169 HD
ENDBRANCH  15  18
ENDBRANCH   9  12
ENDBRANCH   1   8
BRANCH   2  23
HETATM   23  C   UNL     1      29.144  50.550  39.974  1.00  0.00    -0.001 A 
HETATM   24  C   UNL     1      29.348  51.506  38.955  1.00  0.00     0.076 A 
HETATM   25  C   UNL     1      28.954  52.836  39.135  1.00  0.00     0.037 A 
HETATM   26  C   UNL     1      28.379  53.238  40.339  1.00  0.00     0.003 A 
HETATM   27  C   UNL     1      28.191  52.314  41.362  1.00  0.00     0.001 A 
HETATM   28  C   UNL     1      28.569  50.982  41.184  1.00  0.00     0.012 A 
BRANCH  24  29
HETATM   29  O   UNL     1      29.867  51.063  37.765  1.00  0.00    -0.355 OA
HETATM   30  C   UNL     1      31.223  51.454  37.544  1.00  0.00     0.210 C 
ENDBRANCH  24  29
ENDBRANCH   2  23
BRANCH   3  31
HETATM   31  C   UNL     1      31.491  49.397  41.292  1.00  0.00     0.038 A 
HETATM   32  C   UNL     1      31.363  49.582  42.671  1.00  0.00     0.032 A 
HETATM   33  C   UNL     1      32.220  50.455  43.352  1.00  0.00     0.039 A 
HETATM   34  C   UNL     1      33.207  51.167  42.668  1.00  0.00     0.068 A 
HETATM   35  C   UNL     1      33.318  51.012  41.289  1.00  0.00     0.039 A 
HETATM   36  C   UNL     1      32.457  50.144  40.609  1.00  0.00     0.032 A 
BRANCH  34  37
HETATM   37  O   UNL     1      33.983  51.975  43.452  1.00  0.00    -0.356 OA
HETATM   38  C   UNL     1      35.387  51.929  43.224  1.00  0.00     0.210 C 
ENDBRANCH  34  37
ENDBRANCH   3  31
TORSDOF 7
ENDMDL
MODEL 3
REMARK VINA RESULT:      -7.6      4.898      9.542
REMARK  7 active torsions:
REMARK  status: ('A' for Active; 'I' for Inactive)
REMARK       I    between atoms: C_2  and  N_3 
REMARK    1  A    between atoms: N_3  and  C_4 
REMARK    2  A    between atoms: C_7  and  N_8 
REMARK       I    between atoms: N_8  and  C_9 
REMARK    3  A    between atoms: C_9  and  C_10 
REMARK    4  A    between atoms: C_11  and  C_12 
REMARK    5  A    between atoms: C_13  and  O_14 
REMARK    6  A    between atoms: N_20  and  C_21 
REMARK    7  A    between atoms: C_24  and  O_25 
ROOT
HETATM    1  C   UNL     1      16.916  48.542  46.591  1.00  0.00     0.106 C 
HETATM    2  C   UNL     1      18.392  48.575  47.032  1.00  0.00     0.142 C 
HETATM    3  N   UNL     1      19.102  47.411  46.426  1.00  0.00    -0.308 N 
HETATM    4  C   UNL     1      18.995  47.217  45.039  1.00  0.00     0.225 C 
HETATM    5  O   UNL     1      19.810  46.602  44.347  1.00  0.00    -0.273 OA
HETATM    6  C   UNL     1      17.672  47.621  44.398  1.00  0.00     0.104 C 
HETATM    7  C   UNL     1      16.891  48.732  45.077  1.00  0.00     0.026 C 
ENDROOT
BRANCH   1   8
HETATM    8  C   UNL     1      15.964  49.535  47.251  1.00  0.00     0.228 C 
HETATM    9  N   UNL     1      16.294  50.871  47.138  1.00  0.00    -0.327 N 
HETATM   10  H   UNL     1      17.179  51.107  46.708  1.00  0.00     0.169 HD
HETATM   11  O   UNL     1      14.960  49.088  47.805  1.00  0.00    -0.273 OA
BRANCH   9  12
HETATM   12  C   UNL     1      15.639  51.948  47.781  1.00  0.00     0.034 A 
HETATM   13  C   UNL     1      14.899  52.923  47.115  1.00  0.00     0.032 A 
HETATM   14  C   UNL     1      14.219  53.924  47.826  1.00  0.00     0.032 A 
HETATM   15  C   UNL     1      14.268  53.966  49.216  1.00  0.00     0.034 A 
HETATM   16  C   UNL     1      15.038  53.008  49.886  1.00  0.00     0.032 A 
HETATM   17  C   UNL     1      15.722  52.012  49.175  1.00  0.00     0.032 A 
BRANCH  15  18
HETATM   18  N   UNL     1      13.573  54.908  50.002  1.00  0.00    -0.328 N 
HETATM   19  C   UNL     1      12.291  54.791  50.515  1.00  0.00     0.218 C 
HETATM   20  C   UNL     1      11.900  55.970  51.372  1.00  0.00     0.117 C 
HETATM   21  O   UNL     1      11.518  53.855  50.363  1.00  0.00    -0.274 OA
HETATM   22  H   UNL     1      14.085  55.746  50.241  1.00  0.00     0.169 HD
ENDBRANCH  15  18
ENDBRANCH   9  12
ENDBRANCH   1   8
BRANCH   2  23
HETATM   23  C   UNL     1      18.628  48.864  48.514  1.00  0.00    -0.001 A 
HETATM   24  C   UNL     1      19.179  50.101  48.913  1.00  0.00     0.076 A 
HETATM   25  C   UNL     1      19.352  50.402  50.269  1.00  0.00     0.037 A 
HETATM   26  C   UNL     1      19.006  49.467  51.242  1.00  0.00     0.003 A 
HETATM   27  C   UNL     1      18.482  48.234  50.865  1.00  0.00     0.001 A 
HETATM   28  C   UNL     1      18.293  47.934  49.515  1.00  0.00     0.012 A 
BRANCH  24  29
HETATM   29  O   UNL     1      19.459  51.018  47.931  1.00  0.00    -0.355 OA
HETATM   30  C   UNL     1      19.384  52.375  48.368  1.00  0.00     0.210 C 
ENDBRANCH  24  29
ENDBRANCH   2  23
BRANCH   3  31
HETATM   31  C   UNL     1      20.189  46.808  47.133  1.00  0.00     0.038 A 
HETATM   32  C   UNL     1      21.389  47.487  47.367  1.00  0.00     0.032 A 
HETATM   33  C   UNL     1      22.431  46.863  48.061  1.00  0.00     0.039 A 
HETATM   34  C   UNL     1      22.302  45.550  48.519  1.00  0.00     0.068 A 
HETATM   35  C   UNL     1      21.122  44.857  48.259  1.00  0.00     0.039 A 
HETATM   36  C   UNL     1      20.082  45.481  47.560  1.00  0.00     0.032 A 
BRANCH  34  37
HETATM   37  O   UNL     1      23.389  45.064  49.191  1.00  0.00    -0.356 OA
HETATM   38  C   UNL     1      24.392  46.007  49.551  1.00  0.00     0.210 C 
ENDBRANCH  34  37
ENDBRANCH   3  31
TORSDOF 7
ENDMDL
MODEL 4
REMARK VINA RESULT:      -7.6      3.182     10.926
REMARK  7 active torsions:
REMARK  status: ('A' for Active; 'I' for Inactive)
REMARK       I    between atoms: C_2  and  N_3 
REMARK    1  A    between atoms: N_3  and  C_4 
REMARK    2  A    between atoms: C_7  and  N_8 
REMARK       I    between atoms: N_8  and  C_9 
REMARK    3  A    between atoms: C_9  and  C_10 
REMARK    4  A    between atoms: C_11  and  C_12 
REMARK    5  A    between atoms: C_13  and  O_14 
REMARK    6  A    between atoms: N_20  and  C_21 
REMARK    7  A    between atoms: C_24  and  O_25 
ROOT
HETATM    1  C   UNL     1      19.476  46.999  46.433  1.00  0.00     0.106 C 
HETATM    2  C   UNL     1      18.655  47.929  47.348  1.00  0.00     0.142 C 
HETATM    3  N   UNL     1      17.408  48.330  46.633  1.00  0.00    -0.308 N 
HETATM    4  C   UNL     1      16.600  47.318  46.089  1.00  0.00     0.225 C 
HETATM    5  O   UNL     1      15.393  47.425  45.856  1.00  0.00    -0.273 OA
HETATM    6  C   UNL     1      17.323  46.082  45.564  1.00  0.00     0.104 C 
HETATM    7  C   UNL     1      18.650  45.735  46.215  1.00  0.00     0.026 C 
ENDROOT
BRANCH   1   8
HETATM    8  C   UNL     1      20.881  46.625  46.892  1.00  0.00     0.228 C 
HETATM    9  N   UNL     1      20.987  46.053  48.145  1.00  0.00    -0.327 N 
HETATM   10  H   UNL     1      20.151  45.997  48.713  1.00  0.00     0.169 HD
HETATM   11  O   UNL     1      21.813  46.823  46.114  1.00  0.00    -0.273 OA
BRANCH   9  12
HETATM   12  C   UNL     1      22.190  45.755  48.827  1.00  0.00     0.034 A 
HETATM   13  C   UNL     1      23.176  46.696  49.120  1.00  0.00     0.032 A 
HETATM   14  C   UNL     1      24.314  46.341  49.860  1.00  0.00     0.032 A 
HETATM   15  C   UNL     1      24.484  45.039  50.321  1.00  0.00     0.034 A 
HETATM   16  C   UNL     1      23.513  44.084  49.998  1.00  0.00     0.032 A 
HETATM   17  C   UNL     1      22.379  44.438  49.254  1.00  0.00     0.032 A 
BRANCH  15  18
HETATM   18  N   UNL     1      25.574  44.617  51.111  1.00  0.00    -0.328 N 
HETATM   19  C   UNL     1      26.851  44.297  50.680  1.00  0.00     0.218 C 
HETATM   20  C   UNL     1      27.780  43.954  51.818  1.00  0.00     0.117 C 
HETATM   21  O   UNL     1      27.263  44.304  49.527  1.00  0.00    -0.274 OA
HETATM   22  H   UNL     1      25.406  44.576  52.107  1.00  0.00     0.169 HD
ENDBRANCH  15  18
ENDBRANCH   9  12
ENDBRANCH   1   8
BRANCH   2  23
HETATM   23  C   UNL     1      19.454  49.021  48.060  1.00  0.00    -0.001 A 
HETATM   24  C   UNL     1      19.430  49.107  49.469  1.00  0.00     0.076 A 
HETATM   25  C   UNL     1      20.197  50.067  50.138  1.00  0.00     0.037 A 
HETATM   26  C   UNL     1      20.974  50.969  49.415  1.00  0.00     0.003 A 
HETATM   27  C   UNL     1      20.991  50.912  48.025  1.00  0.00     0.001 A 
HETATM   28  C   UNL     1      20.239  49.948  47.351  1.00  0.00     0.012 A 
BRANCH  24  29
HETATM   29  O   UNL     1      18.696  48.168  50.150  1.00  0.00    -0.355 OA
HETATM   30  C   UNL     1      18.505  48.474  51.532  1.00  0.00     0.210 C 
ENDBRANCH  24  29
ENDBRANCH   2  23
BRANCH   3  31
HETATM   31  C   UNL     1      16.838  49.616  46.887  1.00  0.00     0.038 A 
HETATM   32  C   UNL     1      16.163  49.907  48.076  1.00  0.00     0.032 A 
HETATM   33  C   UNL     1      15.616  51.178  48.288  1.00  0.00     0.039 A 
HETATM   34  C   UNL     1      15.720  52.173  47.314  1.00  0.00     0.068 A 
HETATM   35  C   UNL     1      16.361  51.879  46.113  1.00  0.00     0.039 A 
HETATM   36  C   UNL     1      16.903  50.607  45.901  1.00  0.00     0.032 A 
BRANCH  34  37
HETATM   37  O   UNL     1      15.153  53.371  47.651  1.00  0.00    -0.356 OA
HETATM   38  C   UNL     1      14.784  53.541  49.015  1.00  0.00     0.210 C 
ENDBRANCH  34  37
ENDBRANCH   3  31
TORSDOF 7
ENDMDL
MODEL 5
REMARK VINA RESULT:      -7.5     18.248     22.100
REMARK  7 active torsions:
REMARK  status: ('A' for Active; 'I' for Inactive)
REMARK       I    between atoms: C_2  and  N_3 
REMARK    1  A    between atoms: N_3  and  C_4 
REMARK    2  A    between atoms: C_7  and  N_8 
REMARK       I    between atoms: N_8  and  C_9 
REMARK    3  A    between atoms: C_9  and  C_10 
REMARK    4  A    between atoms: C_11  and  C_12 
REMARK    5  A    between atoms: C_13  and  O_14 
REMARK    6  A    between atoms: N_20  and  C_21 
REMARK    7  A    between atoms: C_24  and  O_25 
ROOT
HETATM    1  C   UNL     1      37.831  41.918  64.333  1.00  0.00     0.106 C 
HETATM    2  C   UNL     1      38.162  43.162  65.179  1.00  0.00     0.142 C 
HETATM    3  N   UNL     1      36.962  44.048  65.222  1.00  0.00    -0.308 N 
HETATM    4  C   UNL     1      35.736  43.486  65.612  1.00  0.00     0.225 C 
HETATM    5  O   UNL     1      34.789  44.116  66.091  1.00  0.00    -0.273 OA
HETATM    6  C   UNL     1      35.500  42.032  65.215  1.00  0.00     0.104 C 
HETATM    7  C   UNL     1      36.729  41.155  65.061  1.00  0.00     0.026 C 
ENDROOT
BRANCH   1   8
HETATM    8  C   UNL     1      38.980  40.971  63.999  1.00  0.00     0.228 C 
HETATM    9  N   UNL     1      39.581  40.332  65.066  1.00  0.00    -0.327 N 
HETATM   10  H   UNL     1      39.288  40.591  65.999  1.00  0.00     0.169 HD
HETATM   11  O   UNL     1      39.271  40.815  62.814  1.00  0.00    -0.273 OA
BRANCH   9  12
HETATM   12  C   UNL     1      40.741  39.525  65.008  1.00  0.00     0.034 A 
HETATM   13  C   UNL     1      40.759  38.214  64.534  1.00  0.00     0.032 A 
HETATM   14  C   UNL     1      41.961  37.497  64.442  1.00  0.00     0.032 A 
HETATM   15  C   UNL     1      43.167  38.079  64.821  1.00  0.00     0.034 A 
HETATM   16  C   UNL     1      43.147  39.383  65.330  1.00  0.00     0.032 A 
HETATM   17  C   UNL     1      41.945  40.097  65.426  1.00  0.00     0.032 A 
BRANCH  15  18
HETATM   18  N   UNL     1      44.420  37.442  64.712  1.00  0.00    -0.328 N 
HETATM   19  C   UNL     1      45.596  37.982  64.217  1.00  0.00     0.218 C 
HETATM   20  C   UNL     1      46.761  37.028  64.318  1.00  0.00     0.117 C 
HETATM   21  O   UNL     1      45.758  39.108  63.765  1.00  0.00    -0.274 OA
HETATM   22  H   UNL     1      44.467  36.496  65.064  1.00  0.00     0.169 HD
ENDBRANCH  15  18
ENDBRANCH   9  12
ENDBRANCH   1   8
BRANCH   2  23
HETATM   23  C   UNL     1      39.518  43.808  64.895  1.00  0.00    -0.001 A 
HETATM   24  C   UNL     1      40.572  43.677  65.826  1.00  0.00     0.076 A 
HETATM   25  C   UNL     1      41.834  44.217  65.556  1.00  0.00     0.037 A 
HETATM   26  C   UNL     1      42.056  44.917  64.372  1.00  0.00     0.003 A 
HETATM   27  C   UNL     1      41.022  45.075  63.454  1.00  0.00     0.001 A 
HETATM   28  C   UNL     1      39.765  44.526  63.711  1.00  0.00     0.012 A 
BRANCH  24  29
HETATM   29  O   UNL     1      40.332  42.936  66.956  1.00  0.00    -0.355 OA
HETATM   30  C   UNL     1      40.377  43.694  68.165  1.00  0.00     0.210 C 
ENDBRANCH  24  29
ENDBRANCH   2  23
BRANCH   3  31
HETATM   31  C   UNL     1      37.139  45.464  65.312  1.00  0.00     0.038 A 
HETATM   32  C   UNL     1      37.694  46.072  66.441  1.00  0.00     0.032 A 
HETATM   33  C   UNL     1      37.850  47.462  66.492  1.00  0.00     0.039 A 
HETATM   34  C   UNL     1      37.442  48.268  65.427  1.00  0.00     0.068 A 
HETATM   35  C   UNL     1      36.858  47.671  64.314  1.00  0.00     0.039 A 
HETATM   36  C   UNL     1      36.698  46.282  64.266  1.00  0.00     0.032 A 
BRANCH  34  37
HETATM   37  O   UNL     1      37.662  49.607  65.600  1.00  0.00    -0.356 OA
HETATM   38  C   UNL     1      39.019  50.025  65.695  1.00  0.00     0.210 C 
ENDBRANCH  34  37
ENDBRANCH   3  31
TORSDOF 7
ENDMDL
MODEL 6
REMARK VINA RESULT:      -7.3      6.082     12.546
REMARK  7 active torsions:
REMARK  status: ('A' for Active; 'I' for Inactive)
REMARK       I    between atoms: C_2  and  N_3 
REMARK    1  A    between atoms: N_3  and  C_4 
REMARK    2  A    between atoms: C_7  and  N_8 
REMARK       I    between atoms: N_8  and  C_9 
REMARK    3  A    between atoms: C_9  and  C_10 
REMARK    4  A    between atoms: C_11  and  C_12 
REMARK    5  A    between atoms: C_13  and  O_14 
REMARK    6  A    between atoms: N_20  and  C_21 
REMARK    7  A    between atoms: C_24  and  O_25 
ROOT
HETATM    1  C   UNL     1      17.214  50.501  47.593  1.00  0.00     0.106 C 
HETATM    2  C   UNL     1      16.915  49.712  46.304  1.00  0.00     0.142 C 
HETATM    3  N   UNL     1      15.518  50.009  45.871  1.00  0.00    -0.308 N 
HETATM    4  C   UNL     1      15.136  51.354  45.739  1.00  0.00     0.225 C 
HETATM    5  O   UNL     1      14.217  51.760  45.023  1.00  0.00    -0.273 OA
HETATM    6  C   UNL     1      15.775  52.339  46.711  1.00  0.00     0.104 C 
HETATM    7  C   UNL     1      17.153  51.984  47.241  1.00  0.00     0.026 C 
ENDROOT
BRANCH   1   8
HETATM    8  C   UNL     1      18.524  50.196  48.314  1.00  0.00     0.228 C 
HETATM    9  N   UNL     1      19.679  50.305  47.565  1.00  0.00    -0.327 N 
HETATM   10  H   UNL     1      19.586  50.492  46.575  1.00  0.00     0.169 HD
HETATM   11  O   UNL     1      18.469  49.908  49.509  1.00  0.00    -0.273 OA
BRANCH   9  12
HETATM   12  C   UNL     1      20.980  49.941  47.982  1.00  0.00     0.034 A 
HETATM   13  C   UNL     1      21.486  48.643  47.923  1.00  0.00     0.032 A 
HETATM   14  C   UNL     1      22.812  48.368  48.291  1.00  0.00     0.032 A 
HETATM   15  C   UNL     1      23.655  49.387  48.723  1.00  0.00     0.034 A 
HETATM   16  C   UNL     1      23.140  50.685  48.815  1.00  0.00     0.032 A 
HETATM   17  C   UNL     1      21.814  50.958  48.453  1.00  0.00     0.032 A 
BRANCH  15  18
HETATM   18  N   UNL     1      25.011  49.199  49.062  1.00  0.00    -0.328 N 
HETATM   19  C   UNL     1      26.121  49.628  48.352  1.00  0.00     0.218 C 
HETATM   20  C   UNL     1      27.418  49.309  49.054  1.00  0.00     0.117 C 
HETATM   21  O   UNL     1      26.128  50.235  47.289  1.00  0.00    -0.274 OA
HETATM   22  H   UNL     1      25.186  48.725  49.937  1.00  0.00     0.169 HD
ENDBRANCH  15  18
ENDBRANCH   9  12
ENDBRANCH   1   8
BRANCH   2  23
HETATM   23  C   UNL     1      17.368  48.252  46.307  1.00  0.00    -0.001 A 
HETATM   24  C   UNL     1      18.212  47.772  45.282  1.00  0.00     0.076 A 
HETATM   25  C   UNL     1      18.677  46.453  45.300  1.00  0.00     0.037 A 
HETATM   26  C   UNL     1      18.288  45.588  46.320  1.00  0.00     0.003 A 
HETATM   27  C   UNL     1      17.438  46.039  47.326  1.00  0.00     0.001 A 
HETATM   28  C   UNL     1      16.982  47.358  47.322  1.00  0.00     0.012 A 
BRANCH  24  29
HETATM   29  O   UNL     1      18.617  48.666  44.323  1.00  0.00    -0.355 OA
HETATM   30  C   UNL     1      18.652  48.123  43.003  1.00  0.00     0.210 C 
ENDBRANCH  24  29
ENDBRANCH   2  23
BRANCH   3  31
HETATM   31  C   UNL     1      14.766  49.000  45.192  1.00  0.00     0.038 A 
HETATM   32  C   UNL     1      13.750  48.279  45.825  1.00  0.00     0.032 A 
HETATM   33  C   UNL     1      13.036  47.298  45.127  1.00  0.00     0.039 A 
HETATM   34  C   UNL     1      13.334  47.010  43.794  1.00  0.00     0.068 A 
HETATM   35  C   UNL     1      14.367  47.701  43.168  1.00  0.00     0.039 A 
HETATM   36  C   UNL     1      15.083  48.678  43.868  1.00  0.00     0.032 A 
BRANCH  34  37
HETATM   37  O   UNL     1      12.556  46.039  43.227  1.00  0.00    -0.356 OA
HETATM   38  C   UNL     1      12.123  44.986  44.082  1.00  0.00     0.210 C 
ENDBRANCH  34  37
ENDBRANCH   3  31
TORSDOF 7
ENDMDL
MODEL 7
REMARK VINA RESULT:      -7.1      3.267     10.745
REMARK  7 active torsions:
REMARK  status: ('A' for Active; 'I' for Inactive)
REMARK       I    between atoms: C_2  and  N_3 
REMARK    1  A    between atoms: N_3  and  C_4 
REMARK    2  A    between atoms: C_7  and  N_8 
REMARK       I    between atoms: N_8  and  C_9 
REMARK    3  A    between atoms: C_9  and  C_10 
REMARK    4  A    between atoms: C_11  and  C_12 
REMARK    5  A    between atoms: C_13  and  O_14 
REMARK    6  A    between atoms: N_20  and  C_21 
REMARK    7  A    between atoms: C_24  and  O_25 
ROOT
HETATM    1  C   UNL     1      19.702  46.437  47.189  1.00  0.00     0.106 C 
HETATM    2  C   UNL     1      18.845  47.691  47.449  1.00  0.00     0.142 C 
HETATM    3  N   UNL     1      18.013  47.964  46.241  1.00  0.00    -0.308 N 
HETATM    4  C   UNL     1      17.231  46.919  45.723  1.00  0.00     0.225 C 
HETATM    5  O   UNL     1      16.217  47.067  45.036  1.00  0.00    -0.273 OA
HETATM    6  C   UNL     1      17.807  45.513  45.854  1.00  0.00     0.104 C 
HETATM    7  C   UNL     1      18.745  45.261  47.021  1.00  0.00     0.026 C 
ENDROOT
BRANCH   1   8
HETATM    8  C   UNL     1      20.769  46.090  48.223  1.00  0.00     0.228 C 
HETATM    9  N   UNL     1      22.042  46.568  47.977  1.00  0.00    -0.327 N 
HETATM   10  H   UNL     1      22.211  47.037  47.097  1.00  0.00     0.169 HD
HETATM   11  O   UNL     1      20.424  45.444  49.211  1.00  0.00    -0.273 OA
BRANCH   9  12
HETATM   12  C   UNL     1      23.205  46.258  48.720  1.00  0.00     0.034 A 
HETATM   13  C   UNL     1      23.829  47.140  49.601  1.00  0.00     0.032 A 
HETATM   14  C   UNL     1      24.941  46.739  50.356  1.00  0.00     0.032 A 
HETATM   15  C   UNL     1      25.449  45.448  50.243  1.00  0.00     0.034 A 
HETATM   16  C   UNL     1      24.846  44.571  49.335  1.00  0.00     0.032 A 
HETATM   17  C   UNL     1      23.738  44.974  48.577  1.00  0.00     0.032 A 
BRANCH  15  18
HETATM   18  N   UNL     1      26.530  44.956  51.003  1.00  0.00    -0.328 N 
HETATM   19  C   UNL     1      26.483  44.409  52.275  1.00  0.00     0.218 C 
HETATM   20  C   UNL     1      27.830  43.922  52.749  1.00  0.00     0.117 C 
HETATM   21  O   UNL     1      25.493  44.270  52.982  1.00  0.00    -0.274 OA
HETATM   22  H   UNL     1      27.434  44.979  50.551  1.00  0.00     0.169 HD
ENDBRANCH  15  18
ENDBRANCH   9  12
ENDBRANCH   1   8
BRANCH   2  23
HETATM   23  C   UNL     1      19.580  48.867  48.092  1.00  0.00    -0.001 A 
HETATM   24  C   UNL     1      19.298  49.231  49.427  1.00  0.00     0.076 A 
HETATM   25  C   UNL     1      20.000  50.271  50.046  1.00  0.00     0.037 A 
HETATM   26  C   UNL     1      20.969  50.979  49.339  1.00  0.00     0.003 A 
HETATM   27  C   UNL     1      21.244  50.647  48.016  1.00  0.00     0.001 A 
HETATM   28  C   UNL     1      20.557  49.602  47.396  1.00  0.00     0.012 A 
BRANCH  24  29
HETATM   29  O   UNL     1      18.376  48.478  50.109  1.00  0.00    -0.355 OA
HETATM   30  C   UNL     1      18.519  48.535  51.528  1.00  0.00     0.210 C 
ENDBRANCH  24  29
ENDBRANCH   2  23
BRANCH   3  31
HETATM   31  C   UNL     1      17.676  49.315  45.913  1.00  0.00     0.038 A 
HETATM   32  C   UNL     1      18.266  49.987  44.839  1.00  0.00     0.032 A 
HETATM   33  C   UNL     1      17.912  51.310  44.551  1.00  0.00     0.039 A 
HETATM   34  C   UNL     1      16.977  51.987  45.335  1.00  0.00     0.068 A 
HETATM   35  C   UNL     1      16.410  51.334  46.426  1.00  0.00     0.039 A 
HETATM   36  C   UNL     1      16.769  50.013  46.717  1.00  0.00     0.032 A 
BRANCH  34  37
HETATM   37  O   UNL     1      16.712  53.269  44.938  1.00  0.00    -0.356 OA
HETATM   38  C   UNL     1      16.824  53.543  43.546  1.00  0.00     0.210 C 
ENDBRANCH  34  37
ENDBRANCH   3  31
TORSDOF 7
ENDMDL
MODEL 8
REMARK VINA RESULT:      -7.0      2.633      9.331
REMARK  7 active torsions:
REMARK  status: ('A' for Active; 'I' for Inactive)
REMARK       I    between atoms: C_2  and  N_3 
REMARK    1  A    between atoms: N_3  and  C_4 
REMARK    2  A    between atoms: C_7  and  N_8 
REMARK       I    between atoms: N_8  and  C_9 
REMARK    3  A    between atoms: C_9  and  C_10 
REMARK    4  A    between atoms: C_11  and  C_12 
REMARK    5  A    between atoms: C_13  and  O_14 
REMARK    6  A    between atoms: N_20  and  C_21 
REMARK    7  A    between atoms: C_24  and  O_25 
ROOT
HETATM    1  C   UNL     1      23.915  47.094  49.787  1.00  0.00     0.106 C 
HETATM    2  C   UNL     1      23.220  46.389  48.606  1.00  0.00     0.142 C 
HETATM    3  N   UNL     1      21.988  47.151  48.248  1.00  0.00    -0.308 N 
HETATM    4  C   UNL     1      22.106  48.531  48.012  1.00  0.00     0.225 C 
HETATM    5  O   UNL     1      21.328  49.200  47.328  1.00  0.00    -0.273 OA
HETATM    6  C   UNL     1      23.155  49.272  48.835  1.00  0.00     0.104 C 
HETATM    7  C   UNL     1      24.358  48.469  49.297  1.00  0.00     0.026 C 
ENDROOT
BRANCH   1   8
HETATM    8  C   UNL     1      25.092  46.375  50.438  1.00  0.00     0.228 C 
HETATM    9  N   UNL     1      24.948  46.041  51.771  1.00  0.00    -0.327 N 
HETATM   10  H   UNL     1      24.121  46.366  52.255  1.00  0.00     0.169 HD
HETATM   11  O   UNL     1      26.066  46.112  49.735  1.00  0.00    -0.273 OA
BRANCH   9  12
HETATM   12  C   UNL     1      25.953  45.500  52.608  1.00  0.00     0.034 A 
HETATM   13  C   UNL     1      26.464  44.209  52.480  1.00  0.00     0.032 A 
HETATM   14  C   UNL     1      27.509  43.763  53.303  1.00  0.00     0.032 A 
HETATM   15  C   UNL     1      28.062  44.601  54.267  1.00  0.00     0.034 A 
HETATM   16  C   UNL     1      27.527  45.885  54.420  1.00  0.00     0.032 A 
HETATM   17  C   UNL     1      26.480  46.329  53.601  1.00  0.00     0.032 A 
BRANCH  15  18
HETATM   18  N   UNL     1      29.145  44.243  55.097  1.00  0.00    -0.328 N 
HETATM   19  C   UNL     1      30.231  43.450  54.764  1.00  0.00     0.218 C 
HETATM   20  C   UNL     1      31.234  43.340  55.886  1.00  0.00     0.117 C 
HETATM   21  O   UNL     1      30.440  42.897  53.692  1.00  0.00    -0.274 OA
HETATM   22  H   UNL     1      29.137  44.639  56.027  1.00  0.00     0.169 HD
ENDBRANCH  15  18
ENDBRANCH   9  12
ENDBRANCH   1   8
BRANCH   2  23
HETATM   23  C   UNL     1      23.112  44.868  48.721  1.00  0.00    -0.001 A 
HETATM   24  C   UNL     1      23.286  44.060  47.576  1.00  0.00     0.076 A 
HETATM   25  C   UNL     1      23.243  42.665  47.674  1.00  0.00     0.037 A 
HETATM   26  C   UNL     1      22.998  42.058  48.903  1.00  0.00     0.003 A 
HETATM   27  C   UNL     1      22.802  42.840  50.038  1.00  0.00     0.001 A 
HETATM   28  C   UNL     1      22.858  44.232  49.950  1.00  0.00     0.012 A 
BRANCH  24  29
HETATM   29  O   UNL     1      23.578  44.691  46.392  1.00  0.00    -0.355 OA
HETATM   30  C   UNL     1      23.233  43.932  45.233  1.00  0.00     0.210 C 
ENDBRANCH  24  29
ENDBRANCH   2  23
BRANCH   3  31
HETATM   31  C   UNL     1      20.856  46.449  47.727  1.00  0.00     0.038 A 
HETATM   32  C   UNL     1      20.645  46.297  46.354  1.00  0.00     0.032 A 
HETATM   33  C   UNL     1      19.524  45.605  45.882  1.00  0.00     0.039 A 
HETATM   34  C   UNL     1      18.589  45.067  46.769  1.00  0.00     0.068 A 
HETATM   35  C   UNL     1      18.776  45.245  48.137  1.00  0.00     0.039 A 
HETATM   36  C   UNL     1      19.895  45.942  48.608  1.00  0.00     0.032 A 
BRANCH  34  37
HETATM   37  O   UNL     1      17.548  44.406  46.178  1.00  0.00    -0.356 OA
HETATM   38  C   UNL     1      17.798  43.834  44.900  1.00  0.00     0.210 C 
ENDBRANCH  34  37
ENDBRANCH   3  31
TORSDOF 7
ENDMDL
MODEL 9
REMARK VINA RESULT:      -6.9      3.123     10.299
REMARK  7 active torsions:
REMARK  status: ('A' for Active; 'I' for Inactive)
REMARK       I    between atoms: C_2  and  N_3 
REMARK    1  A    between atoms: N_3  and  C_4 
REMARK    2  A    between atoms: C_7  and  N_8 
REMARK       I    between atoms: N_8  and  C_9 
REMARK    3  A    between atoms: C_9  and  C_10 
REMARK    4  A    between atoms: C_11  and  C_12 
REMARK    5  A    between atoms: C_13  and  O_14 
REMARK    6  A    between atoms: N_20  and  C_21 
REMARK    7  A    between atoms: C_24  and  O_25 
ROOT
HETATM    1  C   UNL     1      20.874  46.667  46.964  1.00  0.00     0.106 C 
HETATM    2  C   UNL     1      19.497  47.318  47.193  1.00  0.00     0.142 C 
HETATM    3  N   UNL     1      19.031  47.924  45.911  1.00  0.00    -0.308 N 
HETATM    4  C   UNL     1      19.022  47.119  44.761  1.00  0.00     0.225 C 
HETATM    5  O   UNL     1      18.310  47.308  43.771  1.00  0.00    -0.273 OA
HETATM    6  C   UNL     1      20.121  46.067  44.661  1.00  0.00     0.104 C 
HETATM    7  C   UNL     1      20.677  45.528  45.967  1.00  0.00     0.026 C 
ENDROOT
BRANCH   1   8
HETATM    8  C   UNL     1      21.621  46.154  48.191  1.00  0.00     0.228 C 
HETATM    9  N   UNL     1      22.794  46.807  48.515  1.00  0.00    -0.327 N 
HETATM   10  H   UNL     1      23.132  47.518  47.879  1.00  0.00     0.169 HD
HETATM   11  O   UNL     1      21.118  45.227  48.824  1.00  0.00    -0.273 OA
BRANCH   9  12
HETATM   12  C   UNL     1      23.713  46.421  49.519  1.00  0.00     0.034 A 
HETATM   13  C   UNL     1      24.083  45.101  49.775  1.00  0.00     0.032 A 
HETATM   14  C   UNL     1      25.053  44.799  50.742  1.00  0.00     0.032 A 
HETATM   15  C   UNL     1      25.671  45.812  51.469  1.00  0.00     0.034 A 
HETATM   16  C   UNL     1      25.278  47.135  51.238  1.00  0.00     0.032 A 
HETATM   17  C   UNL     1      24.305  47.436  50.275  1.00  0.00     0.032 A 
BRANCH  15  18
HETATM   18  N   UNL     1      26.689  45.592  52.421  1.00  0.00    -0.328 N 
HETATM   19  C   UNL     1      26.564  45.602  53.801  1.00  0.00     0.218 C 
HETATM   20  C   UNL     1      27.855  45.256  54.502  1.00  0.00     0.117 C 
HETATM   21  O   UNL     1      25.549  45.821  54.449  1.00  0.00    -0.274 OA
HETATM   22  H   UNL     1      27.602  45.373  52.047  1.00  0.00     0.169 HD
ENDBRANCH  15  18
ENDBRANCH   9  12
ENDBRANCH   1   8
BRANCH   2  23
HETATM   23  C   UNL     1      19.369  48.153  48.467  1.00  0.00    -0.001 A 
HETATM   24  C   UNL     1      20.236  49.247  48.684  1.00  0.00     0.076 A 
HETATM   25  C   UNL     1      20.098  50.053  49.819  1.00  0.00     0.037 A 
HETATM   26  C   UNL     1      19.116  49.766  50.765  1.00  0.00     0.003 A 
HETATM   27  C   UNL     1      18.268  48.678  50.577  1.00  0.00     0.001 A 
HETATM   28  C   UNL     1      18.391  47.879  49.440  1.00  0.00     0.012 A 
BRANCH  24  29
HETATM   29  O   UNL     1      21.156  49.531  47.706  1.00  0.00    -0.355 OA
HETATM   30  C   UNL     1      22.229  50.364  48.145  1.00  0.00     0.210 C 
ENDBRANCH  24  29
ENDBRANCH   2  23
BRANCH   3  31
HETATM   31  C   UNL     1      18.215  49.098  45.947  1.00  0.00     0.038 A 
HETATM   32  C   UNL     1      18.706  50.355  45.581  1.00  0.00     0.032 A 
HETATM   33  C   UNL     1      17.877  51.481  45.631  1.00  0.00     0.039 A 
HETATM   34  C   UNL     1      16.553  51.376  46.060  1.00  0.00     0.068 A 
HETATM   35  C   UNL     1      16.068  50.133  46.458  1.00  0.00     0.039 A 
HETATM   36  C   UNL     1      16.899  49.008  46.413  1.00  0.00     0.032 A 
BRANCH  34  37
HETATM   37  O   UNL     1      15.849  52.549  46.051  1.00  0.00    -0.356 OA
HETATM   38  C   UNL     1      15.135  52.875  47.238  1.00  0.00     0.210 C 
ENDBRANCH  34  37
ENDBRANCH   3  31
TORSDOF 7
ENDMDL
MODEL 10
REMARK VINA RESULT:      -6.9     14.805     17.419
REMARK  7 active torsions:
REMARK  status: ('A' for Active; 'I' for Inactive)
REMARK       I    between atoms: C_2  and  N_3 
REMARK    1  A    between atoms: N_3  and  C_4 
REMARK    2  A    between atoms: C_7  and  N_8 
REMARK       I    between atoms: N_8  and  C_9 
REMARK    3  A    between atoms: C_9  and  C_10 
REMARK    4  A    between atoms: C_11  and  C_12 
REMARK    5  A    between atoms: C_13  and  O_14 
REMARK    6  A    between atoms: N_20  and  C_21 
REMARK    7  A    between atoms: C_24  and  O_25 
ROOT
HETATM    1  C   UNL     1      38.068  53.763  44.628  1.00  0.00     0.106 C 
HETATM    2  C   UNL     1      39.274  52.842  44.897  1.00  0.00     0.142 C 
HETATM    3  N   UNL     1      40.247  53.566  45.768  1.00  0.00    -0.308 N 
HETATM    4  C   UNL     1      39.773  54.136  46.960  1.00  0.00     0.225 C 
HETATM    5  O   UNL     1      40.466  54.382  47.951  1.00  0.00    -0.273 OA
HETATM    6  C   UNL     1      38.346  54.674  46.934  1.00  0.00     0.104 C 
HETATM    7  C   UNL     1      37.381  54.012  45.967  1.00  0.00     0.026 C 
ENDROOT
BRANCH   1   8
HETATM    8  C   UNL     1      37.043  53.292  43.601  1.00  0.00     0.228 C 
HETATM    9  N   UNL     1      36.323  52.159  43.926  1.00  0.00    -0.327 N 
HETATM   10  H   UNL     1      36.575  51.663  44.771  1.00  0.00     0.169 HD
HETATM   11  O   UNL     1      36.902  53.963  42.579  1.00  0.00    -0.273 OA
BRANCH   9  12
HETATM   12  C   UNL     1      35.426  51.469  43.076  1.00  0.00     0.034 A 
HETATM   13  C   UNL     1      35.823  50.647  42.022  1.00  0.00     0.032 A 
HETATM   14  C   UNL     1      34.878  49.940  41.264  1.00  0.00     0.032 A 
HETATM   15  C   UNL     1      33.519  50.043  41.547  1.00  0.00     0.034 A 
HETATM   16  C   UNL     1      33.116  50.893  42.583  1.00  0.00     0.032 A 
HETATM   17  C   UNL     1      34.060  51.604  43.336  1.00  0.00     0.032 A 
BRANCH  15  18
HETATM   18  N   UNL     1      32.514  49.326  40.864  1.00  0.00    -0.328 N 
HETATM   19  C   UNL     1      32.355  47.951  40.807  1.00  0.00     0.218 C 
HETATM   20  C   UNL     1      31.122  47.541  40.039  1.00  0.00     0.117 C 
HETATM   21  O   UNL     1      33.070  47.103  41.323  1.00  0.00    -0.274 OA
HETATM   22  H   UNL     1      31.817  49.886  40.392  1.00  0.00     0.169 HD
ENDBRANCH  15  18
ENDBRANCH   9  12
ENDBRANCH   1   8
BRANCH   2  23
HETATM   23  C   UNL     1      39.821  52.102  43.677  1.00  0.00    -0.001 A 
HETATM   24  C   UNL     1      39.747  50.693  43.614  1.00  0.00     0.076 A 
HETATM   25  C   UNL     1      40.195  50.004  42.482  1.00  0.00     0.037 A 
HETATM   26  C   UNL     1      40.745  50.704  41.411  1.00  0.00     0.003 A 
HETATM   27  C   UNL     1      40.846  52.091  41.465  1.00  0.00     0.001 A 
HETATM   28  C   UNL     1      40.388  52.785  42.586  1.00  0.00     0.012 A 
BRANCH  24  29
HETATM   29  O   UNL     1      39.150  50.042  44.665  1.00  0.00    -0.355 OA
HETATM   30  C   UNL     1      39.103  48.622  44.514  1.00  0.00     0.210 C 
ENDBRANCH  24  29
ENDBRANCH   2  23
BRANCH   3  31
HETATM   31  C   UNL     1      41.645  53.297  45.631  1.00  0.00     0.038 A 
HETATM   32  C   UNL     1      42.220  52.109  46.091  1.00  0.00     0.032 A 
HETATM   33  C   UNL     1      43.593  51.882  45.940  1.00  0.00     0.039 A 
HETATM   34  C   UNL     1      44.415  52.840  45.345  1.00  0.00     0.068 A 
HETATM   35  C   UNL     1      43.854  54.040  44.916  1.00  0.00     0.039 A 
HETATM   36  C   UNL     1      42.482  54.267  45.071  1.00  0.00     0.032 A 
BRANCH  34  37
HETATM   37  O   UNL     1      45.734  52.489  45.249  1.00  0.00    -0.356 OA
HETATM   38  C   UNL     1      46.594  52.952  46.284  1.00  0.00     0.210 C 
ENDBRANCH  34  37
ENDBRANCH   3  31
TORSDOF 7
ENDMDL
