MODEL 1
REMARK VINA RESULT:     -10.5      0.000      0.000
REMARK  6 active torsions:
REMARK  status: ('A' for Active; 'I' for Inactive)
REMARK    1  A    between atoms: C_6  and  O_7 
REMARK    2  A    between atoms: C_12  and  C_13 
REMARK    3  A    between atoms: C_13  and  C_14 
REMARK       I    between atoms: C_14  and  N_15 
REMARK    4  A    between atoms: N_15  and  C_16 
REMARK    5  A    between atoms: C_16  and  C_17 
REMARK    6  A    between atoms: C_17  and  C_18 
ROOT
HETATM    1  C   UNL     1      25.596  47.027  52.026  1.00  0.00     0.222 C 
HETATM    2  N   UNL     1      24.622  46.273  51.402  1.00  0.00    -0.360 N 
HETATM    3  O   UNL     1      26.374  47.750  51.407  1.00  0.00    -0.273 OA
HETATM    4  H   UNL     1      24.138  45.582  51.962  1.00  0.00     0.162 HD
ENDROOT
BRANCH   1   5
HETATM    5  C   UNL     1      25.714  46.835  53.536  1.00  0.00     0.148 C 
BRANCH   5   6
HETATM    6  C   UNL     1      26.948  46.198  54.144  1.00  0.00     0.033 C 
HETATM    7  C   UNL     1      27.656  47.150  55.054  1.00  0.00     0.295 C 
HETATM    8  O   UNL     1      28.591  46.624  55.923  1.00  0.00    -0.274 OA
HETATM    9  O   UNL     1      27.370  48.342  55.094  1.00  0.00    -0.259 OA
HETATM   10  C   UNL     1      29.152  45.363  55.683  1.00  0.00     0.093 A 
HETATM   11  C   UNL     1      30.253  45.030  56.480  1.00  0.00     0.045 A 
HETATM   12  C   UNL     1      28.661  44.529  54.682  1.00  0.00     0.038 A 
HETATM   13  C   UNL     1      30.929  43.831  56.263  1.00  0.00    -0.057 A 
HETATM   14  C   UNL     1      32.101  43.435  57.110  1.00  0.00     0.048 C 
HETATM   15  C   UNL     1      30.512  43.010  55.211  1.00  0.00     0.044 A 
HETATM   16  C   UNL     1      29.400  43.360  54.430  1.00  0.00     0.079 A 
HETATM   17  C   UNL     1      27.399  44.931  54.009  1.00  0.00    -0.034 C 
HETATM   18  C   UNL     1      26.640  43.852  53.289  1.00  0.00     0.050 C 
BRANCH  16  19
HETATM   19  O   UNL     1      29.071  42.543  53.382  1.00  0.00    -0.360 OA
HETATM   20  H   UNL     1      29.234  41.617  53.623  1.00  0.00     0.217 HD
ENDBRANCH  16  19
ENDBRANCH   5   6
ENDBRANCH   1   5
BRANCH   2  21
HETATM   21  C   UNL     1      24.691  46.051  49.962  1.00  0.00     0.127 C 
BRANCH  21  22
HETATM   22  C   UNL     1      23.466  46.545  49.201  1.00  0.00     0.060 C 
BRANCH  22  23
HETATM   23  C   UNL     1      23.261  48.027  49.022  1.00  0.00    -0.029 A 
HETATM   24  C   UNL     1      22.075  48.843  48.998  1.00  0.00    -0.000 A 
HETATM   25  C   UNL     1      22.484  50.168  48.802  1.00  0.00     0.043 A 
HETATM   26  C   UNL     1      20.688  48.609  49.121  1.00  0.00     0.038 A 
HETATM   27  C   UNL     1      21.594  51.247  48.712  1.00  0.00     0.032 A 
HETATM   28  N   UNL     1      23.854  50.167  48.728  1.00  0.00    -0.365 N 
HETATM   29  C   UNL     1      20.231  50.977  48.821  1.00  0.00     0.026 A 
HETATM   30  C   UNL     1      19.786  49.676  49.023  1.00  0.00     0.035 A 
HETATM   31 CL   UNL     1      18.094  49.373  49.145  1.00  0.00    -0.084 Cl
HETATM   32  H   UNL     1      24.423  50.992  48.601  1.00  0.00     0.165 HD
HETATM   33  C   UNL     1      24.329  48.894  48.854  1.00  0.00     0.096 A 
ENDBRANCH  22  23
ENDBRANCH  21  22
ENDBRANCH   2  21
TORSDOF 6
ENDMDL
MODEL 2
REMARK VINA RESULT:     -10.1      1.128      2.444
REMARK  6 active torsions:
REMARK  status: ('A' for Active; 'I' for Inactive)
REMARK    1  A    between atoms: C_6  and  O_7 
REMARK    2  A    between atoms: C_12  and  C_13 
REMARK    3  A    between atoms: C_13  and  C_14 
REMARK       I    between atoms: C_14  and  N_15 
REMARK    4  A    between atoms: N_15  and  C_16 
REMARK    5  A    between atoms: C_16  and  C_17 
REMARK    6  A    between atoms: C_17  and  C_18 
ROOT
HETATM    1  C   UNL     1      26.140  45.856  50.954  1.00  0.00     0.222 C 
HETATM    2  N   UNL     1      25.556  47.106  50.998  1.00  0.00    -0.360 N 
HETATM    3  O   UNL     1      26.743  45.439  49.966  1.00  0.00    -0.273 OA
HETATM    4  H   UNL     1      24.940  47.305  51.777  1.00  0.00     0.162 HD
ENDROOT
BRANCH   1   5
HETATM    5  C   UNL     1      25.908  44.974  52.179  1.00  0.00     0.148 C 
BRANCH   5   6
HETATM    6  C   UNL     1      27.036  44.677  53.146  1.00  0.00     0.033 C 
HETATM    7  C   UNL     1      27.642  43.337  52.877  1.00  0.00     0.295 C 
HETATM    8  O   UNL     1      28.871  43.067  53.447  1.00  0.00    -0.274 OA
HETATM    9  O   UNL     1      27.117  42.529  52.118  1.00  0.00    -0.259 OA
HETATM   10  C   UNL     1      29.324  43.816  54.542  1.00  0.00     0.093 A 
HETATM   11  C   UNL     1      30.458  43.312  55.189  1.00  0.00     0.045 A 
HETATM   12  C   UNL     1      28.651  44.957  54.969  1.00  0.00     0.038 A 
HETATM   13  C   UNL     1      30.938  43.940  56.336  1.00  0.00    -0.057 A 
HETATM   14  C   UNL     1      32.161  43.438  57.044  1.00  0.00     0.048 C 
HETATM   15  C   UNL     1      30.237  45.040  56.838  1.00  0.00     0.044 A 
HETATM   16  C   UNL     1      29.108  45.533  56.168  1.00  0.00     0.079 A 
HETATM   17  C   UNL     1      27.553  45.471  54.111  1.00  0.00    -0.034 C 
HETATM   18  C   UNL     1      27.150  46.905  54.310  1.00  0.00     0.050 C 
BRANCH  16  19
HETATM   19  O   UNL     1      28.431  46.579  56.736  1.00  0.00    -0.360 OA
HETATM   20  H   UNL     1      27.981  47.093  56.047  1.00  0.00     0.217 HD
ENDBRANCH  16  19
ENDBRANCH   5   6
ENDBRANCH   1   5
BRANCH   2  21
HETATM   21  C   UNL     1      25.349  47.851  49.762  1.00  0.00     0.127 C 
BRANCH  21  22
HETATM   22  C   UNL     1      23.910  47.825  49.257  1.00  0.00     0.060 C 
BRANCH  22  23
HETATM   23  C   UNL     1      23.207  49.127  48.976  1.00  0.00    -0.029 A 
HETATM   24  C   UNL     1      21.815  49.497  48.991  1.00  0.00    -0.000 A 
HETATM   25  C   UNL     1      21.740  50.853  48.651  1.00  0.00     0.043 A 
HETATM   26  C   UNL     1      20.598  48.832  49.256  1.00  0.00     0.038 A 
HETATM   27  C   UNL     1      20.535  51.561  48.552  1.00  0.00     0.032 A 
HETATM   28  N   UNL     1      23.025  51.298  48.456  1.00  0.00    -0.365 N 
HETATM   29  C   UNL     1      19.351  50.869  48.804  1.00  0.00     0.026 A 
HETATM   30  C   UNL     1      19.385  49.524  49.151  1.00  0.00     0.035 A 
HETATM   31 CL   UNL     1      17.905  48.693  49.448  1.00  0.00    -0.084 Cl
HETATM   32  H   UNL     1      23.272  52.246  48.211  1.00  0.00     0.165 HD
HETATM   33  C   UNL     1      23.908  50.275  48.643  1.00  0.00     0.096 A 
ENDBRANCH  22  23
ENDBRANCH  21  22
ENDBRANCH   2  21
TORSDOF 6
ENDMDL
MODEL 3
REMARK VINA RESULT:     -10.0      1.586      3.092
REMARK  6 active torsions:
REMARK  status: ('A' for Active; 'I' for Inactive)
REMARK    1  A    between atoms: C_6  and  O_7 
REMARK    2  A    between atoms: C_12  and  C_13 
REMARK    3  A    between atoms: C_13  and  C_14 
REMARK       I    between atoms: C_14  and  N_15 
REMARK    4  A    between atoms: N_15  and  C_16 
REMARK    5  A    between atoms: C_16  and  C_17 
REMARK    6  A    between atoms: C_17  and  C_18 
ROOT
HETATM    1  C   UNL     1      25.787  44.462  50.898  1.00  0.00     0.222 C 
HETATM    2  N   UNL     1      27.001  44.870  50.380  1.00  0.00    -0.360 N 
HETATM    3  O   UNL     1      24.712  44.899  50.492  1.00  0.00    -0.273 OA
HETATM    4  H   UNL     1      27.837  44.593  50.878  1.00  0.00     0.162 HD
ENDROOT
BRANCH   1   5
HETATM    5  C   UNL     1      25.864  43.501  52.082  1.00  0.00     0.148 C 
BRANCH   5   6
HETATM    6  C   UNL     1      27.001  43.588  53.081  1.00  0.00     0.033 C 
HETATM    7  C   UNL     1      27.784  42.315  53.123  1.00  0.00     0.295 C 
HETATM    8  O   UNL     1      29.025  42.351  53.727  1.00  0.00    -0.274 OA
HETATM    9  O   UNL     1      27.386  41.292  52.577  1.00  0.00    -0.259 OA
HETATM   10  C   UNL     1      29.352  43.385  54.614  1.00  0.00     0.093 A 
HETATM   11  C   UNL     1      30.529  43.200  55.349  1.00  0.00     0.045 A 
HETATM   12  C   UNL     1      28.526  44.494  54.773  1.00  0.00     0.038 A 
HETATM   13  C   UNL     1      30.898  44.134  56.314  1.00  0.00    -0.057 A 
HETATM   14  C   UNL     1      32.161  43.976  57.107  1.00  0.00     0.048 C 
HETATM   15  C   UNL     1      30.047  45.217  56.556  1.00  0.00     0.044 A 
HETATM   16  C   UNL     1      28.877  45.387  55.801  1.00  0.00     0.079 A 
HETATM   17  C   UNL     1      27.388  44.645  53.830  1.00  0.00    -0.034 C 
HETATM   18  C   UNL     1      26.795  46.020  53.696  1.00  0.00     0.050 C 
BRANCH  16  19
HETATM   19  O   UNL     1      28.056  46.436  56.119  1.00  0.00    -0.360 OA
HETATM   20  H   UNL     1      27.877  46.436  57.072  1.00  0.00     0.217 HD
ENDBRANCH  16  19
ENDBRANCH   5   6
ENDBRANCH   1   5
BRANCH   2  21
HETATM   21  C   UNL     1      27.068  46.073  49.558  1.00  0.00     0.127 C 
BRANCH  21  22
HETATM   22  C   UNL     1      26.484  47.312  50.228  1.00  0.00     0.060 C 
BRANCH  22  23
HETATM   23  C   UNL     1      25.952  48.429  49.368  1.00  0.00    -0.029 A 
HETATM   24  C   UNL     1      24.612  48.855  49.057  1.00  0.00    -0.000 A 
HETATM   25  C   UNL     1      24.713  49.960  48.203  1.00  0.00     0.043 A 
HETATM   26  C   UNL     1      23.312  48.427  49.405  1.00  0.00     0.038 A 
HETATM   27  C   UNL     1      23.604  50.638  47.679  1.00  0.00     0.032 A 
HETATM   28  N   UNL     1      26.050  50.211  48.015  1.00  0.00    -0.365 N 
HETATM   29  C   UNL     1      22.335  50.178  48.030  1.00  0.00     0.026 A 
HETATM   30  C   UNL     1      22.194  49.088  48.881  1.00  0.00     0.035 A 
HETATM   31 CL   UNL     1      20.613  48.537  49.289  1.00  0.00    -0.084 Cl
HETATM   32  H   UNL     1      26.418  50.963  47.450  1.00  0.00     0.165 HD
HETATM   33  C   UNL     1      26.798  49.301  48.702  1.00  0.00     0.096 A 
ENDBRANCH  22  23
ENDBRANCH  21  22
ENDBRANCH   2  21
TORSDOF 6
ENDMDL
MODEL 4
REMARK VINA RESULT:      -9.9      1.596      2.152
REMARK  6 active torsions:
REMARK  status: ('A' for Active; 'I' for Inactive)
REMARK    1  A    between atoms: C_6  and  O_7 
REMARK    2  A    between atoms: C_12  and  C_13 
REMARK    3  A    between atoms: C_13  and  C_14 
REMARK       I    between atoms: C_14  and  N_15 
REMARK    4  A    between atoms: N_15  and  C_16 
REMARK    5  A    between atoms: C_16  and  C_17 
REMARK    6  A    between atoms: C_17  and  C_18 
ROOT
HETATM    1  C   UNL     1      25.477  46.293  50.406  1.00  0.00     0.222 C 
HETATM    2  N   UNL     1      25.236  47.652  50.385  1.00  0.00    -0.360 N 
HETATM    3  O   UNL     1      25.733  45.648  49.391  1.00  0.00    -0.273 OA
HETATM    4  H   UNL     1      24.869  48.073  51.230  1.00  0.00     0.162 HD
ENDROOT
BRANCH   1   5
HETATM    5  C   UNL     1      25.309  45.613  51.763  1.00  0.00     0.148 C 
BRANCH   5   6
HETATM    6  C   UNL     1      26.515  45.273  52.616  1.00  0.00     0.033 C 
HETATM    7  C   UNL     1      26.764  46.327  53.647  1.00  0.00     0.295 C 
HETATM    8  O   UNL     1      27.607  46.009  54.693  1.00  0.00    -0.274 OA
HETATM    9  O   UNL     1      26.186  47.409  53.620  1.00  0.00    -0.259 OA
HETATM   10  C   UNL     1      28.503  44.938  54.581  1.00  0.00     0.093 A 
HETATM   11  C   UNL     1      29.468  44.851  55.590  1.00  0.00     0.045 A 
HETATM   12  C   UNL     1      28.448  44.055  53.505  1.00  0.00     0.038 A 
HETATM   13  C   UNL     1      30.454  43.868  55.524  1.00  0.00    -0.057 A 
HETATM   14  C   UNL     1      31.493  43.734  56.597  1.00  0.00     0.048 C 
HETATM   15  C   UNL     1      30.476  43.018  54.414  1.00  0.00     0.044 A 
HETATM   16  C   UNL     1      29.493  43.118  53.419  1.00  0.00     0.079 A 
HETATM   17  C   UNL     1      27.288  44.165  52.584  1.00  0.00    -0.034 C 
HETATM   18  C   UNL     1      26.985  42.966  51.729  1.00  0.00     0.050 C 
BRANCH  16  19
HETATM   19  O   UNL     1      29.597  42.295  52.329  1.00  0.00    -0.360 OA
HETATM   20  H   UNL     1      30.022  42.770  51.598  1.00  0.00     0.217 HD
ENDBRANCH  16  19
ENDBRANCH   5   6
ENDBRANCH   1   5
BRANCH   2  21
HETATM   21  C   UNL     1      24.953  48.316  49.119  1.00  0.00     0.127 C 
BRANCH  21  22
HETATM   22  C   UNL     1      23.729  49.224  49.156  1.00  0.00     0.060 C 
BRANCH  22  23
HETATM   23  C   UNL     1      22.356  48.610  49.072  1.00  0.00    -0.029 A 
HETATM   24  C   UNL     1      21.036  49.170  49.203  1.00  0.00    -0.000 A 
HETATM   25  C   UNL     1      20.120  48.126  49.026  1.00  0.00     0.043 A 
HETATM   26  C   UNL     1      20.507  50.456  49.454  1.00  0.00     0.038 A 
HETATM   27  C   UNL     1      18.730  48.295  49.097  1.00  0.00     0.032 A 
HETATM   28  N   UNL     1      20.842  46.985  48.780  1.00  0.00    -0.365 N 
HETATM   29  C   UNL     1      18.243  49.574  49.363  1.00  0.00     0.026 A 
HETATM   30  C   UNL     1      19.121  50.637  49.538  1.00  0.00     0.035 A 
HETATM   31 CL   UNL     1      18.489  52.205  49.874  1.00  0.00    -0.084 Cl
HETATM   32  H   UNL     1      20.437  46.077  48.602  1.00  0.00     0.165 HD
HETATM   33  C   UNL     1      22.178  47.261  48.810  1.00  0.00     0.096 A 
ENDBRANCH  22  23
ENDBRANCH  21  22
ENDBRANCH   2  21
TORSDOF 6
ENDMDL
MODEL 5
REMARK VINA RESULT:      -9.8      1.657      2.095
REMARK  6 active torsions:
REMARK  status: ('A' for Active; 'I' for Inactive)
REMARK    1  A    between atoms: C_6  and  O_7 
REMARK    2  A    between atoms: C_12  and  C_13 
REMARK    3  A    between atoms: C_13  and  C_14 
REMARK       I    between atoms: C_14  and  N_15 
REMARK    4  A    between atoms: N_15  and  C_16 
REMARK    5  A    between atoms: C_16  and  C_17 
REMARK    6  A    between atoms: C_17  and  C_18 
ROOT
HETATM    1  C   UNL     1      25.697  47.017  51.820  1.00  0.00     0.222 C 
HETATM    2  N   UNL     1      24.787  46.217  51.159  1.00  0.00    -0.360 N 
HETATM    3  O   UNL     1      26.465  47.775  51.231  1.00  0.00    -0.273 OA
HETATM    4  H   UNL     1      24.313  45.505  51.701  1.00  0.00     0.162 HD
ENDROOT
BRANCH   1   5
HETATM    5  C   UNL     1      25.763  46.832  53.334  1.00  0.00     0.148 C 
BRANCH   5   6
HETATM    6  C   UNL     1      26.979  46.208  53.989  1.00  0.00     0.033 C 
HETATM    7  C   UNL     1      27.581  47.129  55.002  1.00  0.00     0.295 C 
HETATM    8  O   UNL     1      28.477  46.587  55.902  1.00  0.00    -0.274 OA
HETATM    9  O   UNL     1      27.241  48.304  55.093  1.00  0.00    -0.259 OA
HETATM   10  C   UNL     1      29.108  45.366  55.627  1.00  0.00     0.093 A 
HETATM   11  C   UNL     1      30.165  45.028  56.478  1.00  0.00     0.045 A 
HETATM   12  C   UNL     1      28.723  44.578  54.545  1.00  0.00     0.038 A 
HETATM   13  C   UNL     1      30.907  43.874  56.238  1.00  0.00    -0.057 A 
HETATM   14  C   UNL     1      32.035  43.472  57.141  1.00  0.00     0.048 C 
HETATM   15  C   UNL     1      30.599  43.104  55.112  1.00  0.00     0.044 A 
HETATM   16  C   UNL     1      29.530  43.458  54.277  1.00  0.00     0.079 A 
HETATM   17  C   UNL     1      27.494  44.971  53.810  1.00  0.00    -0.034 C 
HETATM   18  C   UNL     1      26.834  43.910  52.974  1.00  0.00     0.050 C 
BRANCH  16  19
HETATM   19  O   UNL     1      29.309  42.696  53.161  1.00  0.00    -0.360 OA
HETATM   20  H   UNL     1      30.149  42.328  52.842  1.00  0.00     0.217 HD
ENDBRANCH  16  19
ENDBRANCH   5   6
ENDBRANCH   1   5
BRANCH   2  21
HETATM   21  C   UNL     1      24.925  45.998  49.724  1.00  0.00     0.127 C 
BRANCH  21  22
HETATM   22  C   UNL     1      23.801  45.168  49.114  1.00  0.00     0.060 C 
BRANCH  22  23
HETATM   23  C   UNL     1      22.538  45.857  48.668  1.00  0.00    -0.029 A 
HETATM   24  C   UNL     1      22.234  47.239  48.399  1.00  0.00    -0.000 A 
HETATM   25  C   UNL     1      20.891  47.303  48.009  1.00  0.00     0.043 A 
HETATM   26  C   UNL     1      22.951  48.456  48.441  1.00  0.00     0.038 A 
HETATM   27  C   UNL     1      20.237  48.497  47.678  1.00  0.00     0.032 A 
HETATM   28  N   UNL     1      20.400  46.021  48.020  1.00  0.00    -0.365 N 
HETATM   29  C   UNL     1      20.970  49.681  47.747  1.00  0.00     0.026 A 
HETATM   30  C   UNL     1      22.308  49.658  48.123  1.00  0.00     0.035 A 
HETATM   31 CL   UNL     1      23.185  51.139  48.208  1.00  0.00    -0.084 Cl
HETATM   32  H   UNL     1      19.455  45.766  47.769  1.00  0.00     0.165 HD
HETATM   33  C   UNL     1      21.373  45.151  48.416  1.00  0.00     0.096 A 
ENDBRANCH  22  23
ENDBRANCH  21  22
ENDBRANCH   2  21
TORSDOF 6
ENDMDL
MODEL 6
REMARK VINA RESULT:      -9.7      3.922      5.984
REMARK  6 active torsions:
REMARK  status: ('A' for Active; 'I' for Inactive)
REMARK    1  A    between atoms: C_6  and  O_7 
REMARK    2  A    between atoms: C_12  and  C_13 
REMARK    3  A    between atoms: C_13  and  C_14 
REMARK       I    between atoms: C_14  and  N_15 
REMARK    4  A    between atoms: N_15  and  C_16 
REMARK    5  A    between atoms: C_16  and  C_17 
REMARK    6  A    between atoms: C_17  and  C_18 
ROOT
HETATM    1  C   UNL     1      25.518  46.950  52.037  1.00  0.00     0.222 C 
HETATM    2  N   UNL     1      24.646  46.038  51.476  1.00  0.00    -0.360 N 
HETATM    3  O   UNL     1      26.177  47.740  51.363  1.00  0.00    -0.273 OA
HETATM    4  H   UNL     1      24.273  45.318  52.082  1.00  0.00     0.162 HD
ENDROOT
BRANCH   1   5
HETATM    5  C   UNL     1      25.691  46.855  53.551  1.00  0.00     0.148 C 
BRANCH   5   6
HETATM    6  C   UNL     1      26.927  46.216  54.153  1.00  0.00     0.033 C 
HETATM    7  C   UNL     1      27.664  47.180  55.027  1.00  0.00     0.295 C 
HETATM    8  O   UNL     1      28.607  46.662  55.892  1.00  0.00    -0.274 OA
HETATM    9  O   UNL     1      27.395  48.376  55.043  1.00  0.00    -0.259 OA
HETATM   10  C   UNL     1      29.147  45.387  55.673  1.00  0.00     0.093 A 
HETATM   11  C   UNL     1      30.256  45.058  56.459  1.00  0.00     0.045 A 
HETATM   12  C   UNL     1      28.627  44.536  54.701  1.00  0.00     0.038 A 
HETATM   13  C   UNL     1      30.913  43.846  56.259  1.00  0.00    -0.057 A 
HETATM   14  C   UNL     1      32.094  43.454  57.095  1.00  0.00     0.048 C 
HETATM   15  C   UNL     1      30.466  43.005  55.235  1.00  0.00     0.044 A 
HETATM   16  C   UNL     1      29.346  43.351  54.465  1.00  0.00     0.079 A 
HETATM   17  C   UNL     1      27.359  44.940  54.040  1.00  0.00    -0.034 C 
HETATM   18  C   UNL     1      26.573  43.854  53.360  1.00  0.00     0.050 C 
BRANCH  16  19
HETATM   19  O   UNL     1      28.987  42.514  53.443  1.00  0.00    -0.360 OA
HETATM   20  H   UNL     1      28.381  42.974  52.839  1.00  0.00     0.217 HD
ENDBRANCH  16  19
ENDBRANCH   5   6
ENDBRANCH   1   5
BRANCH   2  21
HETATM   21  C   UNL     1      24.717  45.754  50.048  1.00  0.00     0.127 C 
BRANCH  21  22
HETATM   22  C   UNL     1      25.868  44.834  49.657  1.00  0.00     0.060 C 
BRANCH  22  23
HETATM   23  C   UNL     1      25.565  43.422  49.226  1.00  0.00    -0.029 A 
HETATM   24  C   UNL     1      26.189  42.162  49.536  1.00  0.00    -0.000 A 
HETATM   25  C   UNL     1      25.480  41.166  48.852  1.00  0.00     0.043 A 
HETATM   26  C   UNL     1      27.284  41.746  50.326  1.00  0.00     0.038 A 
HETATM   27  C   UNL     1      25.810  39.805  48.907  1.00  0.00     0.032 A 
HETATM   28  N   UNL     1      24.460  41.784  48.172  1.00  0.00    -0.365 N 
HETATM   29  C   UNL     1      26.907  39.432  49.682  1.00  0.00     0.026 A 
HETATM   30  C   UNL     1      27.632  40.391  50.381  1.00  0.00     0.035 A 
HETATM   31 CL   UNL     1      28.988  39.900  51.323  1.00  0.00    -0.084 Cl
HETATM   32  H   UNL     1      23.779  41.304  47.600  1.00  0.00     0.165 HD
HETATM   33  C   UNL     1      24.504  43.130  48.384  1.00  0.00     0.096 A 
ENDBRANCH  22  23
ENDBRANCH  21  22
ENDBRANCH   2  21
TORSDOF 6
ENDMDL
MODEL 7
REMARK VINA RESULT:      -9.7      3.630     10.391
REMARK  6 active torsions:
REMARK  status: ('A' for Active; 'I' for Inactive)
REMARK    1  A    between atoms: C_6  and  O_7 
REMARK    2  A    between atoms: C_12  and  C_13 
REMARK    3  A    between atoms: C_13  and  C_14 
REMARK       I    between atoms: C_14  and  N_15 
REMARK    4  A    between atoms: N_15  and  C_16 
REMARK    5  A    between atoms: C_16  and  C_17 
REMARK    6  A    between atoms: C_17  and  C_18 
ROOT
HETATM    1  C   UNL     1      24.077  46.745  49.829  1.00  0.00     0.222 C 
HETATM    2  N   UNL     1      24.712  47.284  50.931  1.00  0.00    -0.360 N 
HETATM    3  O   UNL     1      23.961  45.533  49.657  1.00  0.00    -0.273 OA
HETATM    4  H   UNL     1      24.912  48.276  50.913  1.00  0.00     0.162 HD
ENDROOT
BRANCH   1   5
HETATM    5  C   UNL     1      23.608  47.750  48.780  1.00  0.00     0.148 C 
BRANCH   5   6
HETATM    6  C   UNL     1      22.413  48.644  49.039  1.00  0.00     0.033 C 
HETATM    7  C   UNL     1      22.824  50.076  49.166  1.00  0.00     0.295 C 
HETATM    8  O   UNL     1      21.833  51.034  49.075  1.00  0.00    -0.274 OA
HETATM    9  O   UNL     1      24.001  50.405  49.268  1.00  0.00    -0.259 OA
HETATM   10  C   UNL     1      20.491  50.687  49.280  1.00  0.00     0.093 A 
HETATM   11  C   UNL     1      19.603  51.761  49.403  1.00  0.00     0.045 A 
HETATM   12  C   UNL     1      20.094  49.358  49.394  1.00  0.00     0.038 A 
HETATM   13  C   UNL     1      18.260  51.522  49.687  1.00  0.00    -0.057 A 
HETATM   14  C   UNL     1      17.278  52.648  49.808  1.00  0.00     0.048 C 
HETATM   15  C   UNL     1      17.845  50.202  49.890  1.00  0.00     0.044 A 
HETATM   16  C   UNL     1      18.752  49.141  49.754  1.00  0.00     0.079 A 
HETATM   17  C   UNL     1      21.104  48.310  49.096  1.00  0.00    -0.034 C 
HETATM   18  C   UNL     1      20.582  46.938  48.771  1.00  0.00     0.050 C 
BRANCH  16  19
HETATM   19  O   UNL     1      18.301  47.875  50.016  1.00  0.00    -0.360 OA
HETATM   20  H   UNL     1      17.759  47.879  50.821  1.00  0.00     0.217 HD
ENDBRANCH  16  19
ENDBRANCH   5   6
ENDBRANCH   1   5
BRANCH   2  21
HETATM   21  C   UNL     1      25.555  46.436  51.765  1.00  0.00     0.127 C 
BRANCH  21  22
HETATM   22  C   UNL     1      25.816  47.002  53.157  1.00  0.00     0.060 C 
BRANCH  22  23
HETATM   23  C   UNL     1      27.015  46.521  53.932  1.00  0.00    -0.029 A 
HETATM   24  C   UNL     1      27.653  45.234  54.025  1.00  0.00    -0.000 A 
HETATM   25  C   UNL     1      28.740  45.368  54.898  1.00  0.00     0.043 A 
HETATM   26  C   UNL     1      27.432  43.956  53.465  1.00  0.00     0.038 A 
HETATM   27  C   UNL     1      29.592  44.311  55.242  1.00  0.00     0.032 A 
HETATM   28  N   UNL     1      28.778  46.679  55.305  1.00  0.00    -0.365 N 
HETATM   29  C   UNL     1      29.335  43.059  54.684  1.00  0.00     0.026 A 
HETATM   30  C   UNL     1      28.270  42.887  53.807  1.00  0.00     0.035 A 
HETATM   31 CL   UNL     1      27.971  41.327  53.141  1.00  0.00    -0.084 Cl
HETATM   32  H   UNL     1      29.470  47.065  55.932  1.00  0.00     0.165 HD
HETATM   33  C   UNL     1      27.751  47.375  54.738  1.00  0.00     0.096 A 
ENDBRANCH  22  23
ENDBRANCH  21  22
ENDBRANCH   2  21
TORSDOF 6
ENDMDL
MODEL 8
REMARK VINA RESULT:      -9.7      4.234      9.817
REMARK  6 active torsions:
REMARK  status: ('A' for Active; 'I' for Inactive)
REMARK    1  A    between atoms: C_6  and  O_7 
REMARK    2  A    between atoms: C_12  and  C_13 
REMARK    3  A    between atoms: C_13  and  C_14 
REMARK       I    between atoms: C_14  and  N_15 
REMARK    4  A    between atoms: N_15  and  C_16 
REMARK    5  A    between atoms: C_16  and  C_17 
REMARK    6  A    between atoms: C_17  and  C_18 
ROOT
HETATM    1  C   UNL     1      25.663  42.794  50.432  1.00  0.00     0.222 C 
HETATM    2  N   UNL     1      26.141  41.965  51.427  1.00  0.00    -0.360 N 
HETATM    3  O   UNL     1      26.346  43.138  49.469  1.00  0.00    -0.273 OA
HETATM    4  H   UNL     1      25.577  41.867  52.262  1.00  0.00     0.162 HD
ENDROOT
BRANCH   1   5
HETATM    5  C   UNL     1      24.254  43.342  50.648  1.00  0.00     0.148 C 
BRANCH   5   6
HETATM    6  C   UNL     1      23.821  44.646  50.009  1.00  0.00     0.033 C 
HETATM    7  C   UNL     1      22.642  44.446  49.113  1.00  0.00     0.295 C 
HETATM    8  O   UNL     1      21.938  45.569  48.725  1.00  0.00    -0.274 OA
HETATM    9  O   UNL     1      22.255  43.327  48.791  1.00  0.00    -0.259 OA
HETATM   10  C   UNL     1      22.527  46.838  48.807  1.00  0.00     0.093 A 
HETATM   11  C   UNL     1      21.828  47.870  48.172  1.00  0.00     0.045 A 
HETATM   12  C   UNL     1      23.750  47.031  49.445  1.00  0.00     0.038 A 
HETATM   13  C   UNL     1      22.371  49.152  48.129  1.00  0.00    -0.057 A 
HETATM   14  C   UNL     1      21.641  50.285  47.472  1.00  0.00     0.048 C 
HETATM   15  C   UNL     1      23.636  49.361  48.688  1.00  0.00     0.044 A 
HETATM   16  C   UNL     1      24.315  48.313  49.327  1.00  0.00     0.079 A 
HETATM   17  C   UNL     1      24.316  45.889  50.207  1.00  0.00    -0.034 C 
HETATM   18  C   UNL     1      25.355  46.214  51.245  1.00  0.00     0.050 C 
BRANCH  16  19
HETATM   19  O   UNL     1      25.572  48.564  49.809  1.00  0.00    -0.360 OA
HETATM   20  H   UNL     1      25.573  49.397  50.307  1.00  0.00     0.217 HD
ENDBRANCH  16  19
ENDBRANCH   5   6
ENDBRANCH   1   5
BRANCH   2  21
HETATM   21  C   UNL     1      27.575  41.731  51.546  1.00  0.00     0.127 C 
BRANCH  21  22
HETATM   22  C   UNL     1      28.097  41.806  52.976  1.00  0.00     0.060 C 
BRANCH  22  23
HETATM   23  C   UNL     1      28.219  43.151  53.644  1.00  0.00    -0.029 A 
HETATM   24  C   UNL     1      29.144  43.666  54.620  1.00  0.00    -0.000 A 
HETATM   25  C   UNL     1      28.783  44.994  54.878  1.00  0.00     0.043 A 
HETATM   26  C   UNL     1      30.257  43.154  55.322  1.00  0.00     0.038 A 
HETATM   27  C   UNL     1      29.456  45.816  55.792  1.00  0.00     0.032 A 
HETATM   28  N   UNL     1      27.701  45.285  54.084  1.00  0.00    -0.365 N 
HETATM   29  C   UNL     1      30.540  45.272  56.480  1.00  0.00     0.026 A 
HETATM   30  C   UNL     1      30.933  43.960  56.247  1.00  0.00     0.035 A 
HETATM   31 CL   UNL     1      32.271  43.314  57.119  1.00  0.00    -0.084 Cl
HETATM   32  H   UNL     1      27.236  46.182  54.054  1.00  0.00     0.165 HD
HETATM   33  C   UNL     1      27.353  44.192  53.347  1.00  0.00     0.096 A 
ENDBRANCH  22  23
ENDBRANCH  21  22
ENDBRANCH   2  21
TORSDOF 6
ENDMDL
MODEL 9
REMARK VINA RESULT:      -9.6     12.396     15.232
REMARK  6 active torsions:
REMARK  status: ('A' for Active; 'I' for Inactive)
REMARK    1  A    between atoms: C_6  and  O_7 
REMARK    2  A    between atoms: C_12  and  C_13 
REMARK    3  A    between atoms: C_13  and  C_14 
REMARK       I    between atoms: C_14  and  N_15 
REMARK    4  A    between atoms: N_15  and  C_16 
REMARK    5  A    between atoms: C_16  and  C_17 
REMARK    6  A    between atoms: C_17  and  C_18 
ROOT
HETATM    1  C   UNL     1      33.223  51.782  41.040  1.00  0.00     0.222 C 
HETATM    2  N   UNL     1      33.771  50.652  40.466  1.00  0.00    -0.360 N 
HETATM    3  O   UNL     1      33.451  52.114  42.201  1.00  0.00    -0.273 OA
HETATM    4  H   UNL     1      33.403  50.360  39.569  1.00  0.00     0.162 HD
ENDROOT
BRANCH   1   5
HETATM    5  C   UNL     1      32.230  52.549  40.169  1.00  0.00     0.148 C 
BRANCH   5   6
HETATM    6  C   UNL     1      30.944  51.899  39.700  1.00  0.00     0.033 C 
HETATM    7  C   UNL     1      31.113  51.275  38.351  1.00  0.00     0.295 C 
HETATM    8  O   UNL     1      30.150  50.376  37.940  1.00  0.00    -0.274 OA
HETATM    9  O   UNL     1      32.105  51.485  37.660  1.00  0.00    -0.259 OA
HETATM   10  C   UNL     1      28.886  50.365  38.545  1.00  0.00     0.093 A 
HETATM   11  C   UNL     1      27.915  49.589  37.900  1.00  0.00     0.045 A 
HETATM   12  C   UNL     1      28.620  51.117  39.686  1.00  0.00     0.038 A 
HETATM   13  C   UNL     1      26.607  49.577  38.379  1.00  0.00    -0.057 A 
HETATM   14  C   UNL     1      25.546  48.744  37.724  1.00  0.00     0.048 C 
HETATM   15  C   UNL     1      26.289  50.387  39.474  1.00  0.00     0.044 A 
HETATM   16  C   UNL     1      27.280  51.149  40.109  1.00  0.00     0.079 A 
HETATM   17  C   UNL     1      29.769  51.776  40.357  1.00  0.00    -0.034 C 
HETATM   18  C   UNL     1      29.575  52.183  41.792  1.00  0.00     0.050 C 
BRANCH  16  19
HETATM   19  O   UNL     1      26.899  51.963  41.143  1.00  0.00    -0.360 OA
HETATM   20  H   UNL     1      26.144  52.509  40.870  1.00  0.00     0.217 HD
ENDBRANCH  16  19
ENDBRANCH   5   6
ENDBRANCH   1   5
BRANCH   2  21
HETATM   21  C   UNL     1      34.379  49.634  41.315  1.00  0.00     0.127 C 
BRANCH  21  22
HETATM   22  C   UNL     1      33.594  48.328  41.374  1.00  0.00     0.060 C 
BRANCH  22  23
HETATM   23  C   UNL     1      32.114  48.374  41.651  1.00  0.00    -0.029 A 
HETATM   24  C   UNL     1      30.982  47.821  40.953  1.00  0.00    -0.000 A 
HETATM   25  C   UNL     1      29.834  48.177  41.671  1.00  0.00     0.043 A 
HETATM   26  C   UNL     1      30.797  47.050  39.784  1.00  0.00     0.038 A 
HETATM   27  C   UNL     1      28.536  47.821  41.282  1.00  0.00     0.032 A 
HETATM   28  N   UNL     1      30.243  48.898  42.766  1.00  0.00    -0.365 N 
HETATM   29  C   UNL     1      28.389  47.075  40.113  1.00  0.00     0.026 A 
HETATM   30  C   UNL     1      29.505  46.696  39.377  1.00  0.00     0.035 A 
HETATM   31 CL   UNL     1      29.290  45.782  37.932  1.00  0.00    -0.084 Cl
HETATM   32  H   UNL     1      29.623  49.274  43.469  1.00  0.00     0.165 HD
HETATM   33  C   UNL     1      31.601  49.025  42.761  1.00  0.00     0.096 A 
ENDBRANCH  22  23
ENDBRANCH  21  22
ENDBRANCH   2  21
TORSDOF 6
ENDMDL
MODEL 10
REMARK VINA RESULT:      -9.6      3.857     10.533
REMARK  6 active torsions:
REMARK  status: ('A' for Active; 'I' for Inactive)
REMARK    1  A    between atoms: C_6  and  O_7 
REMARK    2  A    between atoms: C_12  and  C_13 
REMARK    3  A    between atoms: C_13  and  C_14 
REMARK       I    between atoms: C_14  and  N_15 
REMARK    4  A    between atoms: N_15  and  C_16 
REMARK    5  A    between atoms: C_16  and  C_17 
REMARK    6  A    between atoms: C_17  and  C_18 
ROOT
HETATM    1  C   UNL     1      23.646  45.499  49.830  1.00  0.00     0.222 C 
HETATM    2  N   UNL     1      24.472  45.893  50.863  1.00  0.00    -0.360 N 
HETATM    3  O   UNL     1      23.226  44.349  49.718  1.00  0.00    -0.273 OA
HETATM    4  H   UNL     1      24.906  46.805  50.790  1.00  0.00     0.162 HD
ENDROOT
BRANCH   1   5
HETATM    5  C   UNL     1      23.360  46.561  48.771  1.00  0.00     0.148 C 
BRANCH   5   6
HETATM    6  C   UNL     1      22.332  47.647  49.017  1.00  0.00     0.033 C 
HETATM    7  C   UNL     1      22.989  48.946  49.361  1.00  0.00     0.295 C 
HETATM    8  O   UNL     1      22.216  50.089  49.290  1.00  0.00    -0.274 OA
HETATM    9  O   UNL     1      24.185  49.019  49.621  1.00  0.00    -0.259 OA
HETATM   10  C   UNL     1      20.818  50.002  49.314  1.00  0.00     0.093 A 
HETATM   11  C   UNL     1      20.141  51.215  49.479  1.00  0.00     0.045 A 
HETATM   12  C   UNL     1      20.165  48.775  49.222  1.00  0.00     0.038 A 
HETATM   13  C   UNL     1      18.752  51.224  49.595  1.00  0.00    -0.057 A 
HETATM   14  C   UNL     1      17.993  52.508  49.754  1.00  0.00     0.048 C 
HETATM   15  C   UNL     1      18.073  50.002  49.590  1.00  0.00     0.044 A 
HETATM   16  C   UNL     1      18.772  48.799  49.415  1.00  0.00     0.079 A 
HETATM   17  C   UNL     1      20.987  47.581  48.900  1.00  0.00    -0.034 C 
HETATM   18  C   UNL     1      20.260  46.383  48.356  1.00  0.00     0.050 C 
BRANCH  16  19
HETATM   19  O   UNL     1      18.061  47.630  49.471  1.00  0.00    -0.360 OA
HETATM   20  H   UNL     1      17.110  47.823  49.463  1.00  0.00     0.217 HD
ENDBRANCH  16  19
ENDBRANCH   5   6
ENDBRANCH   1   5
BRANCH   2  21
HETATM   21  C   UNL     1      25.143  44.886  51.677  1.00  0.00     0.127 C 
BRANCH  21  22
HETATM   22  C   UNL     1      26.282  45.436  52.528  1.00  0.00     0.060 C 
BRANCH  22  23
HETATM   23  C   UNL     1      27.471  44.559  52.818  1.00  0.00    -0.029 A 
HETATM   24  C   UNL     1      28.420  44.544  53.902  1.00  0.00    -0.000 A 
HETATM   25  C   UNL     1      29.319  43.499  53.655  1.00  0.00     0.043 A 
HETATM   26  C   UNL     1      28.622  45.303  55.076  1.00  0.00     0.038 A 
HETATM   27  C   UNL     1      30.395  43.188  54.497  1.00  0.00     0.032 A 
HETATM   28  N   UNL     1      28.929  42.891  52.487  1.00  0.00    -0.365 N 
HETATM   29  C   UNL     1      30.574  43.969  55.638  1.00  0.00     0.026 A 
HETATM   30  C   UNL     1      29.699  45.011  55.921  1.00  0.00     0.035 A 
HETATM   31 CL   UNL     1      29.952  45.963  57.335  1.00  0.00    -0.084 Cl
HETATM   32  H   UNL     1      29.393  42.095  52.072  1.00  0.00     0.165 HD
HETATM   33  C   UNL     1      27.831  43.518  51.977  1.00  0.00     0.096 A 
ENDBRANCH  22  23
ENDBRANCH  21  22
ENDBRANCH   2  21
TORSDOF 6
ENDMDL
