MODEL 1
REMARK VINA RESULT:      -9.9      0.000      0.000
REMARK  5 active torsions:
REMARK  status: ('A' for Active; 'I' for Inactive)
REMARK    1  A    between atoms: C_9  and  C_10 
REMARK       I    between atoms: C_10  and  N_11 
REMARK    2  A    between atoms: N_11  and  C_12 
REMARK    3  A    between atoms: C_12  and  C_13 
REMARK    4  A    between atoms: C_15  and  O_16 
REMARK    5  A    between atoms: O_16  and  C_17 
ROOT
HETATM    1  C   UNL     1      25.708  46.100  52.794  1.00  0.00     0.273 C 
HETATM    2  N   UNL     1      25.939  46.941  51.729  1.00  0.00    -0.351 N 
HETATM    3  O   UNL     1      24.951  45.135  52.743  1.00  0.00    -0.266 OA
HETATM    4  H   UNL     1      26.540  47.736  51.923  1.00  0.00     0.163 HD
ENDROOT
BRANCH   2   5
HETATM    5  C   UNL     1      25.295  46.791  50.455  1.00  0.00     0.161 C 
BRANCH   5   6
HETATM    6  C   UNL     1      25.503  47.996  49.581  1.00  0.00    -0.035 A 
HETATM    7  C   UNL     1      24.410  48.667  49.025  1.00  0.00     0.066 A 
HETATM    8  C   UNL     1      24.643  49.760  48.205  1.00  0.00     0.164 A 
HETATM    9  N   UNL     1      25.873  50.238  47.927  1.00  0.00    -0.237 NA
HETATM   10  C   UNL     1      26.914  49.596  48.498  1.00  0.00     0.120 A 
HETATM   11  C   UNL     1      26.784  48.487  49.319  1.00  0.00     0.028 A 
BRANCH   8  12
HETATM   12  O   UNL     1      23.525  50.363  47.664  1.00  0.00    -0.329 OA
BRANCH  12  13
HETATM   13  C   UNL     1      22.307  50.087  48.351  1.00  0.00     0.130 C 
HETATM   14  C   UNL     1      22.113  51.004  49.561  1.00  0.00     0.032 C 
HETATM   15  C   UNL     1      20.607  51.147  49.669  1.00  0.00     0.002 C 
HETATM   16  C   UNL     1      20.179  51.312  48.220  1.00  0.00     0.002 C 
HETATM   17  C   UNL     1      21.125  50.416  47.422  1.00  0.00     0.032 C 
ENDBRANCH  12  13
ENDBRANCH   8  12
ENDBRANCH   5   6
ENDBRANCH   2   5
BRANCH   1  18
HETATM   18  C   UNL     1      26.473  46.471  53.996  1.00  0.00     0.157 A 
HETATM   19  C   UNL     1      27.622  45.816  54.528  1.00  0.00     0.029 A 
HETATM   20  C   UNL     1      28.395  44.686  54.191  1.00  0.00     0.023 A 
HETATM   21  C   UNL     1      27.981  46.562  55.644  1.00  0.00     0.063 A 
HETATM   22  C   UNL     1      29.499  44.338  54.988  1.00  0.00    -0.061 A 
HETATM   23  C   UNL     1      30.336  43.140  54.646  1.00  0.00     0.048 C 
HETATM   24  C   UNL     1      29.830  45.126  56.099  1.00  0.00     0.009 A 
HETATM   25  C   UNL     1      29.078  46.252  56.451  1.00  0.00     0.032 A 
HETATM   26  N   UNL     1      27.059  47.569  55.715  1.00  0.00    -0.277 N 
HETATM   27  H   UNL     1      27.012  48.307  56.408  1.00  0.00     0.189 HD
HETATM   28  N   UNL     1      26.130  47.546  54.743  1.00  0.00    -0.168 NA
ENDBRANCH   1  18
TORSDOF 5
ENDMDL
MODEL 2
REMARK VINA RESULT:      -9.6      1.686      2.435
REMARK  5 active torsions:
REMARK  status: ('A' for Active; 'I' for Inactive)
REMARK    1  A    between atoms: C_9  and  C_10 
REMARK       I    between atoms: C_10  and  N_11 
REMARK    2  A    between atoms: N_11  and  C_12 
REMARK    3  A    between atoms: C_12  and  C_13 
REMARK    4  A    between atoms: C_15  and  O_16 
REMARK    5  A    between atoms: O_16  and  C_17 
ROOT
HETATM    1  C   UNL     1      26.034  44.525  52.514  1.00  0.00     0.273 C 
HETATM    2  N   UNL     1      26.138  45.603  51.664  1.00  0.00    -0.351 N 
HETATM    3  O   UNL     1      24.979  44.170  53.031  1.00  0.00    -0.266 OA
HETATM    4  H   UNL     1      27.080  45.825  51.353  1.00  0.00     0.163 HD
ENDROOT
BRANCH   2   5
HETATM    5  C   UNL     1      25.025  46.441  51.317  1.00  0.00     0.161 C 
BRANCH   5   6
HETATM    6  C   UNL     1      25.411  47.489  50.312  1.00  0.00    -0.035 A 
HETATM    7  C   UNL     1      24.437  48.109  49.523  1.00  0.00     0.066 A 
HETATM    8  C   UNL     1      24.834  49.054  48.590  1.00  0.00     0.164 A 
HETATM    9  N   UNL     1      26.115  49.437  48.411  1.00  0.00    -0.237 NA
HETATM   10  C   UNL     1      27.037  48.850  49.203  1.00  0.00     0.120 A 
HETATM   11  C   UNL     1      26.740  47.885  50.154  1.00  0.00     0.028 A 
BRANCH   8  12
HETATM   12  O   UNL     1      23.830  49.609  47.823  1.00  0.00    -0.329 OA
BRANCH  12  13
HETATM   13  C   UNL     1      22.582  49.764  48.495  1.00  0.00     0.130 C 
HETATM   14  C   UNL     1      22.226  51.237  48.705  1.00  0.00     0.032 C 
HETATM   15  C   UNL     1      20.710  51.252  48.668  1.00  0.00     0.002 C 
HETATM   16  C   UNL     1      20.391  50.308  47.520  1.00  0.00     0.002 C 
HETATM   17  C   UNL     1      21.460  49.219  47.593  1.00  0.00     0.032 C 
ENDBRANCH  12  13
ENDBRANCH   8  12
ENDBRANCH   5   6
ENDBRANCH   2   5
BRANCH   1  18
HETATM   18  C   UNL     1      27.318  43.835  52.727  1.00  0.00     0.157 A 
HETATM   19  C   UNL     1      28.277  44.087  53.751  1.00  0.00     0.029 A 
HETATM   20  C   UNL     1      28.399  44.983  54.832  1.00  0.00     0.023 A 
HETATM   21  C   UNL     1      29.291  43.162  53.534  1.00  0.00     0.063 A 
HETATM   22  C   UNL     1      29.536  44.927  55.656  1.00  0.00    -0.061 A 
HETATM   23  C   UNL     1      29.684  45.872  56.813  1.00  0.00     0.048 C 
HETATM   24  C   UNL     1      30.529  43.970  55.406  1.00  0.00     0.009 A 
HETATM   25  C   UNL     1      30.428  43.070  54.340  1.00  0.00     0.032 A 
HETATM   26  N   UNL     1      28.899  42.450  52.434  1.00  0.00    -0.277 N 
HETATM   27  H   UNL     1      29.398  41.689  51.989  1.00  0.00     0.189 HD
HETATM   28  N   UNL     1      27.718  42.830  51.914  1.00  0.00    -0.168 NA
ENDBRANCH   1  18
TORSDOF 5
ENDMDL
MODEL 3
REMARK VINA RESULT:      -9.4      2.604      3.989
REMARK  5 active torsions:
REMARK  status: ('A' for Active; 'I' for Inactive)
REMARK    1  A    between atoms: C_9  and  C_10 
REMARK       I    between atoms: C_10  and  N_11 
REMARK    2  A    between atoms: N_11  and  C_12 
REMARK    3  A    between atoms: C_12  and  C_13 
REMARK    4  A    between atoms: C_15  and  O_16 
REMARK    5  A    between atoms: O_16  and  C_17 
ROOT
HETATM    1  C   UNL     1      27.942  44.364  53.361  1.00  0.00     0.273 C 
HETATM    2  N   UNL     1      26.592  44.173  53.173  1.00  0.00    -0.351 N 
HETATM    3  O   UNL     1      28.800  43.934  52.596  1.00  0.00    -0.266 OA
HETATM    4  H   UNL     1      25.994  44.529  53.912  1.00  0.00     0.163 HD
ENDROOT
BRANCH   2   5
HETATM    5  C   UNL     1      26.050  43.425  52.073  1.00  0.00     0.161 C 
BRANCH   5   6
HETATM    6  C   UNL     1      25.173  44.277  51.201  1.00  0.00    -0.035 A 
HETATM    7  C   UNL     1      25.394  45.654  51.100  1.00  0.00     0.066 A 
HETATM    8  C   UNL     1      24.548  46.411  50.304  1.00  0.00     0.164 A 
HETATM    9  N   UNL     1      23.528  45.892  49.591  1.00  0.00    -0.237 NA
HETATM   10  C   UNL     1      23.349  44.556  49.676  1.00  0.00     0.120 A 
HETATM   11  C   UNL     1      24.132  43.719  50.456  1.00  0.00     0.028 A 
BRANCH   8  12
HETATM   12  O   UNL     1      24.801  47.767  50.267  1.00  0.00    -0.329 OA
BRANCH  12  13
HETATM   13  C   UNL     1      25.463  48.219  49.088  1.00  0.00     0.130 C 
HETATM   14  C   UNL     1      25.054  49.645  48.714  1.00  0.00     0.032 C 
HETATM   15  C   UNL     1      26.289  50.211  48.039  1.00  0.00     0.002 C 
HETATM   16  C   UNL     1      27.417  49.702  48.919  1.00  0.00     0.002 C 
HETATM   17  C   UNL     1      26.974  48.311  49.369  1.00  0.00     0.032 C 
ENDBRANCH  12  13
ENDBRANCH   8  12
ENDBRANCH   5   6
ENDBRANCH   2   5
BRANCH   1  18
HETATM   18  C   UNL     1      28.248  45.150  54.569  1.00  0.00     0.157 A 
HETATM   19  C   UNL     1      29.251  44.881  55.547  1.00  0.00     0.029 A 
HETATM   20  C   UNL     1      30.226  43.884  55.755  1.00  0.00     0.023 A 
HETATM   21  C   UNL     1      29.152  45.920  56.463  1.00  0.00     0.063 A 
HETATM   22  C   UNL     1      31.066  43.960  56.879  1.00  0.00    -0.061 A 
HETATM   23  C   UNL     1      32.112  42.910  57.119  1.00  0.00     0.048 C 
HETATM   24  C   UNL     1      30.938  45.032  57.772  1.00  0.00     0.009 A 
HETATM   25  C   UNL     1      29.978  46.033  57.584  1.00  0.00     0.032 A 
HETATM   26  N   UNL     1      28.134  46.709  56.004  1.00  0.00    -0.277 N 
HETATM   27  H   UNL     1      27.783  47.561  56.425  1.00  0.00     0.189 HD
HETATM   28  N   UNL     1      27.559  46.275  54.868  1.00  0.00    -0.168 NA
ENDBRANCH   1  18
TORSDOF 5
ENDMDL
MODEL 4
REMARK VINA RESULT:      -9.1      2.049      2.980
REMARK  5 active torsions:
REMARK  status: ('A' for Active; 'I' for Inactive)
REMARK    1  A    between atoms: C_9  and  C_10 
REMARK       I    between atoms: C_10  and  N_11 
REMARK    2  A    between atoms: N_11  and  C_12 
REMARK    3  A    between atoms: C_12  and  C_13 
REMARK    4  A    between atoms: C_15  and  O_16 
REMARK    5  A    between atoms: O_16  and  C_17 
ROOT
HETATM    1  C   UNL     1      26.658  45.815  53.698  1.00  0.00     0.273 C 
HETATM    2  N   UNL     1      26.494  46.251  52.402  1.00  0.00    -0.351 N 
HETATM    3  O   UNL     1      25.950  46.183  54.631  1.00  0.00    -0.266 OA
HETATM    4  H   UNL     1      27.185  45.916  51.738  1.00  0.00     0.163 HD
ENDROOT
BRANCH   2   5
HETATM    5  C   UNL     1      25.492  47.204  52.015  1.00  0.00     0.161 C 
BRANCH   5   6
HETATM    6  C   UNL     1      24.694  46.723  50.836  1.00  0.00    -0.035 A 
HETATM    7  C   UNL     1      24.126  47.636  49.943  1.00  0.00     0.066 A 
HETATM    8  C   UNL     1      23.376  47.155  48.881  1.00  0.00     0.164 A 
HETATM    9  N   UNL     1      23.179  45.843  48.638  1.00  0.00    -0.237 NA
HETATM   10  C   UNL     1      23.761  44.976  49.493  1.00  0.00     0.120 A 
HETATM   11  C   UNL     1      24.516  45.360  50.591  1.00  0.00     0.028 A 
BRANCH   8  12
HETATM   12  O   UNL     1      22.819  48.106  48.051  1.00  0.00    -0.329 OA
BRANCH  12  13
HETATM   13  C   UNL     1      22.217  49.209  48.726  1.00  0.00     0.130 C 
HETATM   14  C   UNL     1      22.149  50.453  47.837  1.00  0.00     0.032 C 
HETATM   15  C   UNL     1      20.905  51.174  48.320  1.00  0.00     0.002 C 
HETATM   16  C   UNL     1      19.913  50.041  48.517  1.00  0.00     0.002 C 
HETATM   17  C   UNL     1      20.747  48.866  49.027  1.00  0.00     0.032 C 
ENDBRANCH  12  13
ENDBRANCH   8  12
ENDBRANCH   5   6
ENDBRANCH   2   5
BRANCH   1  18
HETATM   18  C   UNL     1      27.762  44.852  53.845  1.00  0.00     0.157 A 
HETATM   19  C   UNL     1      28.759  44.825  54.864  1.00  0.00     0.029 A 
HETATM   20  C   UNL     1      29.077  45.605  55.995  1.00  0.00     0.023 A 
HETATM   21  C   UNL     1      29.546  43.719  54.572  1.00  0.00     0.063 A 
HETATM   22  C   UNL     1      30.179  45.252  56.792  1.00  0.00    -0.061 A 
HETATM   23  C   UNL     1      30.536  46.068  58.001  1.00  0.00     0.048 C 
HETATM   24  C   UNL     1      30.940  44.121  56.466  1.00  0.00     0.009 A 
HETATM   25  C   UNL     1      30.641  43.332  55.350  1.00  0.00     0.032 A 
HETATM   26  N   UNL     1      29.003  43.179  53.440  1.00  0.00    -0.277 N 
HETATM   27  H   UNL     1      29.322  42.357  52.940  1.00  0.00     0.189 HD
HETATM   28  N   UNL     1      27.930  43.837  52.966  1.00  0.00    -0.168 NA
ENDBRANCH   1  18
TORSDOF 5
ENDMDL
MODEL 5
REMARK VINA RESULT:      -9.0      1.603      2.211
REMARK  5 active torsions:
REMARK  status: ('A' for Active; 'I' for Inactive)
REMARK    1  A    between atoms: C_9  and  C_10 
REMARK       I    between atoms: C_10  and  N_11 
REMARK    2  A    between atoms: N_11  and  C_12 
REMARK    3  A    between atoms: C_12  and  C_13 
REMARK    4  A    between atoms: C_15  and  O_16 
REMARK    5  A    between atoms: O_16  and  C_17 
ROOT
HETATM    1  C   UNL     1      27.850  45.039  53.529  1.00  0.00     0.273 C 
HETATM    2  N   UNL     1      26.767  45.640  52.928  1.00  0.00    -0.351 N 
HETATM    3  O   UNL     1      28.507  44.145  53.004  1.00  0.00    -0.266 OA
HETATM    4  H   UNL     1      26.276  46.323  53.496  1.00  0.00     0.163 HD
ENDROOT
BRANCH   2   5
HETATM    5  C   UNL     1      26.277  45.260  51.633  1.00  0.00     0.161 C 
BRANCH   5   6
HETATM    6  C   UNL     1      25.945  46.460  50.792  1.00  0.00    -0.035 A 
HETATM    7  C   UNL     1      24.618  46.867  50.627  1.00  0.00     0.066 A 
HETATM    8  C   UNL     1      24.349  47.963  49.823  1.00  0.00     0.164 A 
HETATM    9  N   UNL     1      25.302  48.688  49.202  1.00  0.00    -0.237 NA
HETATM   10  C   UNL     1      26.580  48.299  49.398  1.00  0.00     0.120 A 
HETATM   11  C   UNL     1      26.948  47.208  50.171  1.00  0.00     0.028 A 
BRANCH   8  12
HETATM   12  O   UNL     1      23.018  48.298  49.678  1.00  0.00    -0.329 OA
BRANCH  12  13
HETATM   13  C   UNL     1      22.769  49.378  48.780  1.00  0.00     0.130 C 
HETATM   14  C   UNL     1      21.597  49.080  47.841  1.00  0.00     0.032 C 
HETATM   15  C   UNL     1      20.998  50.447  47.567  1.00  0.00     0.002 C 
HETATM   16  C   UNL     1      21.031  51.110  48.934  1.00  0.00     0.002 C 
HETATM   17  C   UNL     1      22.315  50.605  49.590  1.00  0.00     0.032 C 
ENDBRANCH  12  13
ENDBRANCH   8  12
ENDBRANCH   5   6
ENDBRANCH   2   5
BRANCH   1  18
HETATM   18  C   UNL     1      28.146  45.591  54.862  1.00  0.00     0.157 A 
HETATM   19  C   UNL     1      29.166  45.173  55.767  1.00  0.00     0.029 A 
HETATM   20  C   UNL     1      30.171  44.184  55.778  1.00  0.00     0.023 A 
HETATM   21  C   UNL     1      29.048  46.017  56.863  1.00  0.00     0.063 A 
HETATM   22  C   UNL     1      31.020  44.071  56.892  1.00  0.00    -0.061 A 
HETATM   23  C   UNL     1      32.097  43.025  56.925  1.00  0.00     0.048 C 
HETATM   24  C   UNL     1      30.871  44.951  57.972  1.00  0.00     0.009 A 
HETATM   25  C   UNL     1      29.882  45.941  57.981  1.00  0.00     0.032 A 
HETATM   26  N   UNL     1      28.003  46.848  56.566  1.00  0.00    -0.277 N 
HETATM   27  H   UNL     1      27.633  47.595  57.143  1.00  0.00     0.189 HD
HETATM   28  N   UNL     1      27.429  46.619  55.371  1.00  0.00    -0.168 NA
ENDBRANCH   1  18
TORSDOF 5
ENDMDL
MODEL 6
REMARK VINA RESULT:      -9.0      1.838      2.749
REMARK  5 active torsions:
REMARK  status: ('A' for Active; 'I' for Inactive)
REMARK    1  A    between atoms: C_9  and  C_10 
REMARK       I    between atoms: C_10  and  N_11 
REMARK    2  A    between atoms: N_11  and  C_12 
REMARK    3  A    between atoms: C_12  and  C_13 
REMARK    4  A    between atoms: C_15  and  O_16 
REMARK    5  A    between atoms: O_16  and  C_17 
ROOT
HETATM    1  C   UNL     1      26.613  46.408  54.813  1.00  0.00     0.273 C 
HETATM    2  N   UNL     1      26.178  45.349  54.049  1.00  0.00    -0.351 N 
HETATM    3  O   UNL     1      26.057  47.502  54.834  1.00  0.00    -0.266 OA
HETATM    4  H   UNL     1      26.763  44.520  54.077  1.00  0.00     0.163 HD
ENDROOT
BRANCH   2   5
HETATM    5  C   UNL     1      25.041  45.427  53.174  1.00  0.00     0.161 C 
BRANCH   5   6
HETATM    6  C   UNL     1      25.430  45.884  51.797  1.00  0.00    -0.035 A 
HETATM    7  C   UNL     1      25.098  47.168  51.354  1.00  0.00     0.066 A 
HETATM    8  C   UNL     1      25.452  47.544  50.068  1.00  0.00     0.164 A 
HETATM    9  N   UNL     1      26.128  46.748  49.215  1.00  0.00    -0.237 NA
HETATM   10  C   UNL     1      26.467  45.524  49.670  1.00  0.00     0.120 A 
HETATM   11  C   UNL     1      26.146  45.051  50.934  1.00  0.00     0.028 A 
BRANCH   8  12
HETATM   12  O   UNL     1      25.073  48.813  49.681  1.00  0.00    -0.329 OA
BRANCH  12  13
HETATM   13  C   UNL     1      24.153  48.854  48.591  1.00  0.00     0.130 C 
HETATM   14  C   UNL     1      22.712  48.628  49.053  1.00  0.00     0.032 C 
HETATM   15  C   UNL     1      21.885  49.427  48.064  1.00  0.00     0.002 C 
HETATM   16  C   UNL     1      22.688  50.708  47.912  1.00  0.00     0.002 C 
HETATM   17  C   UNL     1      24.150  50.273  47.995  1.00  0.00     0.032 C 
ENDBRANCH  12  13
ENDBRANCH   8  12
ENDBRANCH   5   6
ENDBRANCH   2   5
BRANCH   1  18
HETATM   18  C   UNL     1      27.808  46.086  55.612  1.00  0.00     0.157 A 
HETATM   19  C   UNL     1      28.804  45.107  55.326  1.00  0.00     0.029 A 
HETATM   20  C   UNL     1      29.032  44.156  54.310  1.00  0.00     0.023 A 
HETATM   21  C   UNL     1      29.723  45.211  56.362  1.00  0.00     0.063 A 
HETATM   22  C   UNL     1      30.171  43.336  54.372  1.00  0.00    -0.061 A 
HETATM   23  C   UNL     1      30.433  42.317  53.301  1.00  0.00     0.048 C 
HETATM   24  C   UNL     1      31.077  43.482  55.431  1.00  0.00     0.009 A 
HETATM   25  C   UNL     1      30.872  44.421  56.448  1.00  0.00     0.032 A 
HETATM   26  N   UNL     1      29.237  46.195  57.177  1.00  0.00    -0.277 N 
HETATM   27  H   UNL     1      29.652  46.540  58.035  1.00  0.00     0.189 HD
HETATM   28  N   UNL     1      28.081  46.744  56.763  1.00  0.00    -0.168 NA
ENDBRANCH   1  18
TORSDOF 5
ENDMDL
MODEL 7
REMARK VINA RESULT:      -8.8      3.831      5.917
REMARK  5 active torsions:
REMARK  status: ('A' for Active; 'I' for Inactive)
REMARK    1  A    between atoms: C_9  and  C_10 
REMARK       I    between atoms: C_10  and  N_11 
REMARK    2  A    between atoms: N_11  and  C_12 
REMARK    3  A    between atoms: C_12  and  C_13 
REMARK    4  A    between atoms: C_15  and  O_16 
REMARK    5  A    between atoms: O_16  and  C_17 
ROOT
HETATM    1  C   UNL     1      29.492  42.691  53.681  1.00  0.00     0.273 C 
HETATM    2  N   UNL     1      28.284  42.031  53.660  1.00  0.00    -0.351 N 
HETATM    3  O   UNL     1      30.432  42.407  52.945  1.00  0.00    -0.266 OA
HETATM    4  H   UNL     1      27.613  42.326  54.363  1.00  0.00     0.163 HD
ENDROOT
BRANCH   2   5
HETATM    5  C   UNL     1      28.011  40.921  52.791  1.00  0.00     0.161 C 
BRANCH   5   6
HETATM    6  C   UNL     1      27.621  41.377  51.413  1.00  0.00    -0.035 A 
HETATM    7  C   UNL     1      26.685  42.401  51.243  1.00  0.00     0.066 A 
HETATM    8  C   UNL     1      26.332  42.777  49.956  1.00  0.00     0.164 A 
HETATM    9  N   UNL     1      26.862  42.228  48.844  1.00  0.00    -0.237 NA
HETATM   10  C   UNL     1      27.787  41.262  49.029  1.00  0.00     0.120 A 
HETATM   11  C   UNL     1      28.194  40.808  50.274  1.00  0.00     0.028 A 
BRANCH   8  12
HETATM   12  O   UNL     1      25.383  43.774  49.853  1.00  0.00    -0.329 OA
BRANCH  12  13
HETATM   13  C   UNL     1      25.723  44.992  50.511  1.00  0.00     0.130 C 
HETATM   14  C   UNL     1      26.805  45.766  49.755  1.00  0.00     0.032 C 
HETATM   15  C   UNL     1      26.496  47.218  50.069  1.00  0.00     0.002 C 
HETATM   16  C   UNL     1      24.982  47.271  49.963  1.00  0.00     0.002 C 
HETATM   17  C   UNL     1      24.498  45.924  50.498  1.00  0.00     0.032 C 
ENDBRANCH  12  13
ENDBRANCH   8  12
ENDBRANCH   5   6
ENDBRANCH   2   5
BRANCH   1  18
HETATM   18  C   UNL     1      29.533  43.783  54.669  1.00  0.00     0.157 A 
HETATM   19  C   UNL     1      28.665  44.910  54.752  1.00  0.00     0.029 A 
HETATM   20  C   UNL     1      27.565  45.402  54.019  1.00  0.00     0.023 A 
HETATM   21  C   UNL     1      29.099  45.623  55.862  1.00  0.00     0.063 A 
HETATM   22  C   UNL     1      26.942  46.596  54.421  1.00  0.00    -0.061 A 
HETATM   23  C   UNL     1      25.769  47.136  53.655  1.00  0.00     0.048 C 
HETATM   24  C   UNL     1      27.408  47.276  55.554  1.00  0.00     0.009 A 
HETATM   25  C   UNL     1      28.496  46.806  56.296  1.00  0.00     0.032 A 
HETATM   26  N   UNL     1      30.162  44.915  56.350  1.00  0.00    -0.277 N 
HETATM   27  H   UNL     1      30.728  45.142  57.160  1.00  0.00     0.189 HD
HETATM   28  N   UNL     1      30.459  43.802  55.655  1.00  0.00    -0.168 NA
ENDBRANCH   1  18
TORSDOF 5
ENDMDL
MODEL 8
REMARK VINA RESULT:      -8.6      2.014      2.849
REMARK  5 active torsions:
REMARK  status: ('A' for Active; 'I' for Inactive)
REMARK    1  A    between atoms: C_9  and  C_10 
REMARK       I    between atoms: C_10  and  N_11 
REMARK    2  A    between atoms: N_11  and  C_12 
REMARK    3  A    between atoms: C_12  and  C_13 
REMARK    4  A    between atoms: C_15  and  O_16 
REMARK    5  A    between atoms: O_16  and  C_17 
ROOT
HETATM    1  C   UNL     1      25.510  43.977  51.575  1.00  0.00     0.273 C 
HETATM    2  N   UNL     1      25.657  44.943  50.605  1.00  0.00    -0.351 N 
HETATM    3  O   UNL     1      24.528  43.246  51.659  1.00  0.00    -0.266 OA
HETATM    4  H   UNL     1      26.490  45.518  50.685  1.00  0.00     0.163 HD
ENDROOT
BRANCH   2   5
HETATM    5  C   UNL     1      24.660  45.214  49.608  1.00  0.00     0.161 C 
BRANCH   5   6
HETATM    6  C   UNL     1      24.401  46.687  49.468  1.00  0.00    -0.035 A 
HETATM    7  C   UNL     1      23.093  47.171  49.361  1.00  0.00     0.066 A 
HETATM    8  C   UNL     1      22.895  48.534  49.208  1.00  0.00     0.164 A 
HETATM    9  N   UNL     1      23.896  49.438  49.181  1.00  0.00    -0.237 NA
HETATM   10  C   UNL     1      25.150  48.955  49.318  1.00  0.00     0.120 A 
HETATM   11  C   UNL     1      25.450  47.609  49.461  1.00  0.00     0.028 A 
BRANCH   8  12
HETATM   12  O   UNL     1      21.584  48.947  49.079  1.00  0.00    -0.329 OA
BRANCH  12  13
HETATM   13  C   UNL     1      21.405  50.361  49.053  1.00  0.00     0.130 C 
HETATM   14  C   UNL     1      20.520  50.802  47.884  1.00  0.00     0.032 C 
HETATM   15  C   UNL     1      19.825  52.045  48.406  1.00  0.00     0.002 C 
HETATM   16  C   UNL     1      19.467  51.659  49.831  1.00  0.00     0.002 C 
HETATM   17  C   UNL     1      20.627  50.788  50.310  1.00  0.00     0.032 C 
ENDBRANCH  12  13
ENDBRANCH   8  12
ENDBRANCH   5   6
ENDBRANCH   2   5
BRANCH   1  18
HETATM   18  C   UNL     1      26.661  43.902  52.491  1.00  0.00     0.157 A 
HETATM   19  C   UNL     1      27.060  44.868  53.462  1.00  0.00     0.029 A 
HETATM   20  C   UNL     1      26.600  46.130  53.888  1.00  0.00     0.023 A 
HETATM   21  C   UNL     1      28.179  44.322  54.078  1.00  0.00     0.063 A 
HETATM   22  C   UNL     1      27.281  46.807  54.913  1.00  0.00    -0.061 A 
HETATM   23  C   UNL     1      26.808  48.152  55.383  1.00  0.00     0.048 C 
HETATM   24  C   UNL     1      28.400  46.214  55.514  1.00  0.00     0.009 A 
HETATM   25  C   UNL     1      28.873  44.961  55.108  1.00  0.00     0.032 A 
HETATM   26  N   UNL     1      28.380  43.120  53.459  1.00  0.00    -0.277 N 
HETATM   27  H   UNL     1      29.112  42.447  53.653  1.00  0.00     0.189 HD
HETATM   28  N   UNL     1      27.490  42.833  52.492  1.00  0.00    -0.168 NA
ENDBRANCH   1  18
TORSDOF 5
ENDMDL
MODEL 9
REMARK VINA RESULT:      -8.5      5.599      8.174
REMARK  5 active torsions:
REMARK  status: ('A' for Active; 'I' for Inactive)
REMARK    1  A    between atoms: C_9  and  C_10 
REMARK       I    between atoms: C_10  and  N_11 
REMARK    2  A    between atoms: N_11  and  C_12 
REMARK    3  A    between atoms: C_12  and  C_13 
REMARK    4  A    between atoms: C_15  and  O_16 
REMARK    5  A    between atoms: O_16  and  C_17 
ROOT
HETATM    1  C   UNL     1      26.934  43.802  51.747  1.00  0.00     0.273 C 
HETATM    2  N   UNL     1      25.918  42.873  51.745  1.00  0.00    -0.351 N 
HETATM    3  O   UNL     1      26.829  44.921  51.254  1.00  0.00    -0.266 OA
HETATM    4  H   UNL     1      26.156  41.965  52.132  1.00  0.00     0.163 HD
ENDROOT
BRANCH   2   5
HETATM    5  C   UNL     1      24.638  43.111  51.140  1.00  0.00     0.161 C 
BRANCH   5   6
HETATM    6  C   UNL     1      24.422  42.239  49.936  1.00  0.00    -0.035 A 
HETATM    7  C   UNL     1      25.420  41.358  49.509  1.00  0.00     0.066 A 
HETATM    8  C   UNL     1      25.193  40.588  48.379  1.00  0.00     0.164 A 
HETATM    9  N   UNL     1      24.045  40.615  47.672  1.00  0.00    -0.237 NA
HETATM   10  C   UNL     1      23.081  41.449  48.118  1.00  0.00     0.120 A 
HETATM   11  C   UNL     1      23.218  42.269  49.227  1.00  0.00     0.028 A 
BRANCH   8  12
HETATM   12  O   UNL     1      26.227  39.759  47.992  1.00  0.00    -0.329 OA
BRANCH  12  13
HETATM   13  C   UNL     1      27.109  39.373  49.044  1.00  0.00     0.130 C 
HETATM   14  C   UNL     1      27.021  37.875  49.341  1.00  0.00     0.032 C 
HETATM   15  C   UNL     1      28.416  37.519  49.819  1.00  0.00     0.002 C 
HETATM   16  C   UNL     1      29.307  38.289  48.859  1.00  0.00     0.002 C 
HETATM   17  C   UNL     1      28.561  39.592  48.582  1.00  0.00     0.032 C 
ENDBRANCH  12  13
ENDBRANCH   8  12
ENDBRANCH   5   6
ENDBRANCH   2   5
BRANCH   1  18
HETATM   18  C   UNL     1      28.155  43.317  52.413  1.00  0.00     0.157 A 
HETATM   19  C   UNL     1      28.753  43.826  53.603  1.00  0.00     0.029 A 
HETATM   20  C   UNL     1      28.482  44.870  54.510  1.00  0.00     0.023 A 
HETATM   21  C   UNL     1      29.859  43.017  53.827  1.00  0.00     0.063 A 
HETATM   22  C   UNL     1      29.334  45.072  55.610  1.00  0.00    -0.061 A 
HETATM   23  C   UNL     1      29.063  46.178  56.588  1.00  0.00     0.048 C 
HETATM   24  C   UNL     1      30.433  44.225  55.803  1.00  0.00     0.009 A 
HETATM   25  C   UNL     1      30.720  43.181  54.916  1.00  0.00     0.032 A 
HETATM   26  N   UNL     1      29.862  42.117  52.798  1.00  0.00    -0.277 N 
HETATM   27  H   UNL     1      30.530  41.371  52.639  1.00  0.00     0.189 HD
HETATM   28  N   UNL     1      28.854  42.269  51.920  1.00  0.00    -0.168 NA
ENDBRANCH   1  18
TORSDOF 5
ENDMDL
MODEL 10
REMARK VINA RESULT:      -8.4      3.094      4.750
REMARK  5 active torsions:
REMARK  status: ('A' for Active; 'I' for Inactive)
REMARK    1  A    between atoms: C_9  and  C_10 
REMARK       I    between atoms: C_10  and  N_11 
REMARK    2  A    between atoms: N_11  and  C_12 
REMARK    3  A    between atoms: C_12  and  C_13 
REMARK    4  A    between atoms: C_15  and  O_16 
REMARK    5  A    between atoms: O_16  and  C_17 
ROOT
HETATM    1  C   UNL     1      27.462  42.347  51.655  1.00  0.00     0.273 C 
HETATM    2  N   UNL     1      26.131  42.665  51.806  1.00  0.00    -0.351 N 
HETATM    3  O   UNL     1      27.917  41.797  50.657  1.00  0.00    -0.266 OA
HETATM    4  H   UNL     1      25.876  43.064  52.705  1.00  0.00     0.163 HD
ENDROOT
BRANCH   2   5
HETATM    5  C   UNL     1      25.133  42.358  50.820  1.00  0.00     0.161 C 
BRANCH   5   6
HETATM    6  C   UNL     1      24.472  43.601  50.294  1.00  0.00    -0.035 A 
HETATM    7  C   UNL     1      25.060  44.854  50.486  1.00  0.00     0.066 A 
HETATM    8  C   UNL     1      24.408  45.980  50.008  1.00  0.00     0.164 A 
HETATM    9  N   UNL     1      23.239  45.939  49.336  1.00  0.00    -0.237 NA
HETATM   10  C   UNL     1      22.702  44.717  49.132  1.00  0.00     0.120 A 
HETATM   11  C   UNL     1      23.270  43.536  49.585  1.00  0.00     0.028 A 
BRANCH   8  12
HETATM   12  O   UNL     1      25.025  47.190  50.253  1.00  0.00    -0.329 OA
BRANCH  12  13
HETATM   13  C   UNL     1      25.652  47.781  49.117  1.00  0.00     0.130 C 
HETATM   14  C   UNL     1      25.123  49.190  48.842  1.00  0.00     0.032 C 
HETATM   15  C   UNL     1      26.308  49.906  48.223  1.00  0.00     0.002 C 
HETATM   16  C   UNL     1      27.472  49.434  49.078  1.00  0.00     0.002 C 
HETATM   17  C   UNL     1      27.148  47.981  49.422  1.00  0.00     0.032 C 
ENDBRANCH  12  13
ENDBRANCH   8  12
ENDBRANCH   5   6
ENDBRANCH   2   5
BRANCH   1  18
HETATM   18  C   UNL     1      28.283  42.749  52.809  1.00  0.00     0.157 A 
HETATM   19  C   UNL     1      28.203  43.966  53.548  1.00  0.00     0.029 A 
HETATM   20  C   UNL     1      27.427  45.142  53.488  1.00  0.00     0.023 A 
HETATM   21  C   UNL     1      29.164  43.850  54.543  1.00  0.00     0.063 A 
HETATM   22  C   UNL     1      27.647  46.166  54.426  1.00  0.00    -0.061 A 
HETATM   23  C   UNL     1      26.831  47.426  54.381  1.00  0.00     0.048 C 
HETATM   24  C   UNL     1      28.621  46.001  55.420  1.00  0.00     0.009 A 
HETATM   25  C   UNL     1      29.400  44.842  55.499  1.00  0.00     0.032 A 
HETATM   26  N   UNL     1      29.744  42.628  54.343  1.00  0.00    -0.277 N 
HETATM   27  H   UNL     1      30.489  42.208  54.887  1.00  0.00     0.189 HD
HETATM   28  N   UNL     1      29.244  41.936  53.304  1.00  0.00    -0.168 NA
ENDBRANCH   1  18
TORSDOF 5
ENDMDL
