MODEL 1
REMARK VINA RESULT:      -9.7      0.000      0.000
REMARK  4 active torsions:
REMARK  status: ('A' for Active; 'I' for Inactive)
REMARK    1  A    between atoms: C_3  and  N_4 
REMARK       I    between atoms: N_4  and  C_5 
REMARK    2  A    between atoms: C_5  and  C_6 
REMARK    3  A    between atoms: C_7  and  C_8 
REMARK    4  A    between atoms: C_11  and  O_12 
ROOT
HETATM    1  C   UNL     1      27.153  42.746  52.232  1.00  0.00     0.062 C 
HETATM    2  C   UNL     1      25.856  43.372  51.744  1.00  0.00     0.202 C 
HETATM    3  N   UNL     1      25.272  42.575  50.663  1.00  0.00    -0.083 N 
HETATM    4  C   UNL     1      25.957  41.612  49.972  1.00  0.00     0.726 A 
HETATM    5  N   UNL     1      27.223  41.317  50.333  1.00  0.00    -0.192 N 
HETATM    6  N   UNL     1      23.993  42.670  50.249  1.00  0.00    -0.141 NA
HETATM    7  C   UNL     1      23.987  41.768  49.255  1.00  0.00     0.162 A 
HETATM    8  C   UNL     1      22.781  41.483  48.451  1.00  0.00     0.096 C 
HETATM    9  N   UNL     1      25.174  41.098  49.058  1.00  0.00    -0.046 NA
HETATM   10  C   UNL     1      27.780  41.771  51.527  1.00  0.00     0.037 C 
HETATM   11  C   UNL     1      29.054  41.092  51.963  1.00  0.00     0.070 C 
HETATM   12  H   UNL     1      27.657  40.501  49.905  1.00  0.00     0.184 HD
ENDROOT
BRANCH   1  13
HETATM   13  C   UNL     1      27.567  43.060  53.622  1.00  0.00     0.256 C 
HETATM   14  N   UNL     1      28.673  43.875  53.700  1.00  0.00    -0.323 N 
HETATM   15  H   UNL     1      29.091  44.170  52.828  1.00  0.00     0.169 HD
HETATM   16  O   UNL     1      26.908  42.595  54.545  1.00  0.00    -0.267 OA
BRANCH  14  17
HETATM   17  C   UNL     1      29.299  44.364  54.875  1.00  0.00     0.041 A 
HETATM   18  C   UNL     1      28.793  45.535  55.483  1.00  0.00    -0.035 A 
HETATM   19  C   UNL     1      27.597  46.276  54.948  1.00  0.00     0.050 C 
HETATM   20  C   UNL     1      29.401  46.024  56.655  1.00  0.00     0.009 A 
HETATM   21  C   UNL     1      30.498  45.375  57.218  1.00  0.00     0.001 A 
HETATM   22  C   UNL     1      30.999  44.228  56.618  1.00  0.00     0.002 A 
HETATM   23  C   UNL     1      30.403  43.728  55.457  1.00  0.00     0.030 A 
ENDBRANCH  14  17
ENDBRANCH   1  13
BRANCH   2  24
HETATM   24  C   UNL     1      26.038  44.810  51.258  1.00  0.00    -0.028 A 
HETATM   25  C   UNL     1      26.743  45.104  50.078  1.00  0.00     0.012 A 
HETATM   26  C   UNL     1      26.878  46.423  49.640  1.00  0.00     0.037 A 
HETATM   27  C   UNL     1      26.296  47.471  50.354  1.00  0.00     0.068 A 
HETATM   28  C   UNL     1      25.599  47.193  51.527  1.00  0.00     0.037 A 
HETATM   29  C   UNL     1      25.470  45.872  51.977  1.00  0.00     0.012 A 
BRANCH  27  30
HETATM   30  O   UNL     1      26.490  48.711  49.811  1.00  0.00    -0.356 OA
HETATM   31  C   UNL     1      27.719  48.916  49.124  1.00  0.00     0.210 C 
ENDBRANCH  27  30
ENDBRANCH   2  24
TORSDOF 4
ENDMDL
MODEL 2
REMARK VINA RESULT:      -9.7      0.449      1.283
REMARK  4 active torsions:
REMARK  status: ('A' for Active; 'I' for Inactive)
REMARK    1  A    between atoms: C_3  and  N_4 
REMARK       I    between atoms: N_4  and  C_5 
REMARK    2  A    between atoms: C_5  and  C_6 
REMARK    3  A    between atoms: C_7  and  C_8 
REMARK    4  A    between atoms: C_11  and  O_12 
ROOT
HETATM    1  C   UNL     1      26.998  42.865  52.373  1.00  0.00     0.062 C 
HETATM    2  C   UNL     1      25.739  43.446  51.748  1.00  0.00     0.202 C 
HETATM    3  N   UNL     1      25.249  42.580  50.673  1.00  0.00    -0.083 N 
HETATM    4  C   UNL     1      25.992  41.586  50.097  1.00  0.00     0.726 A 
HETATM    5  N   UNL     1      27.228  41.328  50.573  1.00  0.00    -0.192 N 
HETATM    6  N   UNL     1      24.005  42.635  50.155  1.00  0.00    -0.141 NA
HETATM    7  C   UNL     1      24.084  41.676  49.220  1.00  0.00     0.162 A 
HETATM    8  C   UNL     1      22.948  41.331  48.341  1.00  0.00     0.096 C 
HETATM    9  N   UNL     1      25.288  41.010  49.156  1.00  0.00    -0.046 NA
HETATM   10  C   UNL     1      27.686  41.858  51.778  1.00  0.00     0.037 C 
HETATM   11  C   UNL     1      28.926  41.221  52.353  1.00  0.00     0.070 C 
HETATM   12  H   UNL     1      27.700  40.494  50.230  1.00  0.00     0.184 HD
ENDROOT
BRANCH   1  13
HETATM   13  C   UNL     1      27.298  43.266  53.769  1.00  0.00     0.256 C 
HETATM   14  N   UNL     1      28.307  44.196  53.874  1.00  0.00    -0.323 N 
HETATM   15  H   UNL     1      28.740  44.506  53.015  1.00  0.00     0.169 HD
HETATM   16  O   UNL     1      26.642  42.763  54.673  1.00  0.00    -0.267 OA
BRANCH  14  17
HETATM   17  C   UNL     1      28.812  44.786  55.061  1.00  0.00     0.041 A 
HETATM   18  C   UNL     1      30.035  44.319  55.591  1.00  0.00    -0.035 A 
HETATM   19  C   UNL     1      30.842  43.232  54.932  1.00  0.00     0.050 C 
HETATM   20  C   UNL     1      30.550  44.904  56.763  1.00  0.00     0.009 A 
HETATM   21  C   UNL     1      29.867  45.929  57.413  1.00  0.00     0.001 A 
HETATM   22  C   UNL     1      28.662  46.385  56.896  1.00  0.00     0.002 A 
HETATM   23  C   UNL     1      28.141  45.819  55.730  1.00  0.00     0.030 A 
ENDBRANCH  14  17
ENDBRANCH   1  13
BRANCH   2  24
HETATM   24  C   UNL     1      25.949  44.855  51.192  1.00  0.00    -0.028 A 
HETATM   25  C   UNL     1      26.757  45.090  50.066  1.00  0.00     0.012 A 
HETATM   26  C   UNL     1      26.916  46.382  49.562  1.00  0.00     0.037 A 
HETATM   27  C   UNL     1      26.259  47.461  50.153  1.00  0.00     0.068 A 
HETATM   28  C   UNL     1      25.459  47.242  51.273  1.00  0.00     0.037 A 
HETATM   29  C   UNL     1      25.305  45.949  51.789  1.00  0.00     0.012 A 
BRANCH  27  30
HETATM   30  O   UNL     1      26.488  48.669  49.554  1.00  0.00    -0.356 OA
HETATM   31  C   UNL     1      27.828  48.933  49.156  1.00  0.00     0.210 C 
ENDBRANCH  27  30
ENDBRANCH   2  24
TORSDOF 4
ENDMDL
MODEL 3
REMARK VINA RESULT:      -8.9      1.166      1.927
REMARK  4 active torsions:
REMARK  status: ('A' for Active; 'I' for Inactive)
REMARK    1  A    between atoms: C_3  and  N_4 
REMARK       I    between atoms: N_4  and  C_5 
REMARK    2  A    between atoms: C_5  and  C_6 
REMARK    3  A    between atoms: C_7  and  C_8 
REMARK    4  A    between atoms: C_11  and  O_12 
ROOT
HETATM    1  C   UNL     1      26.453  43.447  51.573  1.00  0.00     0.062 C 
HETATM    2  C   UNL     1      25.358  44.261  50.901  1.00  0.00     0.202 C 
HETATM    3  N   UNL     1      24.749  43.504  49.806  1.00  0.00    -0.083 N 
HETATM    4  C   UNL     1      25.303  42.381  49.256  1.00  0.00     0.726 A 
HETATM    5  N   UNL     1      26.445  41.886  49.779  1.00  0.00    -0.192 N 
HETATM    6  N   UNL     1      23.562  43.801  49.240  1.00  0.00    -0.141 NA
HETATM    7  C   UNL     1      23.486  42.840  48.306  1.00  0.00     0.162 A 
HETATM    8  C   UNL     1      22.339  42.721  47.383  1.00  0.00     0.096 C 
HETATM    9  N   UNL     1      24.536  41.950  48.287  1.00  0.00    -0.046 NA
HETATM   10  C   UNL     1      26.952  42.321  51.002  1.00  0.00     0.037 C 
HETATM   11  C   UNL     1      28.018  41.455  51.623  1.00  0.00     0.070 C 
HETATM   12  H   UNL     1      26.756  40.974  49.451  1.00  0.00     0.184 HD
ENDROOT
BRANCH   1  13
HETATM   13  C   UNL     1      26.772  43.787  52.981  1.00  0.00     0.256 C 
HETATM   14  N   UNL     1      28.016  44.351  53.147  1.00  0.00    -0.323 N 
HETATM   15  H   UNL     1      28.583  44.472  52.318  1.00  0.00     0.169 HD
HETATM   16  O   UNL     1      25.930  43.556  53.841  1.00  0.00    -0.267 OA
BRANCH  14  17
HETATM   17  C   UNL     1      28.604  44.796  54.358  1.00  0.00     0.041 A 
HETATM   18  C   UNL     1      29.743  44.124  54.855  1.00  0.00    -0.035 A 
HETATM   19  C   UNL     1      30.377  42.963  54.137  1.00  0.00     0.050 C 
HETATM   20  C   UNL     1      30.339  44.564  56.052  1.00  0.00     0.009 A 
HETATM   21  C   UNL     1      29.817  45.646  56.757  1.00  0.00     0.001 A 
HETATM   22  C   UNL     1      28.695  46.304  56.273  1.00  0.00     0.002 A 
HETATM   23  C   UNL     1      28.095  45.882  55.084  1.00  0.00     0.030 A 
ENDBRANCH  14  17
ENDBRANCH   1  13
BRANCH   2  24
HETATM   24  C   UNL     1      25.863  45.598  50.359  1.00  0.00    -0.028 A 
HETATM   25  C   UNL     1      25.095  46.771  50.459  1.00  0.00     0.012 A 
HETATM   26  C   UNL     1      25.585  47.986  49.978  1.00  0.00     0.037 A 
HETATM   27  C   UNL     1      26.855  48.063  49.407  1.00  0.00     0.068 A 
HETATM   28  C   UNL     1      27.625  46.907  49.297  1.00  0.00     0.037 A 
HETATM   29  C   UNL     1      27.134  45.683  49.769  1.00  0.00     0.012 A 
BRANCH  27  30
HETATM   30  O   UNL     1      27.221  49.313  48.989  1.00  0.00    -0.356 OA
HETATM   31  C   UNL     1      26.317  49.975  48.112  1.00  0.00     0.210 C 
ENDBRANCH  27  30
ENDBRANCH   2  24
TORSDOF 4
ENDMDL
MODEL 4
REMARK VINA RESULT:      -8.8      1.952      6.136
REMARK  4 active torsions:
REMARK  status: ('A' for Active; 'I' for Inactive)
REMARK    1  A    between atoms: C_3  and  N_4 
REMARK       I    between atoms: N_4  and  C_5 
REMARK    2  A    between atoms: C_5  and  C_6 
REMARK    3  A    between atoms: C_7  and  C_8 
REMARK    4  A    between atoms: C_11  and  O_12 
ROOT
HETATM    1  C   UNL     1      26.364  44.358  51.477  1.00  0.00     0.062 C 
HETATM    2  C   UNL     1      27.676  43.605  51.327  1.00  0.00     0.202 C 
HETATM    3  N   UNL     1      27.431  42.212  50.945  1.00  0.00    -0.083 N 
HETATM    4  C   UNL     1      26.212  41.599  51.042  1.00  0.00     0.726 A 
HETATM    5  N   UNL     1      25.144  42.316  51.449  1.00  0.00    -0.192 N 
HETATM    6  N   UNL     1      28.362  41.388  50.424  1.00  0.00    -0.141 NA
HETATM    7  C   UNL     1      27.646  40.263  50.281  1.00  0.00     0.162 A 
HETATM    8  C   UNL     1      28.224  39.019  49.734  1.00  0.00     0.096 C 
HETATM    9  N   UNL     1      26.321  40.355  50.649  1.00  0.00    -0.046 NA
HETATM   10  C   UNL     1      25.174  43.707  51.539  1.00  0.00     0.037 C 
HETATM   11  C   UNL     1      23.836  44.392  51.664  1.00  0.00     0.070 C 
HETATM   12  H   UNL     1      24.227  41.881  51.371  1.00  0.00     0.184 HD
ENDROOT
BRANCH   1  13
HETATM   13  C   UNL     1      26.413  45.830  51.301  1.00  0.00     0.256 C 
HETATM   14  N   UNL     1      26.411  46.231  49.984  1.00  0.00    -0.323 N 
HETATM   15  H   UNL     1      26.383  45.505  49.281  1.00  0.00     0.169 HD
HETATM   16  O   UNL     1      26.439  46.536  52.302  1.00  0.00    -0.267 OA
BRANCH  14  17
HETATM   17  C   UNL     1      26.435  47.560  49.491  1.00  0.00     0.041 A 
HETATM   18  C   UNL     1      25.212  48.208  49.209  1.00  0.00    -0.035 A 
HETATM   19  C   UNL     1      23.875  47.553  49.434  1.00  0.00     0.050 C 
HETATM   20  C   UNL     1      25.224  49.531  48.728  1.00  0.00     0.009 A 
HETATM   21  C   UNL     1      26.424  50.206  48.517  1.00  0.00     0.001 A 
HETATM   22  C   UNL     1      27.626  49.568  48.788  1.00  0.00     0.002 A 
HETATM   23  C   UNL     1      27.631  48.257  49.272  1.00  0.00     0.030 A 
ENDBRANCH  14  17
ENDBRANCH   1  13
BRANCH   2  24
HETATM   24  C   UNL     1      28.522  43.629  52.600  1.00  0.00    -0.028 A 
HETATM   25  C   UNL     1      28.109  44.330  53.746  1.00  0.00     0.012 A 
HETATM   26  C   UNL     1      28.887  44.319  54.905  1.00  0.00     0.037 A 
HETATM   27  C   UNL     1      30.077  43.594  54.955  1.00  0.00     0.068 A 
HETATM   28  C   UNL     1      30.501  42.899  53.824  1.00  0.00     0.037 A 
HETATM   29  C   UNL     1      29.729  42.915  52.655  1.00  0.00     0.012 A 
BRANCH  27  30
HETATM   30  O   UNL     1      30.736  43.655  56.152  1.00  0.00    -0.356 OA
HETATM   31  C   UNL     1      30.633  44.879  56.869  1.00  0.00     0.210 C 
ENDBRANCH  27  30
ENDBRANCH   2  24
TORSDOF 4
ENDMDL
MODEL 5
REMARK VINA RESULT:      -8.3      1.632      2.078
REMARK  4 active torsions:
REMARK  status: ('A' for Active; 'I' for Inactive)
REMARK    1  A    between atoms: C_3  and  N_4 
REMARK       I    between atoms: N_4  and  C_5 
REMARK    2  A    between atoms: C_5  and  C_6 
REMARK    3  A    between atoms: C_7  and  C_8 
REMARK    4  A    between atoms: C_11  and  O_12 
ROOT
HETATM    1  C   UNL     1      26.616  42.413  50.047  1.00  0.00     0.062 C 
HETATM    2  C   UNL     1      25.297  43.166  49.967  1.00  0.00     0.202 C 
HETATM    3  N   UNL     1      24.534  42.748  48.789  1.00  0.00    -0.083 N 
HETATM    4  C   UNL     1      25.070  42.045  47.745  1.00  0.00     0.726 A 
HETATM    5  N   UNL     1      26.358  41.647  47.811  1.00  0.00    -0.192 N 
HETATM    6  N   UNL     1      23.217  42.973  48.613  1.00  0.00    -0.141 NA
HETATM    7  C   UNL     1      23.031  42.425  47.402  1.00  0.00     0.162 A 
HETATM    8  C   UNL     1      21.716  42.410  46.731  1.00  0.00     0.096 C 
HETATM    9  N   UNL     1      24.147  41.844  46.839  1.00  0.00    -0.046 NA
HETATM   10  C   UNL     1      27.094  41.704  48.994  1.00  0.00     0.037 C 
HETATM   11  C   UNL     1      28.380  40.917  49.012  1.00  0.00     0.070 C 
HETATM   12  H   UNL     1      26.689  41.003  47.095  1.00  0.00     0.184 HD
ENDROOT
BRANCH   1  13
HETATM   13  C   UNL     1      27.229  42.277  51.391  1.00  0.00     0.256 C 
HETATM   14  N   UNL     1      28.054  43.325  51.733  1.00  0.00    -0.323 N 
HETATM   15  H   UNL     1      28.166  44.064  51.053  1.00  0.00     0.169 HD
HETATM   16  O   UNL     1      26.952  41.289  52.061  1.00  0.00    -0.267 OA
BRANCH  14  17
HETATM   17  C   UNL     1      28.768  43.496  52.946  1.00  0.00     0.041 A 
HETATM   18  C   UNL     1      28.326  44.469  53.869  1.00  0.00    -0.035 A 
HETATM   19  C   UNL     1      27.108  45.320  53.630  1.00  0.00     0.050 C 
HETATM   20  C   UNL     1      29.022  44.640  55.081  1.00  0.00     0.009 A 
HETATM   21  C   UNL     1      30.145  43.871  55.377  1.00  0.00     0.001 A 
HETATM   22  C   UNL     1      30.584  42.919  54.468  1.00  0.00     0.002 A 
HETATM   23  C   UNL     1      29.900  42.733  53.264  1.00  0.00     0.030 A 
ENDBRANCH  14  17
ENDBRANCH   1  13
BRANCH   2  24
HETATM   24  C   UNL     1      25.482  44.683  49.926  1.00  0.00    -0.028 A 
HETATM   25  C   UNL     1      26.703  45.266  49.548  1.00  0.00     0.012 A 
HETATM   26  C   UNL     1      26.843  46.654  49.495  1.00  0.00     0.037 A 
HETATM   27  C   UNL     1      25.766  47.488  49.795  1.00  0.00     0.068 A 
HETATM   28  C   UNL     1      24.551  46.922  50.176  1.00  0.00     0.037 A 
HETATM   29  C   UNL     1      24.408  45.530  50.241  1.00  0.00     0.012 A 
BRANCH  27  30
HETATM   30  O   UNL     1      26.030  48.826  49.691  1.00  0.00    -0.356 OA
HETATM   31  C   UNL     1      27.166  49.187  48.914  1.00  0.00     0.210 C 
ENDBRANCH  27  30
ENDBRANCH   2  24
TORSDOF 4
ENDMDL
MODEL 6
REMARK VINA RESULT:      -8.2      4.152      8.227
REMARK  4 active torsions:
REMARK  status: ('A' for Active; 'I' for Inactive)
REMARK    1  A    between atoms: C_3  and  N_4 
REMARK       I    between atoms: N_4  and  C_5 
REMARK    2  A    between atoms: C_5  and  C_6 
REMARK    3  A    between atoms: C_7  and  C_8 
REMARK    4  A    between atoms: C_11  and  O_12 
ROOT
HETATM    1  C   UNL     1      24.328  46.619  49.806  1.00  0.00     0.062 C 
HETATM    2  C   UNL     1      23.968  45.369  50.593  1.00  0.00     0.202 C 
HETATM    3  N   UNL     1      24.871  45.198  51.733  1.00  0.00    -0.083 N 
HETATM    4  C   UNL     1      26.058  45.865  51.872  1.00  0.00     0.726 A 
HETATM    5  N   UNL     1      26.407  46.786  50.949  1.00  0.00    -0.192 N 
HETATM    6  N   UNL     1      24.624  44.397  52.790  1.00  0.00    -0.141 NA
HETATM    7  C   UNL     1      25.742  44.585  53.509  1.00  0.00     0.162 A 
HETATM    8  C   UNL     1      25.976  43.909  54.801  1.00  0.00     0.096 C 
HETATM    9  N   UNL     1      26.643  45.481  52.977  1.00  0.00    -0.046 NA
HETATM   10  C   UNL     1      25.506  47.265  49.999  1.00  0.00     0.037 C 
HETATM   11  C   UNL     1      25.916  48.520  49.272  1.00  0.00     0.070 C 
HETATM   12  H   UNL     1      27.216  47.370  51.150  1.00  0.00     0.184 HD
ENDROOT
BRANCH   1  13
HETATM   13  C   UNL     1      23.244  47.244  49.009  1.00  0.00     0.256 C 
HETATM   14  N   UNL     1      22.588  48.260  49.666  1.00  0.00    -0.323 N 
HETATM   15  H   UNL     1      22.894  48.476  50.605  1.00  0.00     0.169 HD
HETATM   16  O   UNL     1      23.039  46.826  47.875  1.00  0.00    -0.267 OA
BRANCH  14  17
HETATM   17  C   UNL     1      21.525  49.058  49.171  1.00  0.00     0.041 A 
HETATM   18  C   UNL     1      21.789  50.395  48.798  1.00  0.00    -0.035 A 
HETATM   19  C   UNL     1      23.162  51.005  48.881  1.00  0.00     0.050 C 
HETATM   20  C   UNL     1      20.743  51.193  48.296  1.00  0.00     0.009 A 
HETATM   21  C   UNL     1      19.451  50.686  48.172  1.00  0.00     0.001 A 
HETATM   22  C   UNL     1      19.190  49.374  48.543  1.00  0.00     0.002 A 
HETATM   23  C   UNL     1      20.219  48.568  49.037  1.00  0.00     0.030 A 
ENDBRANCH  14  17
ENDBRANCH   1  13
BRANCH   2  24
HETATM   24  C   UNL     1      24.001  44.101  49.740  1.00  0.00    -0.028 A 
HETATM   25  C   UNL     1      25.209  43.573  49.252  1.00  0.00     0.012 A 
HETATM   26  C   UNL     1      25.219  42.401  48.494  1.00  0.00     0.037 A 
HETATM   27  C   UNL     1      24.032  41.720  48.224  1.00  0.00     0.068 A 
HETATM   28  C   UNL     1      22.827  42.236  48.697  1.00  0.00     0.037 A 
HETATM   29  C   UNL     1      22.810  43.417  49.449  1.00  0.00     0.012 A 
BRANCH  27  30
HETATM   30  O   UNL     1      24.181  40.580  47.484  1.00  0.00    -0.356 OA
HETATM   31  C   UNL     1      25.424  39.900  47.614  1.00  0.00     0.210 C 
ENDBRANCH  27  30
ENDBRANCH   2  24
TORSDOF 4
ENDMDL
MODEL 7
REMARK VINA RESULT:      -7.8      3.423      7.175
REMARK  4 active torsions:
REMARK  status: ('A' for Active; 'I' for Inactive)
REMARK    1  A    between atoms: C_3  and  N_4 
REMARK       I    between atoms: N_4  and  C_5 
REMARK    2  A    between atoms: C_5  and  C_6 
REMARK    3  A    between atoms: C_7  and  C_8 
REMARK    4  A    between atoms: C_11  and  O_12 
ROOT
HETATM    1  C   UNL     1      23.373  45.185  48.920  1.00  0.00     0.062 C 
HETATM    2  C   UNL     1      24.842  45.109  49.305  1.00  0.00     0.202 C 
HETATM    3  N   UNL     1      25.323  43.727  49.236  1.00  0.00    -0.083 N 
HETATM    4  C   UNL     1      24.500  42.637  49.169  1.00  0.00     0.726 A 
HETATM    5  N   UNL     1      23.165  42.823  49.095  1.00  0.00    -0.192 N 
HETATM    6  N   UNL     1      26.623  43.372  49.195  1.00  0.00    -0.141 NA
HETATM    7  C   UNL     1      26.514  42.035  49.162  1.00  0.00     0.162 A 
HETATM    8  C   UNL     1      27.691  41.145  49.112  1.00  0.00     0.096 C 
HETATM    9  N   UNL     1      25.225  41.548  49.143  1.00  0.00    -0.046 NA
HETATM   10  C   UNL     1      22.602  44.072  48.836  1.00  0.00     0.037 C 
HETATM   11  C   UNL     1      21.148  44.073  48.439  1.00  0.00     0.070 C 
HETATM   12  H   UNL     1      22.587  42.009  48.897  1.00  0.00     0.184 HD
ENDROOT
BRANCH   1  13
HETATM   13  C   UNL     1      22.885  46.485  48.397  1.00  0.00     0.256 C 
HETATM   14  N   UNL     1      22.623  47.414  49.377  1.00  0.00    -0.323 N 
HETATM   15  H   UNL     1      22.779  47.130  50.335  1.00  0.00     0.169 HD
HETATM   16  O   UNL     1      22.770  46.619  47.184  1.00  0.00    -0.267 OA
BRANCH  14  17
HETATM   17  C   UNL     1      22.164  48.744  49.200  1.00  0.00     0.041 A 
HETATM   18  C   UNL     1      23.098  49.755  48.885  1.00  0.00    -0.035 A 
HETATM   19  C   UNL     1      24.567  49.475  48.703  1.00  0.00     0.050 C 
HETATM   20  C   UNL     1      22.652  51.077  48.697  1.00  0.00     0.009 A 
HETATM   21  C   UNL     1      21.304  51.403  48.828  1.00  0.00     0.001 A 
HETATM   22  C   UNL     1      20.386  50.412  49.144  1.00  0.00     0.002 A 
HETATM   23  C   UNL     1      20.813  49.094  49.327  1.00  0.00     0.030 A 
ENDBRANCH  14  17
ENDBRANCH   1  13
BRANCH   2  24
HETATM   24  C   UNL     1      25.118  45.661  50.703  1.00  0.00    -0.028 A 
HETATM   25  C   UNL     1      24.726  44.966  51.860  1.00  0.00     0.012 A 
HETATM   26  C   UNL     1      25.009  45.478  53.127  1.00  0.00     0.037 A 
HETATM   27  C   UNL     1      25.705  46.678  53.270  1.00  0.00     0.068 A 
HETATM   28  C   UNL     1      26.095  47.380  52.131  1.00  0.00     0.037 A 
HETATM   29  C   UNL     1      25.804  46.876  50.856  1.00  0.00     0.012 A 
BRANCH  27  30
HETATM   30  O   UNL     1      25.929  47.061  54.563  1.00  0.00    -0.356 OA
HETATM   31  C   UNL     1      27.274  47.378  54.903  1.00  0.00     0.210 C 
ENDBRANCH  27  30
ENDBRANCH   2  24
TORSDOF 4
ENDMDL
MODEL 8
REMARK VINA RESULT:      -7.7      3.216      7.046
REMARK  4 active torsions:
REMARK  status: ('A' for Active; 'I' for Inactive)
REMARK    1  A    between atoms: C_3  and  N_4 
REMARK       I    between atoms: N_4  and  C_5 
REMARK    2  A    between atoms: C_5  and  C_6 
REMARK    3  A    between atoms: C_7  and  C_8 
REMARK    4  A    between atoms: C_11  and  O_12 
ROOT
HETATM    1  C   UNL     1      27.167  41.686  50.264  1.00  0.00     0.062 C 
HETATM    2  C   UNL     1      27.895  42.935  50.736  1.00  0.00     0.202 C 
HETATM    3  N   UNL     1      28.444  42.737  52.079  1.00  0.00    -0.083 N 
HETATM    4  C   UNL     1      28.071  41.718  52.912  1.00  0.00     0.726 A 
HETATM    5  N   UNL     1      27.196  40.791  52.468  1.00  0.00    -0.192 N 
HETATM    6  N   UNL     1      29.400  43.508  52.634  1.00  0.00    -0.141 NA
HETATM    7  C   UNL     1      29.518  42.928  53.839  1.00  0.00     0.162 A 
HETATM    8  C   UNL     1      30.464  43.414  54.863  1.00  0.00     0.096 C 
HETATM    9  N   UNL     1      28.719  41.825  54.044  1.00  0.00    -0.046 NA
HETATM   10  C   UNL     1      26.844  40.686  51.123  1.00  0.00     0.037 C 
HETATM   11  C   UNL     1      26.145  39.412  50.720  1.00  0.00     0.070 C 
HETATM   12  H   UNL     1      27.048  39.967  53.047  1.00  0.00     0.184 HD
ENDROOT
BRANCH   1  13
HETATM   13  C   UNL     1      27.051  41.491  48.798  1.00  0.00     0.256 C 
HETATM   14  N   UNL     1      27.974  40.611  48.281  1.00  0.00    -0.323 N 
HETATM   15  H   UNL     1      28.629  40.195  48.930  1.00  0.00     0.169 HD
HETATM   16  O   UNL     1      26.172  42.099  48.198  1.00  0.00    -0.267 OA
BRANCH  14  17
HETATM   17  C   UNL     1      28.111  40.205  46.929  1.00  0.00     0.041 A 
HETATM   18  C   UNL     1      28.126  38.825  46.627  1.00  0.00    -0.035 A 
HETATM   19  C   UNL     1      27.977  37.761  47.682  1.00  0.00     0.050 C 
HETATM   20  C   UNL     1      28.251  38.411  45.287  1.00  0.00     0.009 A 
HETATM   21  C   UNL     1      28.370  39.342  44.258  1.00  0.00     0.001 A 
HETATM   22  C   UNL     1      28.361  40.698  44.554  1.00  0.00     0.002 A 
HETATM   23  C   UNL     1      28.231  41.124  45.879  1.00  0.00     0.030 A 
ENDBRANCH  14  17
ENDBRANCH   1  13
BRANCH   2  24
HETATM   24  C   UNL     1      27.001  44.174  50.743  1.00  0.00    -0.028 A 
HETATM   25  C   UNL     1      25.954  44.322  51.670  1.00  0.00     0.012 A 
HETATM   26  C   UNL     1      25.164  45.473  51.673  1.00  0.00     0.037 A 
HETATM   27  C   UNL     1      25.413  46.508  50.772  1.00  0.00     0.068 A 
HETATM   28  C   UNL     1      26.444  46.372  49.845  1.00  0.00     0.037 A 
HETATM   29  C   UNL     1      27.233  45.214  49.829  1.00  0.00     0.012 A 
BRANCH  27  30
HETATM   30  O   UNL     1      24.577  47.584  50.889  1.00  0.00    -0.356 OA
HETATM   31  C   UNL     1      23.875  47.970  49.714  1.00  0.00     0.210 C 
ENDBRANCH  27  30
ENDBRANCH   2  24
TORSDOF 4
ENDMDL
MODEL 9
REMARK VINA RESULT:      -7.7      3.029      5.842
REMARK  4 active torsions:
REMARK  status: ('A' for Active; 'I' for Inactive)
REMARK    1  A    between atoms: C_3  and  N_4 
REMARK       I    between atoms: N_4  and  C_5 
REMARK    2  A    between atoms: C_5  and  C_6 
REMARK    3  A    between atoms: C_7  and  C_8 
REMARK    4  A    between atoms: C_11  and  O_12 
ROOT
HETATM    1  C   UNL     1      26.174  42.222  49.469  1.00  0.00     0.062 C 
HETATM    2  C   UNL     1      26.869  41.388  48.404  1.00  0.00     0.202 C 
HETATM    3  N   UNL     1      25.967  41.134  47.277  1.00  0.00    -0.083 N 
HETATM    4  C   UNL     1      24.613  41.325  47.328  1.00  0.00     0.726 A 
HETATM    5  N   UNL     1      24.061  41.837  48.448  1.00  0.00    -0.192 N 
HETATM    6  N   UNL     1      26.366  40.721  46.058  1.00  0.00    -0.141 NA
HETATM    7  C   UNL     1      25.184  40.625  45.429  1.00  0.00     0.162 A 
HETATM    8  C   UNL     1      25.068  40.195  44.022  1.00  0.00     0.096 C 
HETATM    9  N   UNL     1      24.086  40.989  46.177  1.00  0.00    -0.046 NA
HETATM   10  C   UNL     1      24.830  42.408  49.461  1.00  0.00     0.037 C 
HETATM   11  C   UNL     1      24.081  43.240  50.471  1.00  0.00     0.070 C 
HETATM   12  H   UNL     1      23.080  42.106  48.408  1.00  0.00     0.184 HD
ENDROOT
BRANCH   1  13
HETATM   13  C   UNL     1      27.044  43.025  50.363  1.00  0.00     0.256 C 
HETATM   14  N   UNL     1      27.312  42.416  51.568  1.00  0.00    -0.323 N 
HETATM   15  H   UNL     1      26.899  41.508  51.729  1.00  0.00     0.169 HD
HETATM   16  O   UNL     1      27.442  44.113  49.965  1.00  0.00    -0.267 OA
BRANCH  14  17
HETATM   17  C   UNL     1      28.118  42.916  52.622  1.00  0.00     0.041 A 
HETATM   18  C   UNL     1      27.546  43.805  53.560  1.00  0.00    -0.035 A 
HETATM   19  C   UNL     1      26.102  44.226  53.501  1.00  0.00     0.050 C 
HETATM   20  C   UNL     1      28.334  44.299  54.616  1.00  0.00     0.009 A 
HETATM   21  C   UNL     1      29.672  43.934  54.744  1.00  0.00     0.001 A 
HETATM   22  C   UNL     1      30.237  43.065  53.820  1.00  0.00     0.002 A 
HETATM   23  C   UNL     1      29.466  42.561  52.770  1.00  0.00     0.030 A 
ENDBRANCH  14  17
ENDBRANCH   1  13
BRANCH   2  24
HETATM   24  C   UNL     1      27.382  40.051  48.938  1.00  0.00    -0.028 A 
HETATM   25  C   UNL     1      28.723  39.879  49.323  1.00  0.00     0.012 A 
HETATM   26  C   UNL     1      29.165  38.656  49.831  1.00  0.00     0.037 A 
HETATM   27  C   UNL     1      28.280  37.589  49.986  1.00  0.00     0.068 A 
HETATM   28  C   UNL     1      26.949  37.746  49.604  1.00  0.00     0.037 A 
HETATM   29  C   UNL     1      26.503  38.967  49.084  1.00  0.00     0.012 A 
BRANCH  27  30
HETATM   30  O   UNL     1      28.836  36.453  50.507  1.00  0.00    -0.356 OA
HETATM   31  C   UNL     1      29.849  36.639  51.489  1.00  0.00     0.210 C 
ENDBRANCH  27  30
ENDBRANCH   2  24
TORSDOF 4
ENDMDL
MODEL 10
REMARK VINA RESULT:      -7.6      5.603      8.841
REMARK  4 active torsions:
REMARK  status: ('A' for Active; 'I' for Inactive)
REMARK    1  A    between atoms: C_3  and  N_4 
REMARK       I    between atoms: N_4  and  C_5 
REMARK    2  A    between atoms: C_5  and  C_6 
REMARK    3  A    between atoms: C_7  and  C_8 
REMARK    4  A    between atoms: C_11  and  O_12 
ROOT
HETATM    1  C   UNL     1      20.950  46.965  47.873  1.00  0.00     0.062 C 
HETATM    2  C   UNL     1      21.248  48.040  48.906  1.00  0.00     0.202 C 
HETATM    3  N   UNL     1      20.288  49.141  48.798  1.00  0.00    -0.083 N 
HETATM    4  C   UNL     1      19.466  49.331  47.721  1.00  0.00     0.726 A 
HETATM    5  N   UNL     1      19.477  48.430  46.716  1.00  0.00    -0.192 N 
HETATM    6  N   UNL     1      20.077  50.066  49.755  1.00  0.00    -0.141 NA
HETATM    7  C   UNL     1      19.146  50.829  49.160  1.00  0.00     0.162 A 
HETATM    8  C   UNL     1      18.562  52.018  49.812  1.00  0.00     0.096 C 
HETATM    9  N   UNL     1      18.746  50.407  47.912  1.00  0.00    -0.046 NA
HETATM   10  C   UNL     1      20.103  47.191  46.836  1.00  0.00     0.037 C 
HETATM   11  C   UNL     1      19.745  46.164  45.792  1.00  0.00     0.070 C 
HETATM   12  H   UNL     1      18.757  48.513  46.001  1.00  0.00     0.184 HD
ENDROOT
BRANCH   1  13
HETATM   13  C   UNL     1      21.418  45.592  48.181  1.00  0.00     0.256 C 
HETATM   14  N   UNL     1      22.636  45.282  47.619  1.00  0.00    -0.323 N 
HETATM   15  H   UNL     1      23.081  45.996  47.060  1.00  0.00     0.169 HD
HETATM   16  O   UNL     1      20.715  44.882  48.891  1.00  0.00    -0.267 OA
BRANCH  14  17
HETATM   17  C   UNL     1      23.353  44.064  47.740  1.00  0.00     0.041 A 
HETATM   18  C   UNL     1      23.189  43.071  46.749  1.00  0.00    -0.035 A 
HETATM   19  C   UNL     1      22.298  43.260  45.551  1.00  0.00     0.050 C 
HETATM   20  C   UNL     1      23.904  41.863  46.854  1.00  0.00     0.009 A 
HETATM   21  C   UNL     1      24.763  41.629  47.926  1.00  0.00     0.001 A 
HETATM   22  C   UNL     1      24.921  42.602  48.903  1.00  0.00     0.002 A 
HETATM   23  C   UNL     1      24.223  43.809  48.809  1.00  0.00     0.030 A 
ENDBRANCH  14  17
ENDBRANCH   1  13
BRANCH   2  24
HETATM   24  C   UNL     1      22.664  48.603  48.783  1.00  0.00    -0.028 A 
HETATM   25  C   UNL     1      23.746  48.034  49.476  1.00  0.00     0.012 A 
HETATM   26  C   UNL     1      25.035  48.550  49.331  1.00  0.00     0.037 A 
HETATM   27  C   UNL     1      25.276  49.627  48.479  1.00  0.00     0.068 A 
HETATM   28  C   UNL     1      24.212  50.204  47.789  1.00  0.00     0.037 A 
HETATM   29  C   UNL     1      22.915  49.697  47.939  1.00  0.00     0.012 A 
BRANCH  27  30
HETATM   30  O   UNL     1      26.583  50.027  48.416  1.00  0.00    -0.356 OA
HETATM   31  C   UNL     1      27.530  49.198  49.079  1.00  0.00     0.210 C 
ENDBRANCH  27  30
ENDBRANCH   2  24
TORSDOF 4
ENDMDL
