MODEL 1
REMARK VINA RESULT:     -10.3      0.000      0.000
REMARK  7 active torsions:
REMARK  status: ('A' for Active; 'I' for Inactive)
REMARK    1  A    between atoms: N_2  and  C_4 
REMARK    2  A    between atoms: C_4  and  C_5 
REMARK    3  A    between atoms: C_5  and  C_6 
REMARK    4  A    between atoms: C_6  and  N_7 
REMARK    5  A    between atoms: N_7  and  C_8 
REMARK    6  A    between atoms: C_23  and  N_24 
REMARK    7  A    between atoms: N_27  and  C_29 
ROOT
HETATM    1  C   UNL     1      26.356  45.032  52.409  1.00  0.00     0.025 A 
HETATM    2  C   UNL     1      27.409  44.723  53.293  1.00  0.00     0.052 A 
HETATM    3  C   UNL     1      27.978  43.512  52.989  1.00  0.00     0.050 A 
HETATM    4  C   UNL     1      29.006  43.035  53.725  1.00  0.00     0.126 A 
HETATM    5  C   UNL     1      29.640  43.680  54.846  1.00  0.00     0.015 A 
HETATM    6  C   UNL     1      29.092  44.936  55.220  1.00  0.00     0.028 A 
HETATM    7  C   UNL     1      27.910  45.492  54.460  1.00  0.00     0.196 A 
HETATM    8  O   UNL     1      27.342  46.530  54.782  1.00  0.00    -0.287 OA
HETATM    9  C   UNL     1      30.730  43.159  55.539  1.00  0.00     0.015 A 
HETATM   10  C   UNL     1      31.275  43.887  56.602  1.00  0.00     0.001 A 
HETATM   11  C   UNL     1      30.735  45.124  56.971  1.00  0.00     0.001 A 
HETATM   12  C   UNL     1      29.640  45.653  56.283  1.00  0.00     0.016 A 
HETATM   13  C   UNL     1      27.691  42.585  51.961  1.00  0.00     0.125 A 
HETATM   14  N   UNL     1      28.525  41.528  52.131  1.00  0.00    -0.125 NA
HETATM   15  O   UNL     1      29.357  41.827  53.225  1.00  0.00    -0.211 OA
HETATM   16  C   UNL     1      26.662  42.862  51.011  1.00  0.00     0.064 A 
HETATM   17  C   UNL     1      26.043  44.140  51.303  1.00  0.00     0.056 A 
ENDROOT
BRANCH  16  18
HETATM   18  N   UNL     1      26.304  42.109  49.888  1.00  0.00    -0.376 N 
HETATM   19  C   UNL     1      25.429  40.939  50.060  1.00  0.00     0.150 C 
HETATM   20  C   UNL     1      26.256  39.649  50.259  1.00  0.00     0.255 C 
HETATM   21  N   UNL     1      27.262  39.430  49.113  1.00  0.00    -0.064 N 
HETATM   22  H   UNL     1      26.721  39.361  48.243  1.00  0.00     0.280 HD
HETATM   23  C   UNL     1      28.148  40.696  48.968  1.00  0.00     0.255 C 
HETATM   24  C   UNL     1      27.271  41.956  48.784  1.00  0.00     0.150 C 
BRANCH  21  25
HETATM   25  C   UNL     1      28.078  38.134  49.279  1.00  0.00     0.188 C 
HETATM   26  C   UNL     1      27.154  36.908  49.416  1.00  0.00     0.033 C 
HETATM   27  C   UNL     1      26.348  36.630  48.146  1.00  0.00     0.002 C 
HETATM   28  C   UNL     1      27.258  36.468  46.931  1.00  0.00     0.000 C 
HETATM   29  C   UNL     1      28.243  37.626  46.779  1.00  0.00     0.002 C 
HETATM   30  C   UNL     1      29.008  37.892  48.077  1.00  0.00     0.033 C 
ENDBRANCH  21  25
ENDBRANCH  16  18
BRANCH   1  31
HETATM   31  N   UNL     1      25.685  46.277  52.558  1.00  0.00    -0.292 NA
HETATM   32  H   UNL     1      25.003  46.157  53.329  1.00  0.00     0.127 HD
BRANCH  31  33
HETATM   33  C   UNL     1      25.084  46.847  51.358  1.00  0.00     0.094 C 
BRANCH  33  34
HETATM   34  C   UNL     1      26.134  47.633  50.566  1.00  0.00     0.042 C 
BRANCH  34  35
HETATM   35  C   UNL     1      25.578  48.180  49.252  1.00  0.00     0.235 C 
BRANCH  35  36
HETATM   36  N   UNL     1      26.666  48.898  48.467  1.00  0.00    -0.079 N 
HETATM   37  C   UNL     1      27.921  49.155  49.256  1.00  0.00     0.269 C 
HETATM   38  H   UNL     1      26.921  48.299  47.671  1.00  0.00     0.278 HD
HETATM   39  C   UNL     1      26.145  50.179  47.862  1.00  0.00     0.269 C 
ENDBRANCH  35  36
ENDBRANCH  34  35
ENDBRANCH  33  34
ENDBRANCH  31  33
ENDBRANCH   1  31
TORSDOF 7
ENDMDL
MODEL 2
REMARK VINA RESULT:      -9.4      4.048      9.162
REMARK  7 active torsions:
REMARK  status: ('A' for Active; 'I' for Inactive)
REMARK    1  A    between atoms: N_2  and  C_4 
REMARK    2  A    between atoms: C_4  and  C_5 
REMARK    3  A    between atoms: C_5  and  C_6 
REMARK    4  A    between atoms: C_6  and  N_7 
REMARK    5  A    between atoms: N_7  and  C_8 
REMARK    6  A    between atoms: C_23  and  N_24 
REMARK    7  A    between atoms: N_27  and  C_29 
ROOT
HETATM    1  C   UNL     1      22.715  45.137  48.998  1.00  0.00     0.025 A 
HETATM    2  C   UNL     1      22.023  46.280  48.551  1.00  0.00     0.052 A 
HETATM    3  C   UNL     1      22.725  47.427  48.825  1.00  0.00     0.050 A 
HETATM    4  C   UNL     1      22.228  48.634  48.476  1.00  0.00     0.126 A 
HETATM    5  C   UNL     1      20.987  48.893  47.791  1.00  0.00     0.015 A 
HETATM    6  C   UNL     1      20.205  47.746  47.487  1.00  0.00     0.028 A 
HETATM    7  C   UNL     1      20.694  46.377  47.899  1.00  0.00     0.196 A 
HETATM    8  O   UNL     1      20.031  45.358  47.737  1.00  0.00    -0.287 OA
HETATM    9  C   UNL     1      20.545  50.159  47.415  1.00  0.00     0.015 A 
HETATM   10  C   UNL     1      19.330  50.285  46.736  1.00  0.00     0.001 A 
HETATM   11  C   UNL     1      18.559  49.156  46.436  1.00  0.00     0.001 A 
HETATM   12  C   UNL     1      18.992  47.882  46.811  1.00  0.00     0.016 A 
HETATM   13  C   UNL     1      23.984  47.620  49.440  1.00  0.00     0.125 A 
HETATM   14  N   UNL     1      24.199  48.958  49.500  1.00  0.00    -0.125 NA
HETATM   15  O   UNL     1      23.104  49.584  48.877  1.00  0.00    -0.211 OA
HETATM   16  C   UNL     1      24.749  46.497  49.877  1.00  0.00     0.064 A 
HETATM   17  C   UNL     1      24.035  45.266  49.597  1.00  0.00     0.056 A 
ENDROOT
BRANCH  16  18
HETATM   18  N   UNL     1      26.038  46.494  50.420  1.00  0.00    -0.376 N 
HETATM   19  C   UNL     1      27.059  45.611  49.837  1.00  0.00     0.150 C 
HETATM   20  C   UNL     1      27.099  44.249  50.566  1.00  0.00     0.255 C 
HETATM   21  N   UNL     1      27.308  44.416  52.083  1.00  0.00    -0.064 N 
HETATM   22  H   UNL     1      28.202  44.904  52.215  1.00  0.00     0.280 HD
HETATM   23  C   UNL     1      26.214  45.365  52.642  1.00  0.00     0.255 C 
HETATM   24  C   UNL     1      26.210  46.705  51.871  1.00  0.00     0.150 C 
BRANCH  21  25
HETATM   25  C   UNL     1      27.378  43.068  52.824  1.00  0.00     0.188 C 
HETATM   26  C   UNL     1      28.615  42.257  52.388  1.00  0.00     0.033 C 
HETATM   27  C   UNL     1      29.931  42.924  52.789  1.00  0.00     0.002 C 
HETATM   28  C   UNL     1      29.985  43.196  54.290  1.00  0.00     0.000 C 
HETATM   29  C   UNL     1      28.752  43.944  54.794  1.00  0.00     0.002 C 
HETATM   30  C   UNL     1      27.457  43.263  54.349  1.00  0.00     0.033 C 
ENDBRANCH  21  25
ENDBRANCH  16  18
BRANCH   1  31
HETATM   31  N   UNL     1      22.145  43.857  48.754  1.00  0.00    -0.292 NA
HETATM   32  H   UNL     1      21.135  43.935  48.971  1.00  0.00     0.127 HD
BRANCH  31  33
HETATM   33  C   UNL     1      22.777  42.719  49.411  1.00  0.00     0.094 C 
BRANCH  33  34
HETATM   34  C   UNL     1      23.405  41.790  48.369  1.00  0.00     0.042 C 
BRANCH  34  35
HETATM   35  C   UNL     1      24.921  41.690  48.520  1.00  0.00     0.235 C 
BRANCH  35  36
HETATM   36  N   UNL     1      25.321  40.313  49.026  1.00  0.00    -0.079 N 
HETATM   37  C   UNL     1      26.133  40.339  50.293  1.00  0.00     0.269 C 
HETATM   38  H   UNL     1      24.456  39.792  49.226  1.00  0.00     0.278 HD
HETATM   39  C   UNL     1      26.032  39.523  47.955  1.00  0.00     0.269 C 
ENDBRANCH  35  36
ENDBRANCH  34  35
ENDBRANCH  33  34
ENDBRANCH  31  33
ENDBRANCH   1  31
TORSDOF 7
ENDMDL
MODEL 3
REMARK VINA RESULT:      -9.3      2.965      6.378
REMARK  7 active torsions:
REMARK  status: ('A' for Active; 'I' for Inactive)
REMARK    1  A    between atoms: N_2  and  C_4 
REMARK    2  A    between atoms: C_4  and  C_5 
REMARK    3  A    between atoms: C_5  and  C_6 
REMARK    4  A    between atoms: C_6  and  N_7 
REMARK    5  A    between atoms: N_7  and  C_8 
REMARK    6  A    between atoms: C_23  and  N_24 
REMARK    7  A    between atoms: N_27  and  C_29 
ROOT
HETATM    1  C   UNL     1      27.217  42.201  51.399  1.00  0.00     0.025 A 
HETATM    2  C   UNL     1      27.773  42.942  52.461  1.00  0.00     0.052 A 
HETATM    3  C   UNL     1      26.982  44.014  52.790  1.00  0.00     0.050 A 
HETATM    4  C   UNL     1      27.344  44.852  53.786  1.00  0.00     0.126 A 
HETATM    5  C   UNL     1      28.517  44.752  54.616  1.00  0.00     0.015 A 
HETATM    6  C   UNL     1      29.387  43.668  54.320  1.00  0.00     0.028 A 
HETATM    7  C   UNL     1      29.050  42.730  53.185  1.00  0.00     0.196 A 
HETATM    8  O   UNL     1      29.796  41.824  52.828  1.00  0.00    -0.287 OA
HETATM    9  C   UNL     1      28.817  45.622  55.661  1.00  0.00     0.015 A 
HETATM   10  C   UNL     1      29.978  45.413  56.413  1.00  0.00     0.001 A 
HETATM   11  C   UNL     1      30.834  44.345  56.121  1.00  0.00     0.001 A 
HETATM   12  C   UNL     1      30.543  43.469  55.073  1.00  0.00     0.016 A 
HETATM   13  C   UNL     1      25.745  44.451  52.262  1.00  0.00     0.125 A 
HETATM   14  N   UNL     1      25.408  45.589  52.920  1.00  0.00    -0.125 NA
HETATM   15  O   UNL     1      26.405  45.822  53.885  1.00  0.00    -0.211 OA
HETATM   16  C   UNL     1      25.113  43.718  51.212  1.00  0.00     0.064 A 
HETATM   17  C   UNL     1      25.924  42.573  50.844  1.00  0.00     0.056 A 
ENDROOT
BRANCH  16  18
HETATM   18  N   UNL     1      23.861  43.951  50.635  1.00  0.00    -0.376 N 
HETATM   19  C   UNL     1      23.000  42.805  50.306  1.00  0.00     0.150 C 
HETATM   20  C   UNL     1      23.223  42.339  48.849  1.00  0.00     0.255 C 
HETATM   21  N   UNL     1      23.029  43.489  47.844  1.00  0.00    -0.064 N 
HETATM   22  H   UNL     1      22.066  43.829  47.952  1.00  0.00     0.280 HD
HETATM   23  C   UNL     1      23.950  44.673  48.244  1.00  0.00     0.255 C 
HETATM   24  C   UNL     1      23.693  45.090  49.710  1.00  0.00     0.150 C 
BRANCH  21  25
HETATM   25  C   UNL     1      23.222  43.039  46.383  1.00  0.00     0.188 C 
HETATM   26  C   UNL     1      22.191  41.961  45.993  1.00  0.00     0.033 C 
HETATM   27  C   UNL     1      20.756  42.489  45.989  1.00  0.00     0.002 C 
HETATM   28  C   UNL     1      20.611  43.707  45.080  1.00  0.00     0.000 C 
HETATM   29  C   UNL     1      21.650  44.787  45.379  1.00  0.00     0.002 C 
HETATM   30  C   UNL     1      23.068  44.215  45.402  1.00  0.00     0.033 C 
ENDBRANCH  21  25
ENDBRANCH  16  18
BRANCH   1  31
HETATM   31  N   UNL     1      27.891  41.028  50.960  1.00  0.00    -0.292 NA
HETATM   32  H   UNL     1      28.903  41.248  50.966  1.00  0.00     0.127 HD
BRANCH  31  33
HETATM   33  C   UNL     1      27.446  40.447  49.699  1.00  0.00     0.094 C 
BRANCH  33  34
HETATM   34  C   UNL     1      28.654  40.071  48.836  1.00  0.00     0.042 C 
BRANCH  34  35
HETATM   35  C   UNL     1      28.870  38.561  48.770  1.00  0.00     0.235 C 
BRANCH  35  36
HETATM   36  N   UNL     1      28.499  37.906  50.092  1.00  0.00    -0.079 N 
HETATM   37  C   UNL     1      29.678  37.387  50.870  1.00  0.00     0.269 C 
HETATM   38  H   UNL     1      28.037  38.620  50.673  1.00  0.00     0.278 HD
HETATM   39  C   UNL     1      27.472  36.819  49.893  1.00  0.00     0.269 C 
ENDBRANCH  35  36
ENDBRANCH  34  35
ENDBRANCH  33  34
ENDBRANCH  31  33
ENDBRANCH   1  31
TORSDOF 7
ENDMDL
MODEL 4
REMARK VINA RESULT:      -9.2      1.808      2.445
REMARK  7 active torsions:
REMARK  status: ('A' for Active; 'I' for Inactive)
REMARK    1  A    between atoms: N_2  and  C_4 
REMARK    2  A    between atoms: C_4  and  C_5 
REMARK    3  A    between atoms: C_5  and  C_6 
REMARK    4  A    between atoms: C_6  and  N_7 
REMARK    5  A    between atoms: N_7  and  C_8 
REMARK    6  A    between atoms: C_23  and  N_24 
REMARK    7  A    between atoms: N_27  and  C_29 
ROOT
HETATM    1  C   UNL     1      25.899  43.721  51.785  1.00  0.00     0.025 A 
HETATM    2  C   UNL     1      26.978  43.808  52.687  1.00  0.00     0.052 A 
HETATM    3  C   UNL     1      27.770  42.689  52.627  1.00  0.00     0.050 A 
HETATM    4  C   UNL     1      28.859  42.578  53.419  1.00  0.00     0.126 A 
HETATM    5  C   UNL     1      29.343  43.550  54.366  1.00  0.00     0.015 A 
HETATM    6  C   UNL     1      28.561  44.730  54.485  1.00  0.00     0.028 A 
HETATM    7  C   UNL     1      27.307  44.882  53.656  1.00  0.00     0.196 A 
HETATM    8  O   UNL     1      26.547  45.839  53.770  1.00  0.00    -0.287 OA
HETATM    9  C   UNL     1      30.502  43.400  55.124  1.00  0.00     0.015 A 
HETATM   10  C   UNL     1      30.883  44.423  55.998  1.00  0.00     0.001 A 
HETATM   11  C   UNL     1      30.112  45.585  56.116  1.00  0.00     0.001 A 
HETATM   12  C   UNL     1      28.948  45.744  55.361  1.00  0.00     0.016 A 
HETATM   13  C   UNL     1      27.680  41.531  51.821  1.00  0.00     0.125 A 
HETATM   14  N   UNL     1      28.696  40.709  52.185  1.00  0.00    -0.125 NA
HETATM   15  O   UNL     1      29.441  41.381  53.172  1.00  0.00    -0.211 OA
HETATM   16  C   UNL     1      26.631  41.404  50.861  1.00  0.00     0.064 A 
HETATM   17  C   UNL     1      25.777  42.576  50.897  1.00  0.00     0.056 A 
ENDROOT
BRANCH  16  18
HETATM   18  N   UNL     1      26.438  40.380  49.928  1.00  0.00    -0.376 N 
HETATM   19  C   UNL     1      27.612  39.721  49.336  1.00  0.00     0.150 C 
HETATM   20  C   UNL     1      28.028  40.405  48.015  1.00  0.00     0.255 C 
HETATM   21  N   UNL     1      26.861  40.471  47.011  1.00  0.00    -0.064 N 
HETATM   22  H   UNL     1      26.568  39.506  46.821  1.00  0.00     0.280 HD
HETATM   23  C   UNL     1      25.649  41.163  47.690  1.00  0.00     0.255 C 
HETATM   24  C   UNL     1      25.284  40.447  49.011  1.00  0.00     0.150 C 
BRANCH  21  25
HETATM   25  C   UNL     1      27.263  41.126  45.676  1.00  0.00     0.188 C 
HETATM   26  C   UNL     1      28.444  40.380  45.024  1.00  0.00     0.033 C 
HETATM   27  C   UNL     1      28.082  38.957  44.598  1.00  0.00     0.002 C 
HETATM   28  C   UNL     1      26.873  38.944  43.665  1.00  0.00     0.000 C 
HETATM   29  C   UNL     1      25.688  39.724  44.232  1.00  0.00     0.002 C 
HETATM   30  C   UNL     1      26.097  41.130  44.673  1.00  0.00     0.033 C 
ENDBRANCH  21  25
ENDBRANCH  16  18
BRANCH   1  31
HETATM   31  N   UNL     1      25.001  44.821  51.690  1.00  0.00    -0.292 NA
HETATM   32  H   UNL     1      24.092  44.495  52.065  1.00  0.00     0.127 HD
BRANCH  31  33
HETATM   33  C   UNL     1      24.878  45.456  50.383  1.00  0.00     0.094 C 
BRANCH  33  34
HETATM   34  C   UNL     1      26.226  46.042  49.953  1.00  0.00     0.042 C 
BRANCH  34  35
HETATM   35  C   UNL     1      26.372  47.510  50.346  1.00  0.00     0.235 C 
BRANCH  35  36
HETATM   36  N   UNL     1      26.528  48.384  49.110  1.00  0.00    -0.079 N 
HETATM   37  C   UNL     1      27.737  49.280  49.144  1.00  0.00     0.269 C 
HETATM   38  H   UNL     1      26.632  47.759  48.299  1.00  0.00     0.278 HD
HETATM   39  C   UNL     1      25.278  49.186  48.847  1.00  0.00     0.269 C 
ENDBRANCH  35  36
ENDBRANCH  34  35
ENDBRANCH  33  34
ENDBRANCH  31  33
ENDBRANCH   1  31
TORSDOF 7
ENDMDL
MODEL 5
REMARK VINA RESULT:      -9.1      3.982      9.199
REMARK  7 active torsions:
REMARK  status: ('A' for Active; 'I' for Inactive)
REMARK    1  A    between atoms: N_2  and  C_4 
REMARK    2  A    between atoms: C_4  and  C_5 
REMARK    3  A    between atoms: C_5  and  C_6 
REMARK    4  A    between atoms: C_6  and  N_7 
REMARK    5  A    between atoms: N_7  and  C_8 
REMARK    6  A    between atoms: C_23  and  N_24 
REMARK    7  A    between atoms: N_27  and  C_29 
ROOT
HETATM    1  C   UNL     1      24.136  44.056  49.413  1.00  0.00     0.025 A 
HETATM    2  C   UNL     1      24.868  44.449  50.551  1.00  0.00     0.052 A 
HETATM    3  C   UNL     1      24.825  45.809  50.727  1.00  0.00     0.050 A 
HETATM    4  C   UNL     1      25.470  46.386  51.765  1.00  0.00     0.126 A 
HETATM    5  C   UNL     1      26.229  45.718  52.791  1.00  0.00     0.015 A 
HETATM    6  C   UNL     1      26.323  44.306  52.661  1.00  0.00     0.028 A 
HETATM    7  C   UNL     1      25.660  43.617  51.491  1.00  0.00     0.196 A 
HETATM    8  O   UNL     1      25.769  42.414  51.278  1.00  0.00    -0.287 OA
HETATM    9  C   UNL     1      26.836  46.362  53.866  1.00  0.00     0.015 A 
HETATM   10  C   UNL     1      27.533  45.604  54.812  1.00  0.00     0.001 A 
HETATM   11  C   UNL     1      27.625  44.213  54.684  1.00  0.00     0.001 A 
HETATM   12  C   UNL     1      27.022  43.558  53.608  1.00  0.00     0.016 A 
HETATM   13  C   UNL     1      24.171  46.820  49.986  1.00  0.00     0.125 A 
HETATM   14  N   UNL     1      24.483  48.007  50.565  1.00  0.00    -0.125 NA
HETATM   15  O   UNL     1      25.280  47.724  51.689  1.00  0.00    -0.211 OA
HETATM   16  C   UNL     1      23.381  46.478  48.847  1.00  0.00     0.064 A 
HETATM   17  C   UNL     1      23.403  45.044  48.636  1.00  0.00     0.056 A 
ENDROOT
BRANCH  16  18
HETATM   18  N   UNL     1      22.601  47.328  48.055  1.00  0.00    -0.376 N 
HETATM   19  C   UNL     1      22.870  48.773  48.077  1.00  0.00     0.150 C 
HETATM   20  C   UNL     1      21.996  49.487  49.133  1.00  0.00     0.255 C 
HETATM   21  N   UNL     1      20.496  49.201  48.924  1.00  0.00    -0.064 N 
HETATM   22  H   UNL     1      20.250  49.542  47.987  1.00  0.00     0.280 HD
HETATM   23  C   UNL     1      20.273  47.666  48.897  1.00  0.00     0.255 C 
HETATM   24  C   UNL     1      21.178  47.003  47.833  1.00  0.00     0.150 C 
BRANCH  21  25
HETATM   25  C   UNL     1      19.606  49.925  49.951  1.00  0.00     0.188 C 
HETATM   26  C   UNL     1      19.900  51.438  49.974  1.00  0.00     0.033 C 
HETATM   27  C   UNL     1      19.526  52.134  48.664  1.00  0.00     0.002 C 
HETATM   28  C   UNL     1      18.064  51.889  48.300  1.00  0.00     0.000 C 
HETATM   29  C   UNL     1      17.695  50.407  48.322  1.00  0.00     0.002 C 
HETATM   30  C   UNL     1      18.111  49.741  49.635  1.00  0.00     0.033 C 
ENDBRANCH  21  25
ENDBRANCH  16  18
BRANCH   1  31
HETATM   31  N   UNL     1      24.041  42.669  49.109  1.00  0.00    -0.292 NA
HETATM   32  H   UNL     1      24.809  42.200  49.622  1.00  0.00     0.127 HD
BRANCH  31  33
HETATM   33  C   UNL     1      24.002  42.307  47.697  1.00  0.00     0.094 C 
BRANCH  33  34
HETATM   34  C   UNL     1      25.077  41.261  47.391  1.00  0.00     0.042 C 
BRANCH  34  35
HETATM   35  C   UNL     1      25.249  40.256  48.528  1.00  0.00     0.235 C 
BRANCH  35  36
HETATM   36  N   UNL     1      26.584  40.459  49.228  1.00  0.00    -0.079 N 
HETATM   37  C   UNL     1      27.560  41.302  48.451  1.00  0.00     0.269 C 
HETATM   38  H   UNL     1      26.398  40.945  50.116  1.00  0.00     0.278 HD
HETATM   39  C   UNL     1      27.206  39.139  49.609  1.00  0.00     0.269 C 
ENDBRANCH  35  36
ENDBRANCH  34  35
ENDBRANCH  33  34
ENDBRANCH  31  33
ENDBRANCH   1  31
TORSDOF 7
ENDMDL
MODEL 6
REMARK VINA RESULT:      -9.1      5.430     10.027
REMARK  7 active torsions:
REMARK  status: ('A' for Active; 'I' for Inactive)
REMARK    1  A    between atoms: N_2  and  C_4 
REMARK    2  A    between atoms: C_4  and  C_5 
REMARK    3  A    between atoms: C_5  and  C_6 
REMARK    4  A    between atoms: C_6  and  N_7 
REMARK    5  A    between atoms: N_7  and  C_8 
REMARK    6  A    between atoms: C_23  and  N_24 
REMARK    7  A    between atoms: N_27  and  C_29 
ROOT
HETATM    1  C   UNL     1      21.753  46.046  48.078  1.00  0.00     0.025 A 
HETATM    2  C   UNL     1      21.260  47.366  48.127  1.00  0.00     0.052 A 
HETATM    3  C   UNL     1      22.126  48.198  48.791  1.00  0.00     0.050 A 
HETATM    4  C   UNL     1      21.832  49.508  48.947  1.00  0.00     0.126 A 
HETATM    5  C   UNL     1      20.664  50.196  48.459  1.00  0.00     0.015 A 
HETATM    6  C   UNL     1      19.720  49.388  47.769  1.00  0.00     0.028 A 
HETATM    7  C   UNL     1      19.979  47.908  47.610  1.00  0.00     0.196 A 
HETATM    8  O   UNL     1      19.170  47.143  47.096  1.00  0.00    -0.287 OA
HETATM    9  C   UNL     1      20.436  51.562  48.611  1.00  0.00     0.015 A 
HETATM   10  C   UNL     1      19.272  52.123  48.076  1.00  0.00     0.001 A 
HETATM   11  C   UNL     1      18.342  51.327  47.397  1.00  0.00     0.001 A 
HETATM   12  C   UNL     1      18.562  49.956  47.242  1.00  0.00     0.016 A 
HETATM   13  C   UNL     1      23.383  47.945  49.386  1.00  0.00     0.125 A 
HETATM   14  N   UNL     1      23.803  49.108  49.943  1.00  0.00    -0.125 NA
HETATM   15  O   UNL     1      22.836  50.085  49.647  1.00  0.00    -0.211 OA
HETATM   16  C   UNL     1      23.952  46.636  49.333  1.00  0.00     0.064 A 
HETATM   17  C   UNL     1      23.061  45.732  48.632  1.00  0.00     0.056 A 
ENDROOT
BRANCH  16  18
HETATM   18  N   UNL     1      25.211  46.228  49.786  1.00  0.00    -0.376 N 
HETATM   19  C   UNL     1      25.400  44.834  50.213  1.00  0.00     0.150 C 
HETATM   20  C   UNL     1      25.163  44.678  51.732  1.00  0.00     0.255 C 
HETATM   21  N   UNL     1      26.047  45.637  52.551  1.00  0.00    -0.064 N 
HETATM   22  H   UNL     1      27.024  45.413  52.332  1.00  0.00     0.280 HD
HETATM   23  C   UNL     1      25.816  47.089  52.052  1.00  0.00     0.255 C 
HETATM   24  C   UNL     1      26.056  47.184  50.528  1.00  0.00     0.150 C 
BRANCH  21  25
HETATM   25  C   UNL     1      25.844  45.480  54.070  1.00  0.00     0.188 C 
HETATM   26  C   UNL     1      26.307  44.090  54.552  1.00  0.00     0.033 C 
HETATM   27  C   UNL     1      27.814  43.882  54.396  1.00  0.00     0.002 C 
HETATM   28  C   UNL     1      28.605  44.976  55.110  1.00  0.00     0.000 C 
HETATM   29  C   UNL     1      28.147  46.380  54.719  1.00  0.00     0.002 C 
HETATM   30  C   UNL     1      26.632  46.539  54.861  1.00  0.00     0.033 C 
ENDBRANCH  21  25
ENDBRANCH  16  18
BRANCH   1  31
HETATM   31  N   UNL     1      20.996  45.061  47.386  1.00  0.00    -0.292 NA
HETATM   32  H   UNL     1      20.306  44.687  48.062  1.00  0.00     0.127 HD
BRANCH  31  33
HETATM   33  C   UNL     1      21.747  44.012  46.707  1.00  0.00     0.094 C 
BRANCH  33  34
HETATM   34  C   UNL     1      20.910  43.412  45.574  1.00  0.00     0.042 C 
BRANCH  34  35
HETATM   35  C   UNL     1      19.425  43.344  45.925  1.00  0.00     0.235 C 
BRANCH  35  36
HETATM   36  N   UNL     1      18.709  44.610  45.479  1.00  0.00    -0.079 N 
HETATM   37  C   UNL     1      17.214  44.560  45.648  1.00  0.00     0.269 C 
HETATM   38  H   UNL     1      19.058  45.385  46.059  1.00  0.00     0.278 HD
HETATM   39  C   UNL     1      19.072  44.970  44.059  1.00  0.00     0.269 C 
ENDBRANCH  35  36
ENDBRANCH  34  35
ENDBRANCH  33  34
ENDBRANCH  31  33
ENDBRANCH   1  31
TORSDOF 7
ENDMDL
MODEL 7
REMARK VINA RESULT:      -8.8      3.917      8.388
REMARK  7 active torsions:
REMARK  status: ('A' for Active; 'I' for Inactive)
REMARK    1  A    between atoms: N_2  and  C_4 
REMARK    2  A    between atoms: C_4  and  C_5 
REMARK    3  A    between atoms: C_5  and  C_6 
REMARK    4  A    between atoms: C_6  and  N_7 
REMARK    5  A    between atoms: N_7  and  C_8 
REMARK    6  A    between atoms: C_23  and  N_24 
REMARK    7  A    between atoms: N_27  and  C_29 
ROOT
HETATM    1  C   UNL     1      24.972  43.444  50.754  1.00  0.00     0.025 A 
HETATM    2  C   UNL     1      25.573  44.301  51.698  1.00  0.00     0.052 A 
HETATM    3  C   UNL     1      25.290  45.616  51.430  1.00  0.00     0.050 A 
HETATM    4  C   UNL     1      25.777  46.596  52.222  1.00  0.00     0.126 A 
HETATM    5  C   UNL     1      26.591  46.433  53.399  1.00  0.00     0.015 A 
HETATM    6  C   UNL     1      26.931  45.093  53.727  1.00  0.00     0.028 A 
HETATM    7  C   UNL     1      26.450  43.963  52.846  1.00  0.00     0.196 A 
HETATM    8  O   UNL     1      26.773  42.794  53.029  1.00  0.00    -0.287 OA
HETATM    9  C   UNL     1      27.028  47.481  54.205  1.00  0.00     0.015 A 
HETATM   10  C   UNL     1      27.799  47.198  55.336  1.00  0.00     0.001 A 
HETATM   11  C   UNL     1      28.134  45.878  55.660  1.00  0.00     0.001 A 
HETATM   12  C   UNL     1      27.702  44.820  54.856  1.00  0.00     0.016 A 
HETATM   13  C   UNL     1      24.508  46.208  50.411  1.00  0.00     0.125 A 
HETATM   14  N   UNL     1      24.585  47.552  50.577  1.00  0.00    -0.125 NA
HETATM   15  O   UNL     1      25.365  47.786  51.724  1.00  0.00    -0.211 OA
HETATM   16  C   UNL     1      23.842  45.388  49.450  1.00  0.00     0.064 A 
HETATM   17  C   UNL     1      24.118  43.989  49.709  1.00  0.00     0.056 A 
ENDROOT
BRANCH  16  18
HETATM   18  N   UNL     1      22.966  45.791  48.436  1.00  0.00    -0.376 N 
HETATM   19  C   UNL     1      22.816  47.225  48.149  1.00  0.00     0.150 C 
HETATM   20  C   UNL     1      21.648  47.837  48.955  1.00  0.00     0.255 C 
HETATM   21  N   UNL     1      20.328  47.079  48.716  1.00  0.00    -0.064 N 
HETATM   22  H   UNL     1      20.121  47.138  47.712  1.00  0.00     0.280 HD
HETATM   23  C   UNL     1      20.547  45.573  49.022  1.00  0.00     0.255 C 
HETATM   24  C   UNL     1      21.732  45.017  48.200  1.00  0.00     0.150 C 
BRANCH  21  25
HETATM   25  C   UNL     1      19.145  47.689  49.491  1.00  0.00     0.188 C 
HETATM   26  C   UNL     1      19.181  49.229  49.438  1.00  0.00     0.033 C 
HETATM   27  C   UNL     1      18.969  49.778  48.027  1.00  0.00     0.002 C 
HETATM   28  C   UNL     1      17.668  49.262  47.416  1.00  0.00     0.000 C 
HETATM   29  C   UNL     1      17.547  47.741  47.497  1.00  0.00     0.002 C 
HETATM   30  C   UNL     1      17.793  47.229  48.917  1.00  0.00     0.033 C 
ENDBRANCH  21  25
ENDBRANCH  16  18
BRANCH   1  31
HETATM   31  N   UNL     1      25.131  42.039  50.911  1.00  0.00    -0.292 NA
HETATM   32  H   UNL     1      25.835  41.901  51.657  1.00  0.00     0.127 HD
BRANCH  31  33
HETATM   33  C   UNL     1      25.427  41.273  49.706  1.00  0.00     0.094 C 
BRANCH  33  34
HETATM   34  C   UNL     1      26.942  41.165  49.509  1.00  0.00     0.042 C 
BRANCH  34  35
HETATM   35  C   UNL     1      27.450  39.736  49.694  1.00  0.00     0.235 C 
BRANCH  35  36
HETATM   36  N   UNL     1      28.818  39.735  50.359  1.00  0.00    -0.079 N 
HETATM   37  C   UNL     1      29.448  38.371  50.461  1.00  0.00     0.269 C 
HETATM   38  H   UNL     1      29.442  40.320  49.786  1.00  0.00     0.278 HD
HETATM   39  C   UNL     1      28.767  40.400  51.712  1.00  0.00     0.269 C 
ENDBRANCH  35  36
ENDBRANCH  34  35
ENDBRANCH  33  34
ENDBRANCH  31  33
ENDBRANCH   1  31
TORSDOF 7
ENDMDL
MODEL 8
REMARK VINA RESULT:      -8.6      4.741      9.462
REMARK  7 active torsions:
REMARK  status: ('A' for Active; 'I' for Inactive)
REMARK    1  A    between atoms: N_2  and  C_4 
REMARK    2  A    between atoms: C_4  and  C_5 
REMARK    3  A    between atoms: C_5  and  C_6 
REMARK    4  A    between atoms: C_6  and  N_7 
REMARK    5  A    between atoms: N_7  and  C_8 
REMARK    6  A    between atoms: C_23  and  N_24 
REMARK    7  A    between atoms: N_27  and  C_29 
ROOT
HETATM    1  C   UNL     1      23.558  44.244  49.514  1.00  0.00     0.025 A 
HETATM    2  C   UNL     1      24.407  44.584  50.587  1.00  0.00     0.052 A 
HETATM    3  C   UNL     1      24.594  45.940  50.666  1.00  0.00     0.050 A 
HETATM    4  C   UNL     1      25.381  46.468  51.630  1.00  0.00     0.126 A 
HETATM    5  C   UNL     1      26.078  45.750  52.666  1.00  0.00     0.015 A 
HETATM    6  C   UNL     1      25.934  44.337  52.636  1.00  0.00     0.028 A 
HETATM    7  C   UNL     1      25.104  43.694  51.549  1.00  0.00     0.196 A 
HETATM    8  O   UNL     1      25.004  42.478  51.420  1.00  0.00    -0.287 OA
HETATM    9  C   UNL     1      26.840  46.353  53.664  1.00  0.00     0.015 A 
HETATM   10  C   UNL     1      27.456  45.552  54.631  1.00  0.00     0.001 A 
HETATM   11  C   UNL     1      27.315  44.160  54.600  1.00  0.00     0.001 A 
HETATM   12  C   UNL     1      26.554  43.546  53.602  1.00  0.00     0.016 A 
HETATM   13  C   UNL     1      24.073  46.996  49.883  1.00  0.00     0.125 A 
HETATM   14  N   UNL     1      24.604  48.149  50.361  1.00  0.00    -0.125 NA
HETATM   15  O   UNL     1      25.406  47.811  51.466  1.00  0.00    -0.211 OA
HETATM   16  C   UNL     1      23.176  46.717  48.808  1.00  0.00     0.064 A 
HETATM   17  C   UNL     1      22.953  45.288  48.701  1.00  0.00     0.056 A 
ENDROOT
BRANCH  16  18
HETATM   18  N   UNL     1      22.501  47.632  47.992  1.00  0.00    -0.376 N 
HETATM   19  C   UNL     1      22.736  49.070  48.184  1.00  0.00     0.150 C 
HETATM   20  C   UNL     1      21.706  49.678  49.162  1.00  0.00     0.255 C 
HETATM   21  N   UNL     1      20.258  49.404  48.714  1.00  0.00    -0.064 N 
HETATM   22  H   UNL     1      20.141  49.828  47.786  1.00  0.00     0.280 HD
HETATM   23  C   UNL     1      20.070  47.876  48.515  1.00  0.00     0.255 C 
HETATM   24  C   UNL     1      21.131  47.320  47.538  1.00  0.00     0.150 C 
BRANCH  21  25
HETATM   25  C   UNL     1      19.215  50.025  49.662  1.00  0.00     0.188 C 
HETATM   26  C   UNL     1      19.458  51.536  49.844  1.00  0.00     0.033 C 
HETATM   27  C   UNL     1      19.243  52.329  48.553  1.00  0.00     0.002 C 
HETATM   28  C   UNL     1      17.852  52.086  47.974  1.00  0.00     0.000 C 
HETATM   29  C   UNL     1      17.529  50.600  47.830  1.00  0.00     0.002 C 
HETATM   30  C   UNL     1      17.783  49.838  49.131  1.00  0.00     0.033 C 
ENDBRANCH  21  25
ENDBRANCH  16  18
BRANCH   1  31
HETATM   31  N   UNL     1      23.223  42.876  49.316  1.00  0.00    -0.292 NA
HETATM   32  H   UNL     1      23.593  42.359  50.134  1.00  0.00     0.127 HD
BRANCH  31  33
HETATM   33  C   UNL     1      23.618  42.281  48.045  1.00  0.00     0.094 C 
BRANCH  33  34
HETATM   34  C   UNL     1      22.382  41.788  47.287  1.00  0.00     0.042 C 
BRANCH  34  35
HETATM   35  C   UNL     1      22.369  42.256  45.834  1.00  0.00     0.235 C 
BRANCH  35  36
HETATM   36  N   UNL     1      20.942  42.362  45.317  1.00  0.00    -0.079 N 
HETATM   37  C   UNL     1      20.095  43.362  46.057  1.00  0.00     0.269 C 
HETATM   38  H   UNL     1      20.989  42.666  44.335  1.00  0.00     0.278 HD
HETATM   39  C   UNL     1      20.270  41.011  45.291  1.00  0.00     0.269 C 
ENDBRANCH  35  36
ENDBRANCH  34  35
ENDBRANCH  33  34
ENDBRANCH  31  33
ENDBRANCH   1  31
TORSDOF 7
ENDMDL
MODEL 9
REMARK VINA RESULT:      -8.4      4.262      9.362
REMARK  7 active torsions:
REMARK  status: ('A' for Active; 'I' for Inactive)
REMARK    1  A    between atoms: N_2  and  C_4 
REMARK    2  A    between atoms: C_4  and  C_5 
REMARK    3  A    between atoms: C_5  and  C_6 
REMARK    4  A    between atoms: C_6  and  N_7 
REMARK    5  A    between atoms: N_7  and  C_8 
REMARK    6  A    between atoms: C_23  and  N_24 
REMARK    7  A    between atoms: N_27  and  C_29 
ROOT
HETATM    1  C   UNL     1      25.082  46.040  50.248  1.00  0.00     0.025 A 
HETATM    2  C   UNL     1      25.307  44.673  49.990  1.00  0.00     0.052 A 
HETATM    3  C   UNL     1      24.411  44.184  49.073  1.00  0.00     0.050 A 
HETATM    4  C   UNL     1      24.460  42.888  48.692  1.00  0.00     0.126 A 
HETATM    5  C   UNL     1      25.402  41.891  49.134  1.00  0.00     0.015 A 
HETATM    6  C   UNL     1      26.353  42.331  50.094  1.00  0.00     0.028 A 
HETATM    7  C   UNL     1      26.311  43.758  50.589  1.00  0.00     0.196 A 
HETATM    8  O   UNL     1      27.051  44.178  51.472  1.00  0.00    -0.287 OA
HETATM    9  C   UNL     1      25.433  40.578  48.671  1.00  0.00     0.015 A 
HETATM   10  C   UNL     1      26.408  39.704  49.160  1.00  0.00     0.001 A 
HETATM   11  C   UNL     1      27.345  40.137  50.106  1.00  0.00     0.001 A 
HETATM   12  C   UNL     1      27.321  41.451  50.578  1.00  0.00     0.016 A 
HETATM   13  C   UNL     1      23.362  44.820  48.370  1.00  0.00     0.125 A 
HETATM   14  N   UNL     1      22.757  43.872  47.611  1.00  0.00    -0.125 NA
HETATM   15  O   UNL     1      23.462  42.671  47.804  1.00  0.00    -0.211 OA
HETATM   16  C   UNL     1      23.112  46.213  48.560  1.00  0.00     0.064 A 
HETATM   17  C   UNL     1      24.048  46.762  49.522  1.00  0.00     0.056 A 
ENDROOT
BRANCH  16  18
HETATM   18  N   UNL     1      22.184  47.018  47.892  1.00  0.00    -0.376 N 
HETATM   19  C   UNL     1      22.469  48.450  47.723  1.00  0.00     0.150 C 
HETATM   20  C   UNL     1      21.868  49.279  48.880  1.00  0.00     0.255 C 
HETATM   21  N   UNL     1      20.357  49.027  49.041  1.00  0.00    -0.064 N 
HETATM   22  H   UNL     1      19.908  49.294  48.157  1.00  0.00     0.280 HD
HETATM   23  C   UNL     1      20.112  47.503  49.203  1.00  0.00     0.255 C 
HETATM   24  C   UNL     1      20.744  46.723  48.026  1.00  0.00     0.150 C 
BRANCH  21  25
HETATM   25  C   UNL     1      19.732  49.864  50.173  1.00  0.00     0.188 C 
HETATM   26  C   UNL     1      20.132  51.348  50.052  1.00  0.00     0.033 C 
HETATM   27  C   UNL     1      19.564  52.013  48.798  1.00  0.00     0.002 C 
HETATM   28  C   UNL     1      18.045  51.871  48.729  1.00  0.00     0.000 C 
HETATM   29  C   UNL     1      17.585  50.426  48.906  1.00  0.00     0.002 C 
HETATM   30  C   UNL     1      18.196  49.787  50.154  1.00  0.00     0.033 C 
ENDBRANCH  21  25
ENDBRANCH  16  18
BRANCH   1  31
HETATM   31  N   UNL     1      25.953  46.716  51.147  1.00  0.00    -0.292 NA
HETATM   32  H   UNL     1      26.831  46.167  51.179  1.00  0.00     0.127 HD
BRANCH  31  33
HETATM   33  C   UNL     1      25.425  47.017  52.472  1.00  0.00     0.094 C 
BRANCH  33  34
HETATM   34  C   UNL     1      26.574  47.261  53.454  1.00  0.00     0.042 C 
BRANCH  34  35
HETATM   35  C   UNL     1      26.522  46.317  54.654  1.00  0.00     0.235 C 
BRANCH  35  36
HETATM   36  N   UNL     1      27.041  44.938  54.274  1.00  0.00    -0.079 N 
HETATM   37  C   UNL     1      26.200  43.804  54.795  1.00  0.00     0.269 C 
HETATM   38  H   UNL     1      27.038  44.877  53.247  1.00  0.00     0.278 HD
HETATM   39  C   UNL     1      28.482  44.765  54.687  1.00  0.00     0.269 C 
ENDBRANCH  35  36
ENDBRANCH  34  35
ENDBRANCH  33  34
ENDBRANCH  31  33
ENDBRANCH   1  31
TORSDOF 7
ENDMDL
MODEL 10
REMARK VINA RESULT:      -8.4      4.253      8.082
REMARK  7 active torsions:
REMARK  status: ('A' for Active; 'I' for Inactive)
REMARK    1  A    between atoms: N_2  and  C_4 
REMARK    2  A    between atoms: C_4  and  C_5 
REMARK    3  A    between atoms: C_5  and  C_6 
REMARK    4  A    between atoms: C_6  and  N_7 
REMARK    5  A    between atoms: N_7  and  C_8 
REMARK    6  A    between atoms: C_23  and  N_24 
REMARK    7  A    between atoms: N_27  and  C_29 
ROOT
HETATM    1  C   UNL     1      23.773  47.427  49.539  1.00  0.00     0.025 A 
HETATM    2  C   UNL     1      22.661  48.189  49.130  1.00  0.00     0.052 A 
HETATM    3  C   UNL     1      21.667  47.391  48.622  1.00  0.00     0.050 A 
HETATM    4  C   UNL     1      20.515  47.934  48.172  1.00  0.00     0.126 A 
HETATM    5  C   UNL     1      20.159  49.330  48.173  1.00  0.00     0.015 A 
HETATM    6  C   UNL     1      21.150  50.215  48.677  1.00  0.00     0.028 A 
HETATM    7  C   UNL     1      22.475  49.661  49.149  1.00  0.00     0.196 A 
HETATM    8  O   UNL     1      23.400  50.376  49.520  1.00  0.00    -0.287 OA
HETATM    9  C   UNL     1      18.934  49.830  47.737  1.00  0.00     0.015 A 
HETATM   10  C   UNL     1      18.695  51.206  47.804  1.00  0.00     0.001 A 
HETATM   11  C   UNL     1      19.671  52.077  48.300  1.00  0.00     0.001 A 
HETATM   12  C   UNL     1      20.904  51.586  48.738  1.00  0.00     0.016 A 
HETATM   13  C   UNL     1      21.590  45.986  48.475  1.00  0.00     0.125 A 
HETATM   14  N   UNL     1      20.401  45.711  47.882  1.00  0.00    -0.125 NA
HETATM   15  O   UNL     1      19.727  46.934  47.713  1.00  0.00    -0.211 OA
HETATM   16  C   UNL     1      22.669  45.159  48.909  1.00  0.00     0.064 A 
HETATM   17  C   UNL     1      23.736  45.974  49.456  1.00  0.00     0.056 A 
ENDROOT
BRANCH  16  18
HETATM   18  N   UNL     1      22.729  43.761  48.922  1.00  0.00    -0.376 N 
HETATM   19  C   UNL     1      23.169  43.074  50.145  1.00  0.00     0.150 C 
HETATM   20  C   UNL     1      24.692  42.816  50.122  1.00  0.00     0.255 C 
HETATM   21  N   UNL     1      25.123  42.041  48.863  1.00  0.00    -0.064 N 
HETATM   22  H   UNL     1      24.622  41.145  48.870  1.00  0.00     0.280 HD
HETATM   23  C   UNL     1      24.624  42.802  47.605  1.00  0.00     0.255 C 
HETATM   24  C   UNL     1      23.099  43.044  47.686  1.00  0.00     0.150 C 
BRANCH  21  25
HETATM   25  C   UNL     1      26.635  41.750  48.833  1.00  0.00     0.188 C 
HETATM   26  C   UNL     1      27.072  40.953  50.079  1.00  0.00     0.033 C 
HETATM   27  C   UNL     1      26.466  39.550  50.127  1.00  0.00     0.002 C 
HETATM   28  C   UNL     1      26.786  38.760  48.860  1.00  0.00     0.000 C 
HETATM   29  C   UNL     1      26.432  39.527  47.587  1.00  0.00     0.002 C 
HETATM   30  C   UNL     1      27.032  40.934  47.590  1.00  0.00     0.033 C 
ENDBRANCH  21  25
ENDBRANCH  16  18
BRANCH   1  31
HETATM   31  N   UNL     1      24.879  48.098  50.131  1.00  0.00    -0.292 NA
HETATM   32  H   UNL     1      25.194  48.810  49.448  1.00  0.00     0.127 HD
BRANCH  31  33
HETATM   33  C   UNL     1      25.969  47.262  50.620  1.00  0.00     0.094 C 
BRANCH  33  34
HETATM   34  C   UNL     1      25.855  47.080  52.136  1.00  0.00     0.042 C 
BRANCH  34  35
HETATM   35  C   UNL     1      25.848  45.609  52.545  1.00  0.00     0.235 C 
BRANCH  35  36
HETATM   36  N   UNL     1      26.832  45.361  53.678  1.00  0.00    -0.079 N 
HETATM   37  C   UNL     1      26.461  44.206  54.569  1.00  0.00     0.269 C 
HETATM   38  H   UNL     1      27.744  45.143  53.256  1.00  0.00     0.278 HD
HETATM   39  C   UNL     1      27.051  46.613  54.493  1.00  0.00     0.269 C 
ENDBRANCH  35  36
ENDBRANCH  34  35
ENDBRANCH  33  34
ENDBRANCH  31  33
ENDBRANCH   1  31
TORSDOF 7
ENDMDL
