MODEL 1
REMARK VINA RESULT:      -9.4      0.000      0.000
REMARK  3 active torsions:
REMARK  status: ('A' for Active; 'I' for Inactive)
REMARK    1  A    between atoms: C_12  and  C_13 
REMARK    2  A    between atoms: C_13  and  N_14 
REMARK       I    between atoms: N_14  and  C_15 
REMARK    3  A    between atoms: C_15  and  C_16 
ROOT
HETATM    1  N   UNL     1      25.986  46.066  51.453  1.00  0.00    -0.352 N 
HETATM    2  C   UNL     1      26.591  46.177  50.228  1.00  0.00     0.254 C 
HETATM    3  O   UNL     1      27.213  45.246  49.720  1.00  0.00    -0.268 OA
HETATM    4  H   UNL     1      25.524  46.876  51.841  1.00  0.00     0.163 HD
ENDROOT
BRANCH   1   5
HETATM    5  C   UNL     1      26.098  44.892  52.284  1.00  0.00     0.165 C 
BRANCH   5   6
HETATM    6  C   UNL     1      27.258  45.000  53.231  1.00  0.00     0.008 C 
HETATM    7  C   UNL     1      28.383  43.961  53.160  1.00  0.00     0.043 C 
HETATM    8  C   UNL     1      28.412  43.001  51.988  1.00  0.00     0.071 C 
HETATM    9  N   UNL     1      29.361  43.829  54.013  1.00  0.00    -0.234 NA
HETATM   10  C   UNL     1      29.332  44.739  55.028  1.00  0.00     0.154 C 
HETATM   11  C   UNL     1      30.139  44.688  56.096  1.00  0.00     0.128 C 
HETATM   12  N   UNL     1      28.451  45.799  55.115  1.00  0.00    -0.239 N 
HETATM   13  C   UNL     1      29.732  45.842  56.924  1.00  0.00     0.263 C 
HETATM   14  N   UNL     1      28.606  46.400  56.344  1.00  0.00    -0.258 N 
HETATM   15  O   UNL     1      30.325  46.238  57.911  1.00  0.00    -0.267 OA
HETATM   16  H   UNL     1      28.415  47.384  56.469  1.00  0.00     0.191 HD
HETATM   17  C   UNL     1      27.368  45.889  54.254  1.00  0.00     0.042 C 
HETATM   18  C   UNL     1      26.373  46.987  54.537  1.00  0.00     0.071 C 
ENDBRANCH   5   6
ENDBRANCH   1   5
BRANCH   2  19
HETATM   19  C   UNL     1      26.460  47.476  49.557  1.00  0.00     0.062 A 
HETATM   20  C   UNL     1      25.310  48.251  49.159  1.00  0.00     0.046 A 
HETATM   21  C   UNL     1      25.781  49.431  48.569  1.00  0.00     0.046 A 
HETATM   22  C   UNL     1      23.907  48.099  49.237  1.00  0.00     0.130 A 
HETATM   23  C   UNL     1      24.934  50.431  48.069  1.00  0.00     0.030 A 
HETATM   24  N   UNL     1      27.154  49.382  48.596  1.00  0.00    -0.364 N 
HETATM   25  C   UNL     1      23.554  50.235  48.168  1.00  0.00     0.005 A 
HETATM   26  C   UNL     1      23.042  49.079  48.746  1.00  0.00     0.043 A 
HETATM   27  H   UNL     1      27.764  50.103  48.237  1.00  0.00     0.165 HD
HETATM   28  C   UNL     1      27.568  48.224  49.187  1.00  0.00     0.106 A 
HETATM   29  F   UNL     1      23.366  47.002  49.789  1.00  0.00    -0.205 F 
ENDBRANCH   2  19
TORSDOF 3
ENDMDL
MODEL 2
REMARK VINA RESULT:      -9.1      2.683      8.037
REMARK  3 active torsions:
REMARK  status: ('A' for Active; 'I' for Inactive)
REMARK    1  A    between atoms: C_12  and  C_13 
REMARK    2  A    between atoms: C_13  and  N_14 
REMARK       I    between atoms: N_14  and  C_15 
REMARK    3  A    between atoms: C_15  and  C_16 
ROOT
HETATM    1  N   UNL     1      27.170  45.295  51.464  1.00  0.00    -0.352 N 
HETATM    2  C   UNL     1      26.785  44.736  52.655  1.00  0.00     0.254 C 
HETATM    3  O   UNL     1      25.873  43.915  52.726  1.00  0.00    -0.268 OA
HETATM    4  H   UNL     1      27.897  45.996  51.470  1.00  0.00     0.163 HD
ENDROOT
BRANCH   1   5
HETATM    5  C   UNL     1      26.492  45.038  50.217  1.00  0.00     0.165 C 
BRANCH   5   6
HETATM    6  C   UNL     1      25.552  46.155  49.866  1.00  0.00     0.008 C 
HETATM    7  C   UNL     1      24.054  45.858  49.731  1.00  0.00     0.043 C 
HETATM    8  C   UNL     1      23.537  44.508  50.187  1.00  0.00     0.071 C 
HETATM    9  N   UNL     1      23.146  46.677  49.277  1.00  0.00    -0.234 NA
HETATM   10  C   UNL     1      23.637  47.899  48.920  1.00  0.00     0.154 C 
HETATM   11  C   UNL     1      22.919  48.833  48.284  1.00  0.00     0.128 C 
HETATM   12  N   UNL     1      24.937  48.320  49.128  1.00  0.00    -0.239 N 
HETATM   13  C   UNL     1      23.859  49.955  48.089  1.00  0.00     0.263 C 
HETATM   14  N   UNL     1      25.112  49.532  48.499  1.00  0.00    -0.258 N 
HETATM   15  O   UNL     1      23.553  51.061  47.681  1.00  0.00    -0.267 OA
HETATM   16  H   UNL     1      25.779  50.206  48.846  1.00  0.00     0.191 HD
HETATM   17  C   UNL     1      25.912  47.423  49.535  1.00  0.00     0.042 C 
HETATM   18  C   UNL     1      27.329  47.941  49.570  1.00  0.00     0.071 C 
ENDBRANCH   5   6
ENDBRANCH   1   5
BRANCH   2  19
HETATM   19  C   UNL     1      27.519  45.180  53.846  1.00  0.00     0.062 A 
HETATM   20  C   UNL     1      28.684  44.658  54.519  1.00  0.00     0.046 A 
HETATM   21  C   UNL     1      28.957  45.501  55.603  1.00  0.00     0.046 A 
HETATM   22  C   UNL     1      29.557  43.562  54.334  1.00  0.00     0.130 A 
HETATM   23  C   UNL     1      30.033  45.300  56.480  1.00  0.00     0.030 A 
HETATM   24  N   UNL     1      28.005  46.492  55.601  1.00  0.00    -0.364 N 
HETATM   25  C   UNL     1      30.868  44.202  56.257  1.00  0.00     0.005 A 
HETATM   26  C   UNL     1      30.634  43.339  55.194  1.00  0.00     0.043 A 
HETATM   27  H   UNL     1      27.955  47.245  56.274  1.00  0.00     0.165 HD
HETATM   28  C   UNL     1      27.147  46.312  54.556  1.00  0.00     0.106 A 
HETATM   29  F   UNL     1      29.373  42.703  53.320  1.00  0.00    -0.205 F 
ENDBRANCH   2  19
TORSDOF 3
ENDMDL
MODEL 3
REMARK VINA RESULT:      -9.0      3.301      7.713
REMARK  3 active torsions:
REMARK  status: ('A' for Active; 'I' for Inactive)
REMARK    1  A    between atoms: C_12  and  C_13 
REMARK    2  A    between atoms: C_13  and  N_14 
REMARK       I    between atoms: N_14  and  C_15 
REMARK    3  A    between atoms: C_15  and  C_16 
ROOT
HETATM    1  N   UNL     1      26.053  43.073  52.545  1.00  0.00    -0.352 N 
HETATM    2  C   UNL     1      27.417  42.992  52.435  1.00  0.00     0.254 C 
HETATM    3  O   UNL     1      28.159  43.883  52.844  1.00  0.00    -0.268 OA
HETATM    4  H   UNL     1      25.491  42.331  52.154  1.00  0.00     0.163 HD
ENDROOT
BRANCH   1   5
HETATM    5  C   UNL     1      25.371  44.232  53.066  1.00  0.00     0.165 C 
BRANCH   5   6
HETATM    6  C   UNL     1      25.063  45.219  51.977  1.00  0.00     0.008 C 
HETATM    7  C   UNL     1      25.523  46.674  52.132  1.00  0.00     0.043 C 
HETATM    8  C   UNL     1      26.476  47.018  53.259  1.00  0.00     0.071 C 
HETATM    9  N   UNL     1      25.192  47.670  51.358  1.00  0.00    -0.234 NA
HETATM   10  C   UNL     1      24.372  47.317  50.328  1.00  0.00     0.154 C 
HETATM   11  C   UNL     1      23.782  48.200  49.510  1.00  0.00     0.128 C 
HETATM   12  N   UNL     1      24.010  46.022  50.013  1.00  0.00    -0.239 N 
HETATM   13  C   UNL     1      22.984  47.371  48.583  1.00  0.00     0.263 C 
HETATM   14  N   UNL     1      23.052  46.060  49.025  1.00  0.00    -0.258 N 
HETATM   15  O   UNL     1      22.416  47.784  47.588  1.00  0.00    -0.267 OA
HETATM   16  H   UNL     1      22.957  45.304  48.362  1.00  0.00     0.191 HD
HETATM   17  C   UNL     1      24.297  44.979  50.880  1.00  0.00     0.042 C 
HETATM   18  C   UNL     1      23.713  43.633  50.529  1.00  0.00     0.071 C 
ENDBRANCH   5   6
ENDBRANCH   1   5
BRANCH   2  19
HETATM   19  C   UNL     1      27.944  41.783  51.792  1.00  0.00     0.062 A 
HETATM   20  C   UNL     1      27.890  41.305  50.431  1.00  0.00     0.046 A 
HETATM   21  C   UNL     1      28.584  40.089  50.384  1.00  0.00     0.046 A 
HETATM   22  C   UNL     1      27.338  41.766  49.214  1.00  0.00     0.130 A 
HETATM   23  C   UNL     1      28.742  39.340  49.208  1.00  0.00     0.030 A 
HETATM   24  N   UNL     1      29.038  39.828  51.654  1.00  0.00    -0.364 N 
HETATM   25  C   UNL     1      28.177  39.836  48.031  1.00  0.00     0.005 A 
HETATM   26  C   UNL     1      27.480  41.039  48.031  1.00  0.00     0.043 A 
HETATM   27  H   UNL     1      29.575  39.012  51.919  1.00  0.00     0.165 HD
HETATM   28  C   UNL     1      28.667  40.833  52.498  1.00  0.00     0.106 A 
HETATM   29  F   UNL     1      26.659  42.922  49.165  1.00  0.00    -0.205 F 
ENDBRANCH   2  19
TORSDOF 3
ENDMDL
MODEL 4
REMARK VINA RESULT:      -9.0      1.854      2.545
REMARK  3 active torsions:
REMARK  status: ('A' for Active; 'I' for Inactive)
REMARK    1  A    between atoms: C_12  and  C_13 
REMARK    2  A    between atoms: C_13  and  N_14 
REMARK       I    between atoms: N_14  and  C_15 
REMARK    3  A    between atoms: C_15  and  C_16 
ROOT
HETATM    1  N   UNL     1      24.941  45.619  51.502  1.00  0.00    -0.352 N 
HETATM    2  C   UNL     1      24.195  45.726  50.356  1.00  0.00     0.254 C 
HETATM    3  O   UNL     1      23.557  44.779  49.902  1.00  0.00    -0.268 OA
HETATM    4  H   UNL     1      25.479  46.417  51.806  1.00  0.00     0.163 HD
ENDROOT
BRANCH   1   5
HETATM    5  C   UNL     1      25.110  44.379  52.219  1.00  0.00     0.165 C 
BRANCH   5   6
HETATM    6  C   UNL     1      26.534  44.192  52.658  1.00  0.00     0.008 C 
HETATM    7  C   UNL     1      27.390  43.113  51.985  1.00  0.00     0.043 C 
HETATM    8  C   UNL     1      26.855  42.432  50.741  1.00  0.00     0.071 C 
HETATM    9  N   UNL     1      28.576  42.725  52.365  1.00  0.00    -0.234 NA
HETATM   10  C   UNL     1      29.047  43.390  53.458  1.00  0.00     0.154 C 
HETATM   11  C   UNL     1      30.165  43.048  54.113  1.00  0.00     0.128 C 
HETATM   12  N   UNL     1      28.425  44.469  54.057  1.00  0.00    -0.239 N 
HETATM   13  C   UNL     1      30.258  44.020  55.221  1.00  0.00     0.263 C 
HETATM   14  N   UNL     1      29.096  44.774  55.220  1.00  0.00    -0.258 N 
HETATM   15  O   UNL     1      31.216  44.146  55.963  1.00  0.00    -0.267 OA
HETATM   16  H   UNL     1      29.113  45.718  55.578  1.00  0.00     0.191 HD
HETATM   17  C   UNL     1      27.133  44.825  53.702  1.00  0.00     0.042 C 
HETATM   18  C   UNL     1      26.482  45.905  54.528  1.00  0.00     0.071 C 
ENDBRANCH   5   6
ENDBRANCH   1   5
BRANCH   2  19
HETATM   19  C   UNL     1      24.207  47.037  49.696  1.00  0.00     0.062 A 
HETATM   20  C   UNL     1      25.279  47.941  49.355  1.00  0.00     0.046 A 
HETATM   21  C   UNL     1      24.708  49.048  48.714  1.00  0.00     0.046 A 
HETATM   22  C   UNL     1      26.684  47.954  49.506  1.00  0.00     0.130 A 
HETATM   23  C   UNL     1      25.460  50.130  48.235  1.00  0.00     0.030 A 
HETATM   24  N   UNL     1      23.351  48.838  48.667  1.00  0.00    -0.364 N 
HETATM   25  C   UNL     1      26.846  50.097  48.408  1.00  0.00     0.005 A 
HETATM   26  C   UNL     1      27.455  49.020  49.039  1.00  0.00     0.043 A 
HETATM   27  H   UNL     1      22.682  49.476  48.257  1.00  0.00     0.165 HD
HETATM   28  C   UNL     1      23.044  47.641  49.244  1.00  0.00     0.106 A 
HETATM   29  F   UNL     1      27.317  46.935  50.107  1.00  0.00    -0.205 F 
ENDBRANCH   2  19
TORSDOF 3
ENDMDL
MODEL 5
REMARK VINA RESULT:      -9.0      2.896      8.028
REMARK  3 active torsions:
REMARK  status: ('A' for Active; 'I' for Inactive)
REMARK    1  A    between atoms: C_12  and  C_13 
REMARK    2  A    between atoms: C_13  and  N_14 
REMARK       I    between atoms: N_14  and  C_15 
REMARK    3  A    between atoms: C_15  and  C_16 
ROOT
HETATM    1  N   UNL     1      26.533  45.956  51.037  1.00  0.00    -0.352 N 
HETATM    2  C   UNL     1      25.987  45.494  52.207  1.00  0.00     0.254 C 
HETATM    3  O   UNL     1      24.969  44.806  52.225  1.00  0.00    -0.268 OA
HETATM    4  H   UNL     1      27.347  46.553  51.085  1.00  0.00     0.163 HD
ENDROOT
BRANCH   1   5
HETATM    5  C   UNL     1      25.921  45.753  49.747  1.00  0.00     0.165 C 
BRANCH   5   6
HETATM    6  C   UNL     1      24.935  46.840  49.432  1.00  0.00     0.008 C 
HETATM    7  C   UNL     1      25.419  48.293  49.359  1.00  0.00     0.043 C 
HETATM    8  C   UNL     1      26.911  48.562  49.370  1.00  0.00     0.071 C 
HETATM    9  N   UNL     1      24.663  49.350  49.260  1.00  0.00    -0.234 NA
HETATM   10  C   UNL     1      23.330  49.070  49.204  1.00  0.00     0.154 C 
HETATM   11  C   UNL     1      22.370  50.002  49.263  1.00  0.00     0.128 C 
HETATM   12  N   UNL     1      22.792  47.800  49.122  1.00  0.00    -0.239 N 
HETATM   13  C   UNL     1      21.107  49.239  49.194  1.00  0.00     0.263 C 
HETATM   14  N   UNL     1      21.424  47.892  49.251  1.00  0.00    -0.258 N 
HETATM   15  O   UNL     1      19.999  49.729  49.065  1.00  0.00    -0.267 OA
HETATM   16  H   UNL     1      20.814  47.217  48.814  1.00  0.00     0.191 HD
HETATM   17  C   UNL     1      23.590  46.682  49.309  1.00  0.00     0.042 C 
HETATM   18  C   UNL     1      22.881  45.352  49.368  1.00  0.00     0.071 C 
ENDBRANCH   5   6
ENDBRANCH   1   5
BRANCH   2  19
HETATM   19  C   UNL     1      26.684  45.874  53.441  1.00  0.00     0.062 A 
HETATM   20  C   UNL     1      27.828  45.316  54.121  1.00  0.00     0.046 A 
HETATM   21  C   UNL     1      28.068  46.101  55.256  1.00  0.00     0.046 A 
HETATM   22  C   UNL     1      28.709  44.232  53.904  1.00  0.00     0.130 A 
HETATM   23  C   UNL     1      29.117  45.853  56.154  1.00  0.00     0.030 A 
HETATM   24  N   UNL     1      27.115  47.091  55.278  1.00  0.00    -0.364 N 
HETATM   25  C   UNL     1      29.960  44.769  55.898  1.00  0.00     0.005 A 
HETATM   26  C   UNL     1      29.759  43.962  54.784  1.00  0.00     0.043 A 
HETATM   27  H   UNL     1      27.044  47.807  55.987  1.00  0.00     0.165 HD
HETATM   28  C   UNL     1      26.289  46.967  54.199  1.00  0.00     0.106 A 
HETATM   29  F   UNL     1      28.556  43.428  52.841  1.00  0.00    -0.205 F 
ENDBRANCH   2  19
TORSDOF 3
ENDMDL
MODEL 6
REMARK VINA RESULT:      -8.8      3.840      5.673
REMARK  3 active torsions:
REMARK  status: ('A' for Active; 'I' for Inactive)
REMARK    1  A    between atoms: C_12  and  C_13 
REMARK    2  A    between atoms: C_13  and  N_14 
REMARK       I    between atoms: N_14  and  C_15 
REMARK    3  A    between atoms: C_15  and  C_16 
ROOT
HETATM    1  N   UNL     1      21.903  46.500  48.947  1.00  0.00    -0.352 N 
HETATM    2  C   UNL     1      21.484  47.598  48.241  1.00  0.00     0.254 C 
HETATM    3  O   UNL     1      22.090  48.010  47.254  1.00  0.00    -0.268 OA
HETATM    4  H   UNL     1      21.391  46.232  49.775  1.00  0.00     0.163 HD
ENDROOT
BRANCH   1   5
HETATM    5  C   UNL     1      23.124  45.791  48.650  1.00  0.00     0.165 C 
BRANCH   5   6
HETATM    6  C   UNL     1      23.943  45.571  49.889  1.00  0.00     0.008 C 
HETATM    7  C   UNL     1      23.793  44.257  50.663  1.00  0.00     0.043 C 
HETATM    8  C   UNL     1      23.007  43.127  50.029  1.00  0.00     0.071 C 
HETATM    9  N   UNL     1      24.307  43.990  51.831  1.00  0.00    -0.234 NA
HETATM   10  C   UNL     1      25.047  45.010  52.352  1.00  0.00     0.154 C 
HETATM   11  C   UNL     1      25.531  45.017  53.601  1.00  0.00     0.128 C 
HETATM   12  N   UNL     1      25.362  46.179  51.685  1.00  0.00    -0.239 N 
HETATM   13  C   UNL     1      26.231  46.312  53.721  1.00  0.00     0.263 C 
HETATM   14  N   UNL     1      25.976  47.038  52.569  1.00  0.00    -0.258 N 
HETATM   15  O   UNL     1      26.938  46.642  54.657  1.00  0.00    -0.267 OA
HETATM   16  H   UNL     1      26.648  47.720  52.250  1.00  0.00     0.191 HD
HETATM   17  C   UNL     1      24.751  46.491  50.481  1.00  0.00     0.042 C 
HETATM   18  C   UNL     1      25.033  47.862  49.919  1.00  0.00     0.071 C 
ENDBRANCH   5   6
ENDBRANCH   1   5
BRANCH   2  19
HETATM   19  C   UNL     1      20.272  48.262  48.735  1.00  0.00     0.062 A 
HETATM   20  C   UNL     1      19.886  49.651  48.804  1.00  0.00     0.046 A 
HETATM   21  C   UNL     1      18.601  49.704  49.358  1.00  0.00     0.046 A 
HETATM   22  C   UNL     1      20.474  50.887  48.451  1.00  0.00     0.130 A 
HETATM   23  C   UNL     1      17.903  50.903  49.567  1.00  0.00     0.030 A 
HETATM   24  N   UNL     1      18.216  48.411  49.623  1.00  0.00    -0.364 N 
HETATM   25  C   UNL     1      18.526  52.099  49.202  1.00  0.00     0.005 A 
HETATM   26  C   UNL     1      19.801  52.094  48.649  1.00  0.00     0.043 A 
HETATM   27  H   UNL     1      17.329  48.145  50.027  1.00  0.00     0.165 HD
HETATM   28  C   UNL     1      19.203  47.546  49.251  1.00  0.00     0.106 A 
HETATM   29  F   UNL     1      21.701  50.933  47.912  1.00  0.00    -0.205 F 
ENDBRANCH   2  19
TORSDOF 3
ENDMDL
MODEL 7
REMARK VINA RESULT:      -8.7      2.810      4.289
REMARK  3 active torsions:
REMARK  status: ('A' for Active; 'I' for Inactive)
REMARK    1  A    between atoms: C_12  and  C_13 
REMARK    2  A    between atoms: C_13  and  N_14 
REMARK       I    between atoms: N_14  and  C_15 
REMARK    3  A    between atoms: C_15  and  C_16 
ROOT
HETATM    1  N   UNL     1      24.867  47.379  50.435  1.00  0.00    -0.352 N 
HETATM    2  C   UNL     1      24.530  48.245  49.427  1.00  0.00     0.254 C 
HETATM    3  O   UNL     1      25.349  49.012  48.925  1.00  0.00    -0.268 OA
HETATM    4  H   UNL     1      24.144  46.801  50.839  1.00  0.00     0.163 HD
ENDROOT
BRANCH   1   5
HETATM    5  C   UNL     1      26.173  47.352  51.048  1.00  0.00     0.165 C 
BRANCH   5   6
HETATM    6  C   UNL     1      26.367  46.108  51.865  1.00  0.00     0.008 C 
HETATM    7  C   UNL     1      26.332  46.203  53.395  1.00  0.00     0.043 C 
HETATM    8  C   UNL     1      25.867  47.497  54.031  1.00  0.00     0.071 C 
HETATM    9  N   UNL     1      26.645  45.252  54.230  1.00  0.00    -0.234 NA
HETATM   10  C   UNL     1      27.013  44.087  53.625  1.00  0.00     0.154 C 
HETATM   11  C   UNL     1      27.525  43.037  54.281  1.00  0.00     0.128 C 
HETATM   12  N   UNL     1      26.948  43.847  52.266  1.00  0.00    -0.239 N 
HETATM   13  C   UNL     1      27.791  42.036  53.228  1.00  0.00     0.263 C 
HETATM   14  N   UNL     1      27.550  42.637  52.004  1.00  0.00    -0.258 N 
HETATM   15  O   UNL     1      28.119  40.880  53.428  1.00  0.00    -0.267 OA
HETATM   16  H   UNL     1      27.262  42.072  51.218  1.00  0.00     0.191 HD
HETATM   17  C   UNL     1      26.694  44.881  51.379  1.00  0.00     0.042 C 
HETATM   18  C   UNL     1      26.811  44.552  49.911  1.00  0.00     0.071 C 
ENDBRANCH   5   6
ENDBRANCH   1   5
BRANCH   2  19
HETATM   19  C   UNL     1      23.132  48.210  48.984  1.00  0.00     0.062 A 
HETATM   20  C   UNL     1      22.158  49.253  48.762  1.00  0.00     0.046 A 
HETATM   21  C   UNL     1      20.978  48.639  48.322  1.00  0.00     0.046 A 
HETATM   22  C   UNL     1      22.135  50.662  48.874  1.00  0.00     0.130 A 
HETATM   23  C   UNL     1      19.815  49.355  48.001  1.00  0.00     0.030 A 
HETATM   24  N   UNL     1      21.212  47.286  48.280  1.00  0.00    -0.364 N 
HETATM   25  C   UNL     1      19.841  50.745  48.128  1.00  0.00     0.005 A 
HETATM   26  C   UNL     1      20.990  51.396  48.562  1.00  0.00     0.043 A 
HETATM   27  H   UNL     1      20.533  46.592  47.996  1.00  0.00     0.165 HD
HETATM   28  C   UNL     1      22.492  47.021  48.667  1.00  0.00     0.106 A 
HETATM   29  F   UNL     1      23.221  51.333  49.286  1.00  0.00    -0.205 F 
ENDBRANCH   2  19
TORSDOF 3
ENDMDL
MODEL 8
REMARK VINA RESULT:      -8.7      3.743      5.729
REMARK  3 active torsions:
REMARK  status: ('A' for Active; 'I' for Inactive)
REMARK    1  A    between atoms: C_12  and  C_13 
REMARK    2  A    between atoms: C_13  and  N_14 
REMARK       I    between atoms: N_14  and  C_15 
REMARK    3  A    between atoms: C_15  and  C_16 
ROOT
HETATM    1  N   UNL     1      22.126  46.597  49.029  1.00  0.00    -0.352 N 
HETATM    2  C   UNL     1      21.701  47.713  48.354  1.00  0.00     0.254 C 
HETATM    3  O   UNL     1      22.329  48.183  47.408  1.00  0.00    -0.268 OA
HETATM    4  H   UNL     1      21.592  46.280  49.825  1.00  0.00     0.163 HD
ENDROOT
BRANCH   1   5
HETATM    5  C   UNL     1      23.377  45.936  48.749  1.00  0.00     0.165 C 
BRANCH   5   6
HETATM    6  C   UNL     1      24.182  45.736  50.000  1.00  0.00     0.008 C 
HETATM    7  C   UNL     1      25.191  46.809  50.422  1.00  0.00     0.043 C 
HETATM    8  C   UNL     1      25.177  48.142  49.700  1.00  0.00     0.071 C 
HETATM    9  N   UNL     1      26.069  46.704  51.380  1.00  0.00    -0.234 NA
HETATM   10  C   UNL     1      26.023  45.511  52.040  1.00  0.00     0.154 C 
HETATM   11  C   UNL     1      26.931  45.126  52.946  1.00  0.00     0.128 C 
HETATM   12  N   UNL     1      25.069  44.533  51.837  1.00  0.00    -0.239 N 
HETATM   13  C   UNL     1      26.491  43.779  53.362  1.00  0.00     0.263 C 
HETATM   14  N   UNL     1      25.430  43.413  52.551  1.00  0.00    -0.258 N 
HETATM   15  O   UNL     1      26.964  43.144  54.287  1.00  0.00    -0.267 OA
HETATM   16  H   UNL     1      24.733  42.771  52.901  1.00  0.00     0.191 HD
HETATM   17  C   UNL     1      24.191  44.613  50.768  1.00  0.00     0.042 C 
HETATM   18  C   UNL     1      23.303  43.417  50.535  1.00  0.00     0.071 C 
ENDBRANCH   5   6
ENDBRANCH   1   5
BRANCH   2  19
HETATM   19  C   UNL     1      20.453  48.321  48.831  1.00  0.00     0.062 A 
HETATM   20  C   UNL     1      20.000  49.690  48.885  1.00  0.00     0.046 A 
HETATM   21  C   UNL     1      18.707  49.684  49.424  1.00  0.00     0.046 A 
HETATM   22  C   UNL     1      20.531  50.951  48.530  1.00  0.00     0.130 A 
HETATM   23  C   UNL     1      17.950  50.849  49.617  1.00  0.00     0.030 A 
HETATM   24  N   UNL     1      18.382  48.376  49.693  1.00  0.00    -0.364 N 
HETATM   25  C   UNL     1      18.518  52.071  49.251  1.00  0.00     0.005 A 
HETATM   26  C   UNL     1      19.799  52.125  48.713  1.00  0.00     0.043 A 
HETATM   27  H   UNL     1      17.503  48.070  50.090  1.00  0.00     0.165 HD
HETATM   28  C   UNL     1      19.413  47.557  49.339  1.00  0.00     0.106 A 
HETATM   29  F   UNL     1      21.761  51.051  48.005  1.00  0.00    -0.205 F 
ENDBRANCH   2  19
TORSDOF 3
ENDMDL
MODEL 9
REMARK VINA RESULT:      -8.6      3.883      8.586
REMARK  3 active torsions:
REMARK  status: ('A' for Active; 'I' for Inactive)
REMARK    1  A    between atoms: C_12  and  C_13 
REMARK    2  A    between atoms: C_13  and  N_14 
REMARK       I    between atoms: N_14  and  C_15 
REMARK    3  A    between atoms: C_15  and  C_16 
ROOT
HETATM    1  N   UNL     1      23.481  46.078  49.624  1.00  0.00    -0.352 N 
HETATM    2  C   UNL     1      24.806  45.850  49.895  1.00  0.00     0.254 C 
HETATM    3  O   UNL     1      25.700  46.228  49.141  1.00  0.00    -0.268 OA
HETATM    4  H   UNL     1      22.787  45.709  50.258  1.00  0.00     0.163 HD
ENDROOT
BRANCH   1   5
HETATM    5  C   UNL     1      23.021  46.696  48.405  1.00  0.00     0.165 C 
BRANCH   5   6
HETATM    6  C   UNL     1      22.164  47.895  48.690  1.00  0.00     0.008 C 
HETATM    7  C   UNL     1      22.834  49.238  49.001  1.00  0.00     0.043 C 
HETATM    8  C   UNL     1      24.327  49.373  48.778  1.00  0.00     0.071 C 
HETATM    9  N   UNL     1      22.234  50.316  49.424  1.00  0.00    -0.234 NA
HETATM   10  C   UNL     1      20.886  50.174  49.568  1.00  0.00     0.154 C 
HETATM   11  C   UNL     1      20.097  51.095  50.139  1.00  0.00     0.128 C 
HETATM   12  N   UNL     1      20.163  49.060  49.187  1.00  0.00    -0.239 N 
HETATM   13  C   UNL     1      18.745  50.503  50.095  1.00  0.00     0.263 C 
HETATM   14  N   UNL     1      18.867  49.204  49.631  1.00  0.00    -0.258 N 
HETATM   15  O   UNL     1      17.715  51.089  50.379  1.00  0.00    -0.267 OA
HETATM   16  H   UNL     1      18.098  48.775  49.138  1.00  0.00     0.191 HD
HETATM   17  C   UNL     1      20.810  47.893  48.815  1.00  0.00     0.042 C 
HETATM   18  C   UNL     1      19.937  46.685  48.581  1.00  0.00     0.071 C 
ENDBRANCH   5   6
ENDBRANCH   1   5
BRANCH   2  19
HETATM   19  C   UNL     1      25.097  45.121  51.135  1.00  0.00     0.062 A 
HETATM   20  C   UNL     1      25.780  45.504  52.348  1.00  0.00     0.046 A 
HETATM   21  C   UNL     1      25.748  44.404  53.214  1.00  0.00     0.046 A 
HETATM   22  C   UNL     1      26.424  46.667  52.828  1.00  0.00     0.130 A 
HETATM   23  C   UNL     1      26.314  44.419  54.497  1.00  0.00     0.030 A 
HETATM   24  N   UNL     1      25.082  43.391  52.565  1.00  0.00    -0.364 N 
HETATM   25  C   UNL     1      26.940  45.592  54.926  1.00  0.00     0.005 A 
HETATM   26  C   UNL     1      26.996  46.708  54.100  1.00  0.00     0.043 A 
HETATM   27  H   UNL     1      24.907  42.474  52.953  1.00  0.00     0.165 HD
HETATM   28  C   UNL     1      24.687  43.811  51.329  1.00  0.00     0.106 A 
HETATM   29  F   UNL     1      26.501  47.770  52.067  1.00  0.00    -0.205 F 
ENDBRANCH   2  19
TORSDOF 3
ENDMDL
MODEL 10
REMARK VINA RESULT:      -8.4      4.229      6.548
REMARK  3 active torsions:
REMARK  status: ('A' for Active; 'I' for Inactive)
REMARK    1  A    between atoms: C_12  and  C_13 
REMARK    2  A    between atoms: C_13  and  N_14 
REMARK       I    between atoms: N_14  and  C_15 
REMARK    3  A    between atoms: C_15  and  C_16 
ROOT
HETATM    1  N   UNL     1      28.271  43.281  52.053  1.00  0.00    -0.352 N 
HETATM    2  C   UNL     1      27.442  42.408  51.398  1.00  0.00     0.254 C 
HETATM    3  O   UNL     1      26.266  42.678  51.162  1.00  0.00    -0.268 OA
HETATM    4  H   UNL     1      29.217  42.991  52.258  1.00  0.00     0.163 HD
ENDROOT
BRANCH   1   5
HETATM    5  C   UNL     1      27.822  44.541  52.593  1.00  0.00     0.165 C 
BRANCH   5   6
HETATM    6  C   UNL     1      28.308  44.737  54.000  1.00  0.00     0.008 C 
HETATM    7  C   UNL     1      27.693  45.850  54.857  1.00  0.00     0.043 C 
HETATM    8  C   UNL     1      26.455  46.559  54.346  1.00  0.00     0.071 C 
HETATM    9  N   UNL     1      28.119  46.244  56.024  1.00  0.00    -0.234 NA
HETATM   10  C   UNL     1      29.205  45.554  56.476  1.00  0.00     0.154 C 
HETATM   11  C   UNL     1      29.902  45.893  57.568  1.00  0.00     0.128 C 
HETATM   12  N   UNL     1      29.752  44.447  55.855  1.00  0.00    -0.239 N 
HETATM   13  C   UNL     1      30.982  44.890  57.646  1.00  0.00     0.263 C 
HETATM   14  N   UNL     1      30.924  44.118  56.498  1.00  0.00    -0.258 N 
HETATM   15  O   UNL     1      31.747  44.756  58.584  1.00  0.00    -0.267 OA
HETATM   16  H   UNL     1      31.254  43.163  56.520  1.00  0.00     0.191 HD
HETATM   17  C   UNL     1      29.349  44.082  54.580  1.00  0.00     0.042 C 
HETATM   18  C   UNL     1      30.123  42.967  53.923  1.00  0.00     0.071 C 
ENDBRANCH   5   6
ENDBRANCH   1   5
BRANCH   2  19
HETATM   19  C   UNL     1      28.036  41.126  51.000  1.00  0.00     0.062 A 
HETATM   20  C   UNL     1      28.068  40.421  49.741  1.00  0.00     0.046 A 
HETATM   21  C   UNL     1      28.796  39.241  49.939  1.00  0.00     0.046 A 
HETATM   22  C   UNL     1      27.571  40.647  48.437  1.00  0.00     0.130 A 
HETATM   23  C   UNL     1      29.037  38.308  48.919  1.00  0.00     0.030 A 
HETATM   24  N   UNL     1      29.187  39.217  51.256  1.00  0.00    -0.364 N 
HETATM   25  C   UNL     1      28.525  38.575  47.648  1.00  0.00     0.005 A 
HETATM   26  C   UNL     1      27.797  39.734  47.406  1.00  0.00     0.043 A 
HETATM   27  H   UNL     1      29.730  38.478  51.683  1.00  0.00     0.165 HD
HETATM   28  C   UNL     1      28.743  40.338  51.895  1.00  0.00     0.106 A 
HETATM   29  F   UNL     1      26.865  41.753  48.156  1.00  0.00    -0.205 F 
ENDBRANCH   2  19
TORSDOF 3
ENDMDL
