MODEL 1
REMARK VINA RESULT:      -8.2      0.000      0.000
REMARK  5 active torsions:
REMARK  status: ('A' for Active; 'I' for Inactive)
REMARK    1  A    between atoms: C_6  and  N_7 
REMARK       I    between atoms: N_7  and  C_8 
REMARK    2  A    between atoms: C_8  and  C_9 
REMARK    3  A    between atoms: C_9  and  O_10 
REMARK    4  A    between atoms: O_10  and  C_11 
REMARK    5  A    between atoms: C_19  and  C_20 
ROOT
HETATM    1  C   UNL     1      27.349  40.403  48.756  1.00  0.00     0.073 C 
HETATM    2  C   UNL     1      27.854  40.605  50.137  1.00  0.00     0.065 A 
HETATM    3  N   UNL     1      28.646  39.683  50.699  1.00  0.00    -0.177 NA
HETATM    4  N   UNL     1      28.926  40.193  51.910  1.00  0.00    -0.262 N 
HETATM    5  H   UNL     1      29.526  39.676  52.547  1.00  0.00     0.191 HD
HETATM    6  C   UNL     1      28.324  41.400  52.158  1.00  0.00     0.137 A 
HETATM    7  C   UNL     1      27.622  41.707  51.010  1.00  0.00     0.046 A 
ENDROOT
BRANCH   6   8
HETATM    8  N   UNL     1      28.448  42.088  53.352  1.00  0.00    -0.309 N 
HETATM    9  C   UNL     1      29.566  42.845  53.656  1.00  0.00     0.252 C 
HETATM   10  O   UNL     1      30.541  42.977  52.916  1.00  0.00    -0.270 OA
HETATM   11  H   UNL     1      27.715  41.989  54.048  1.00  0.00     0.170 HD
BRANCH   9  12
HETATM   12  C   UNL     1      29.470  43.580  55.002  1.00  0.00     0.217 C 
HETATM   13  C   UNL     1      30.657  43.179  55.874  1.00  0.00     0.050 C 
BRANCH  12  14
HETATM   14  O   UNL     1      29.528  44.997  54.842  1.00  0.00    -0.337 OA
BRANCH  14  15
HETATM   15  C   UNL     1      28.345  45.659  54.659  1.00  0.00     0.070 A 
HETATM   16  C   UNL     1      28.318  46.960  55.170  1.00  0.00     0.037 A 
HETATM   17  C   UNL     1      27.169  47.745  55.054  1.00  0.00     0.003 A 
HETATM   18  C   UNL     1      26.043  47.237  54.414  1.00  0.00     0.000 A 
HETATM   19  C   UNL     1      26.068  45.946  53.888  1.00  0.00     0.003 A 
HETATM   20  C   UNL     1      27.217  45.158  54.007  1.00  0.00     0.037 A 
ENDBRANCH  14  15
ENDBRANCH  12  14
ENDBRANCH   9  12
ENDBRANCH   6   8
BRANCH   7  21
HETATM   21  C   UNL     1      26.856  42.920  50.799  1.00  0.00    -0.020 A 
HETATM   22  C   UNL     1      27.484  44.082  50.331  1.00  0.00     0.014 A 
HETATM   23  C   UNL     1      26.742  45.245  50.108  1.00  0.00     0.020 A 
HETATM   24  C   UNL     1      25.369  45.244  50.347  1.00  0.00     0.011 A 
HETATM   25 BR   UNL     1      24.362  46.812  50.036  1.00  0.00    -0.051 Br
HETATM   26  C   UNL     1      24.732  44.092  50.808  1.00  0.00     0.020 A 
HETATM   27  C   UNL     1      25.476  42.932  51.034  1.00  0.00     0.014 A 
ENDBRANCH   7  21
TORSDOF 5
ENDMDL
MODEL 2
REMARK VINA RESULT:      -8.1      2.959      4.695
REMARK  5 active torsions:
REMARK  status: ('A' for Active; 'I' for Inactive)
REMARK    1  A    between atoms: C_6  and  N_7 
REMARK       I    between atoms: N_7  and  C_8 
REMARK    2  A    between atoms: C_8  and  C_9 
REMARK    3  A    between atoms: C_9  and  O_10 
REMARK    4  A    between atoms: O_10  and  C_11 
REMARK    5  A    between atoms: C_19  and  C_20 
ROOT
HETATM    1  C   UNL     1      29.004  38.832  50.336  1.00  0.00     0.073 C 
HETATM    2  C   UNL     1      27.739  39.601  50.234  1.00  0.00     0.065 A 
HETATM    3  N   UNL     1      26.787  39.208  49.378  1.00  0.00    -0.177 NA
HETATM    4  N   UNL     1      25.798  40.099  49.566  1.00  0.00    -0.262 N 
HETATM    5  H   UNL     1      24.940  40.018  49.025  1.00  0.00     0.191 HD
HETATM    6  C   UNL     1      26.088  41.065  50.494  1.00  0.00     0.137 A 
HETATM    7  C   UNL     1      27.350  40.762  50.964  1.00  0.00     0.046 A 
ENDROOT
BRANCH   6   8
HETATM    8  N   UNL     1      25.227  42.099  50.820  1.00  0.00    -0.309 N 
HETATM    9  C   UNL     1      25.298  43.339  50.207  1.00  0.00     0.252 C 
HETATM   10  O   UNL     1      26.114  43.641  49.336  1.00  0.00    -0.270 OA
HETATM   11  H   UNL     1      24.558  41.956  51.570  1.00  0.00     0.170 HD
BRANCH   9  12
HETATM   12  C   UNL     1      24.208  44.319  50.667  1.00  0.00     0.217 C 
HETATM   13  C   UNL     1      22.861  43.863  50.111  1.00  0.00     0.050 C 
BRANCH  12  14
HETATM   14  O   UNL     1      24.083  44.352  52.089  1.00  0.00    -0.337 OA
BRANCH  14  15
HETATM   15  C   UNL     1      25.062  45.001  52.791  1.00  0.00     0.070 A 
HETATM   16  C   UNL     1      25.619  44.260  53.837  1.00  0.00     0.037 A 
HETATM   17  C   UNL     1      26.626  44.806  54.636  1.00  0.00     0.003 A 
HETATM   18  C   UNL     1      27.091  46.093  54.384  1.00  0.00     0.000 A 
HETATM   19  C   UNL     1      26.551  46.832  53.332  1.00  0.00     0.003 A 
HETATM   20  C   UNL     1      25.541  46.287  52.534  1.00  0.00     0.037 A 
ENDBRANCH  14  15
ENDBRANCH  12  14
ENDBRANCH   9  12
ENDBRANCH   6   8
BRANCH   7  21
HETATM   21  C   UNL     1      28.056  41.496  51.996  1.00  0.00    -0.020 A 
HETATM   22  C   UNL     1      28.127  40.991  53.301  1.00  0.00     0.014 A 
HETATM   23  C   UNL     1      28.825  41.688  54.291  1.00  0.00     0.020 A 
HETATM   24  C   UNL     1      29.457  42.889  53.973  1.00  0.00     0.011 A 
HETATM   25 BR   UNL     1      30.410  43.828  55.308  1.00  0.00    -0.051 Br
HETATM   26  C   UNL     1      29.397  43.399  52.677  1.00  0.00     0.020 A 
HETATM   27  C   UNL     1      28.696  42.703  51.690  1.00  0.00     0.014 A 
ENDBRANCH   7  21
TORSDOF 5
ENDMDL
MODEL 3
REMARK VINA RESULT:      -7.8      3.812      5.662
REMARK  5 active torsions:
REMARK  status: ('A' for Active; 'I' for Inactive)
REMARK    1  A    between atoms: C_6  and  N_7 
REMARK       I    between atoms: N_7  and  C_8 
REMARK    2  A    between atoms: C_8  and  C_9 
REMARK    3  A    between atoms: C_9  and  O_10 
REMARK    4  A    between atoms: O_10  and  C_11 
REMARK    5  A    between atoms: C_19  and  C_20 
ROOT
HETATM    1  C   UNL     1      28.259  40.252  50.816  1.00  0.00     0.073 C 
HETATM    2  C   UNL     1      27.600  41.554  50.543  1.00  0.00     0.065 A 
HETATM    3  N   UNL     1      26.796  41.684  49.480  1.00  0.00    -0.177 NA
HETATM    4  N   UNL     1      26.365  42.955  49.557  1.00  0.00    -0.262 N 
HETATM    5  H   UNL     1      25.724  43.311  48.853  1.00  0.00     0.191 HD
HETATM    6  C   UNL     1      26.882  43.655  50.617  1.00  0.00     0.137 A 
HETATM    7  C   UNL     1      27.688  42.762  51.294  1.00  0.00     0.046 A 
ENDROOT
BRANCH   6   8
HETATM    8  N   UNL     1      26.600  44.986  50.867  1.00  0.00    -0.309 N 
HETATM    9  C   UNL     1      25.317  45.432  51.135  1.00  0.00     0.252 C 
HETATM   10  O   UNL     1      24.321  44.709  51.174  1.00  0.00    -0.270 OA
HETATM   11  H   UNL     1      27.354  45.664  50.799  1.00  0.00     0.170 HD
BRANCH   9  12
HETATM   12  C   UNL     1      25.236  46.933  51.452  1.00  0.00     0.217 C 
HETATM   13  C   UNL     1      25.990  47.209  52.750  1.00  0.00     0.050 C 
BRANCH  12  14
HETATM   14  O   UNL     1      25.849  47.727  50.436  1.00  0.00    -0.337 OA
BRANCH  14  15
HETATM   15  C   UNL     1      25.022  48.436  49.607  1.00  0.00     0.070 A 
HETATM   16  C   UNL     1      25.670  49.372  48.797  1.00  0.00     0.037 A 
HETATM   17  C   UNL     1      24.944  50.165  47.907  1.00  0.00     0.003 A 
HETATM   18  C   UNL     1      23.563  50.017  47.813  1.00  0.00     0.000 A 
HETATM   19  C   UNL     1      22.912  49.074  48.607  1.00  0.00     0.003 A 
HETATM   20  C   UNL     1      23.639  48.282  49.500  1.00  0.00     0.037 A 
ENDBRANCH  14  15
ENDBRANCH  12  14
ENDBRANCH   9  12
ENDBRANCH   6   8
BRANCH   7  21
HETATM   21  C   UNL     1      28.416  43.053  52.513  1.00  0.00    -0.020 A 
HETATM   22  C   UNL     1      29.768  42.701  52.632  1.00  0.00     0.014 A 
HETATM   23  C   UNL     1      30.475  43.001  53.799  1.00  0.00     0.020 A 
HETATM   24  C   UNL     1      29.832  43.657  54.847  1.00  0.00     0.011 A 
HETATM   25 BR   UNL     1      30.789  44.071  56.422  1.00  0.00    -0.051 Br
HETATM   26  C   UNL     1      28.488  44.015  54.739  1.00  0.00     0.020 A 
HETATM   27  C   UNL     1      27.782  43.712  53.572  1.00  0.00     0.014 A 
ENDBRANCH   7  21
TORSDOF 5
ENDMDL
MODEL 4
REMARK VINA RESULT:      -7.7      3.363      7.304
REMARK  5 active torsions:
REMARK  status: ('A' for Active; 'I' for Inactive)
REMARK    1  A    between atoms: C_6  and  N_7 
REMARK       I    between atoms: N_7  and  C_8 
REMARK    2  A    between atoms: C_8  and  C_9 
REMARK    3  A    between atoms: C_9  and  O_10 
REMARK    4  A    between atoms: O_10  and  C_11 
REMARK    5  A    between atoms: C_19  and  C_20 
ROOT
HETATM    1  C   UNL     1      26.622  48.402  55.671  1.00  0.00     0.073 C 
HETATM    2  C   UNL     1      26.372  47.534  54.493  1.00  0.00     0.065 A 
HETATM    3  N   UNL     1      25.421  47.865  53.610  1.00  0.00    -0.177 NA
HETATM    4  N   UNL     1      25.488  46.893  52.685  1.00  0.00    -0.262 N 
HETATM    5  H   UNL     1      24.858  46.915  51.887  1.00  0.00     0.191 HD
HETATM    6  C   UNL     1      26.432  45.935  52.951  1.00  0.00     0.137 A 
HETATM    7  C   UNL     1      27.041  46.330  54.126  1.00  0.00     0.046 A 
ENDROOT
BRANCH   6   8
HETATM    8  N   UNL     1      26.649  44.827  52.150  1.00  0.00    -0.309 N 
HETATM    9  C   UNL     1      25.635  43.943  51.823  1.00  0.00     0.252 C 
HETATM   10  O   UNL     1      24.468  44.047  52.204  1.00  0.00    -0.270 OA
HETATM   11  H   UNL     1      27.595  44.631  51.838  1.00  0.00     0.170 HD
BRANCH   9  12
HETATM   12  C   UNL     1      26.075  42.822  50.869  1.00  0.00     0.217 C 
HETATM   13  C   UNL     1      26.794  43.441  49.672  1.00  0.00     0.050 C 
BRANCH  12  14
HETATM   14  O   UNL     1      26.994  41.923  51.488  1.00  0.00    -0.337 OA
BRANCH  14  15
HETATM   15  C   UNL     1      27.237  40.736  50.853  1.00  0.00     0.070 A 
HETATM   16  C   UNL     1      28.555  40.281  50.949  1.00  0.00     0.037 A 
HETATM   17  C   UNL     1      28.939  39.083  50.343  1.00  0.00     0.003 A 
HETATM   18  C   UNL     1      28.002  38.326  49.646  1.00  0.00     0.000 A 
HETATM   19  C   UNL     1      26.682  38.765  49.560  1.00  0.00     0.003 A 
HETATM   20  C   UNL     1      26.297  39.966  50.164  1.00  0.00     0.037 A 
ENDBRANCH  14  15
ENDBRANCH  12  14
ENDBRANCH   9  12
ENDBRANCH   6   8
BRANCH   7  21
HETATM   21  C   UNL     1      28.136  45.635  54.774  1.00  0.00    -0.020 A 
HETATM   22  C   UNL     1      28.526  44.363  54.334  1.00  0.00     0.014 A 
HETATM   23  C   UNL     1      29.595  43.701  54.944  1.00  0.00     0.020 A 
HETATM   24  C   UNL     1      30.278  44.316  55.993  1.00  0.00     0.011 A 
HETATM   25 BR   UNL     1      31.729  43.427  56.814  1.00  0.00    -0.051 Br
HETATM   26  C   UNL     1      29.901  45.583  56.437  1.00  0.00     0.020 A 
HETATM   27  C   UNL     1      28.831  46.241  55.827  1.00  0.00     0.014 A 
ENDBRANCH   7  21
TORSDOF 5
ENDMDL
MODEL 5
REMARK VINA RESULT:      -7.7      3.722      5.870
REMARK  5 active torsions:
REMARK  status: ('A' for Active; 'I' for Inactive)
REMARK    1  A    between atoms: C_6  and  N_7 
REMARK       I    between atoms: N_7  and  C_8 
REMARK    2  A    between atoms: C_8  and  C_9 
REMARK    3  A    between atoms: C_9  and  O_10 
REMARK    4  A    between atoms: O_10  and  C_11 
REMARK    5  A    between atoms: C_19  and  C_20 
ROOT
HETATM    1  C   UNL     1      28.939  40.433  52.564  1.00  0.00     0.073 C 
HETATM    2  C   UNL     1      28.033  41.486  52.040  1.00  0.00     0.065 A 
HETATM    3  N   UNL     1      27.265  41.234  50.972  1.00  0.00    -0.177 NA
HETATM    4  N   UNL     1      26.574  42.373  50.798  1.00  0.00    -0.262 N 
HETATM    5  H   UNL     1      25.903  42.442  50.037  1.00  0.00     0.191 HD
HETATM    6  C   UNL     1      26.885  43.358  51.700  1.00  0.00     0.137 A 
HETATM    7  C   UNL     1      27.832  42.806  52.539  1.00  0.00     0.046 A 
ENDROOT
BRANCH   6   8
HETATM    8  N   UNL     1      26.319  44.620  51.684  1.00  0.00    -0.309 N 
HETATM    9  C   UNL     1      26.355  45.432  50.563  1.00  0.00     0.252 C 
HETATM   10  O   UNL     1      26.885  45.123  49.494  1.00  0.00    -0.270 OA
HETATM   11  H   UNL     1      25.910  44.980  52.541  1.00  0.00     0.170 HD
BRANCH   9  12
HETATM   12  C   UNL     1      25.609  46.763  50.738  1.00  0.00     0.217 C 
HETATM   13  C   UNL     1      25.846  47.285  52.153  1.00  0.00     0.050 C 
BRANCH  12  14
HETATM   14  O   UNL     1      26.084  47.765  49.839  1.00  0.00    -0.337 OA
BRANCH  14  15
HETATM   15  C   UNL     1      25.148  48.511  49.176  1.00  0.00     0.070 A 
HETATM   16  C   UNL     1      23.856  47.978  49.197  1.00  0.00     0.037 A 
HETATM   17  C   UNL     1      22.805  48.636  48.555  1.00  0.00     0.003 A 
HETATM   18  C   UNL     1      23.039  49.841  47.899  1.00  0.00     0.000 A 
HETATM   19  C   UNL     1      24.321  50.387  47.888  1.00  0.00     0.003 A 
HETATM   20  C   UNL     1      25.374  49.726  48.528  1.00  0.00     0.037 A 
ENDBRANCH  14  15
ENDBRANCH  12  14
ENDBRANCH   9  12
ENDBRANCH   6   8
BRANCH   7  21
HETATM   21  C   UNL     1      28.429  43.475  53.678  1.00  0.00    -0.020 A 
HETATM   22  C   UNL     1      29.730  43.149  54.089  1.00  0.00     0.014 A 
HETATM   23  C   UNL     1      30.314  43.809  55.173  1.00  0.00     0.020 A 
HETATM   24  C   UNL     1      29.599  44.799  55.845  1.00  0.00     0.011 A 
HETATM   25 BR   UNL     1      30.391  45.698  57.306  1.00  0.00    -0.051 Br
HETATM   26  C   UNL     1      28.306  45.134  55.443  1.00  0.00     0.020 A 
HETATM   27  C   UNL     1      27.723  44.472  54.361  1.00  0.00     0.014 A 
ENDBRANCH   7  21
TORSDOF 5
ENDMDL
MODEL 6
REMARK VINA RESULT:      -7.5      2.352      4.066
REMARK  5 active torsions:
REMARK  status: ('A' for Active; 'I' for Inactive)
REMARK    1  A    between atoms: C_6  and  N_7 
REMARK       I    between atoms: N_7  and  C_8 
REMARK    2  A    between atoms: C_8  and  C_9 
REMARK    3  A    between atoms: C_9  and  O_10 
REMARK    4  A    between atoms: O_10  and  C_11 
REMARK    5  A    between atoms: C_19  and  C_20 
ROOT
HETATM    1  C   UNL     1      24.472  42.838  49.475  1.00  0.00     0.073 C 
HETATM    2  C   UNL     1      25.422  43.184  50.562  1.00  0.00     0.065 A 
HETATM    3  N   UNL     1      25.934  42.216  51.332  1.00  0.00    -0.177 NA
HETATM    4  N   UNL     1      26.753  42.872  52.172  1.00  0.00    -0.262 N 
HETATM    5  H   UNL     1      27.277  42.353  52.871  1.00  0.00     0.191 HD
HETATM    6  C   UNL     1      26.769  44.231  51.986  1.00  0.00     0.137 A 
HETATM    7  C   UNL     1      25.915  44.470  50.927  1.00  0.00     0.046 A 
ENDROOT
BRANCH   6   8
HETATM    8  N   UNL     1      27.514  45.103  52.759  1.00  0.00    -0.309 N 
HETATM    9  C   UNL     1      27.175  45.405  54.067  1.00  0.00     0.252 C 
HETATM   10  O   UNL     1      26.198  44.943  54.659  1.00  0.00    -0.270 OA
HETATM   11  H   UNL     1      28.306  45.575  52.333  1.00  0.00     0.170 HD
BRANCH   9  12
HETATM   12  C   UNL     1      28.174  46.340  54.766  1.00  0.00     0.217 C 
HETATM   13  C   UNL     1      27.611  47.759  54.765  1.00  0.00     0.050 C 
BRANCH  12  14
HETATM   14  O   UNL     1      28.384  45.975  56.130  1.00  0.00    -0.337 OA
BRANCH  14  15
HETATM   15  C   UNL     1      29.471  45.193  56.411  1.00  0.00     0.070 A 
HETATM   16  C   UNL     1      30.051  45.427  57.661  1.00  0.00     0.037 A 
HETATM   17  C   UNL     1      31.170  44.701  58.072  1.00  0.00     0.003 A 
HETATM   18  C   UNL     1      31.708  43.725  57.239  1.00  0.00     0.000 A 
HETATM   19  C   UNL     1      31.125  43.474  55.998  1.00  0.00     0.003 A 
HETATM   20  C   UNL     1      30.007  44.204  55.584  1.00  0.00     0.037 A 
ENDBRANCH  14  15
ENDBRANCH  12  14
ENDBRANCH   9  12
ENDBRANCH   6   8
BRANCH   7  21
HETATM   21  C   UNL     1      25.647  45.772  50.349  1.00  0.00    -0.020 A 
HETATM   22  C   UNL     1      24.333  46.254  50.268  1.00  0.00     0.014 A 
HETATM   23  C   UNL     1      24.076  47.518  49.731  1.00  0.00     0.020 A 
HETATM   24  C   UNL     1      25.135  48.303  49.278  1.00  0.00     0.011 A 
HETATM   25 BR   UNL     1      24.790  50.016  48.559  1.00  0.00    -0.051 Br
HETATM   26  C   UNL     1      26.446  47.837  49.357  1.00  0.00     0.020 A 
HETATM   27  C   UNL     1      26.701  46.572  49.893  1.00  0.00     0.014 A 
ENDBRANCH   7  21
TORSDOF 5
ENDMDL
MODEL 7
REMARK VINA RESULT:      -7.5     15.335     17.985
REMARK  5 active torsions:
REMARK  status: ('A' for Active; 'I' for Inactive)
REMARK    1  A    between atoms: C_6  and  N_7 
REMARK       I    between atoms: N_7  and  C_8 
REMARK    2  A    between atoms: C_8  and  C_9 
REMARK    3  A    between atoms: C_9  and  O_10 
REMARK    4  A    between atoms: O_10  and  C_11 
REMARK    5  A    between atoms: C_19  and  C_20 
ROOT
HETATM    1  C   UNL     1      43.890  47.295  65.660  1.00  0.00     0.073 C 
HETATM    2  C   UNL     1      42.892  46.453  64.954  1.00  0.00     0.065 A 
HETATM    3  N   UNL     1      43.282  45.325  64.346  1.00  0.00    -0.177 NA
HETATM    4  N   UNL     1      42.142  44.819  63.846  1.00  0.00    -0.262 N 
HETATM    5  H   UNL     1      42.166  43.943  63.329  1.00  0.00     0.191 HD
HETATM    6  C   UNL     1      41.035  45.590  64.090  1.00  0.00     0.137 A 
HETATM    7  C   UNL     1      41.489  46.666  64.827  1.00  0.00     0.046 A 
ENDROOT
BRANCH   6   8
HETATM    8  N   UNL     1      39.766  45.276  63.638  1.00  0.00    -0.309 N 
HETATM    9  C   UNL     1      39.040  44.215  64.154  1.00  0.00     0.252 C 
HETATM   10  O   UNL     1      39.442  43.461  65.042  1.00  0.00    -0.270 OA
HETATM   11  H   UNL     1      39.378  45.810  62.867  1.00  0.00     0.170 HD
BRANCH   9  12
HETATM   12  C   UNL     1      37.630  44.083  63.561  1.00  0.00     0.217 C 
HETATM   13  C   UNL     1      37.478  42.696  62.941  1.00  0.00     0.050 C 
BRANCH  12  14
HETATM   14  O   UNL     1      36.616  44.208  64.558  1.00  0.00    -0.337 OA
BRANCH  14  15
HETATM   15  C   UNL     1      36.415  45.449  65.099  1.00  0.00     0.070 A 
HETATM   16  C   UNL     1      36.072  45.447  66.454  1.00  0.00     0.037 A 
HETATM   17  C   UNL     1      35.835  46.646  67.129  1.00  0.00     0.003 A 
HETATM   18  C   UNL     1      35.954  47.857  66.454  1.00  0.00     0.000 A 
HETATM   19  C   UNL     1      36.312  47.868  65.106  1.00  0.00     0.003 A 
HETATM   20  C   UNL     1      36.546  46.667  64.430  1.00  0.00     0.037 A 
ENDBRANCH  14  15
ENDBRANCH  12  14
ENDBRANCH   9  12
ENDBRANCH   6   8
BRANCH   7  21
HETATM   21  C   UNL     1      40.655  47.732  65.347  1.00  0.00    -0.020 A 
HETATM   22  C   UNL     1      40.344  47.785  66.713  1.00  0.00     0.014 A 
HETATM   23  C   UNL     1      39.558  48.824  67.218  1.00  0.00     0.020 A 
HETATM   24  C   UNL     1      39.088  49.815  66.358  1.00  0.00     0.011 A 
HETATM   25 BR   UNL     1      38.033  51.226  67.041  1.00  0.00    -0.051 Br
HETATM   26  C   UNL     1      39.395  49.775  64.998  1.00  0.00     0.020 A 
HETATM   27  C   UNL     1      40.178  48.734  64.494  1.00  0.00     0.014 A 
ENDBRANCH   7  21
TORSDOF 5
ENDMDL
MODEL 8
REMARK VINA RESULT:      -7.4      3.348      4.910
REMARK  5 active torsions:
REMARK  status: ('A' for Active; 'I' for Inactive)
REMARK    1  A    between atoms: C_6  and  N_7 
REMARK       I    between atoms: N_7  and  C_8 
REMARK    2  A    between atoms: C_8  and  C_9 
REMARK    3  A    between atoms: C_9  and  O_10 
REMARK    4  A    between atoms: O_10  and  C_11 
REMARK    5  A    between atoms: C_19  and  C_20 
ROOT
HETATM    1  C   UNL     1      22.765  41.620  48.439  1.00  0.00     0.073 C 
HETATM    2  C   UNL     1      23.325  42.682  49.313  1.00  0.00     0.065 A 
HETATM    3  N   UNL     1      22.550  43.703  49.702  1.00  0.00    -0.177 NA
HETATM    4  N   UNL     1      23.357  44.439  50.483  1.00  0.00    -0.262 N 
HETATM    5  H   UNL     1      23.000  45.287  50.916  1.00  0.00     0.191 HD
HETATM    6  C   UNL     1      24.631  43.943  50.593  1.00  0.00     0.137 A 
HETATM    7  C   UNL     1      24.642  42.782  49.847  1.00  0.00     0.046 A 
ENDROOT
BRANCH   6   8
HETATM    8  N   UNL     1      25.634  44.559  51.320  1.00  0.00    -0.309 N 
HETATM    9  C   UNL     1      25.577  44.685  52.698  1.00  0.00     0.252 C 
HETATM   10  O   UNL     1      24.651  44.276  53.398  1.00  0.00    -0.270 OA
HETATM   11  H   UNL     1      26.411  44.978  50.818  1.00  0.00     0.170 HD
BRANCH   9  12
HETATM   12  C   UNL     1      26.824  45.339  53.312  1.00  0.00     0.217 C 
HETATM   13  C   UNL     1      26.607  46.849  53.391  1.00  0.00     0.050 C 
BRANCH  12  14
HETATM   14  O   UNL     1      27.068  44.882  54.642  1.00  0.00    -0.337 OA
BRANCH  14  15
HETATM   15  C   UNL     1      28.365  44.612  54.986  1.00  0.00     0.070 A 
HETATM   16  C   UNL     1      28.920  45.501  55.911  1.00  0.00     0.037 A 
HETATM   17  C   UNL     1      30.237  45.343  56.345  1.00  0.00     0.003 A 
HETATM   18  C   UNL     1      31.004  44.285  55.866  1.00  0.00     0.000 A 
HETATM   19  C   UNL     1      30.451  43.384  54.957  1.00  0.00     0.003 A 
HETATM   20  C   UNL     1      29.133  43.545  54.519  1.00  0.00     0.037 A 
ENDBRANCH  14  15
ENDBRANCH  12  14
ENDBRANCH   9  12
ENDBRANCH   6   8
BRANCH   7  21
HETATM   21  C   UNL     1      25.778  41.892  49.703  1.00  0.00    -0.020 A 
HETATM   22  C   UNL     1      26.079  40.960  50.706  1.00  0.00     0.014 A 
HETATM   23  C   UNL     1      27.161  40.089  50.558  1.00  0.00     0.020 A 
HETATM   24  C   UNL     1      27.939  40.145  49.404  1.00  0.00     0.011 A 
HETATM   25 BR   UNL     1      29.398  38.961  49.198  1.00  0.00    -0.051 Br
HETATM   26  C   UNL     1      27.648  41.065  48.398  1.00  0.00     0.020 A 
HETATM   27  C   UNL     1      26.567  41.938  48.548  1.00  0.00     0.014 A 
ENDBRANCH   7  21
TORSDOF 5
ENDMDL
MODEL 9
REMARK VINA RESULT:      -7.4      8.847     10.734
REMARK  5 active torsions:
REMARK  status: ('A' for Active; 'I' for Inactive)
REMARK    1  A    between atoms: C_6  and  N_7 
REMARK       I    between atoms: N_7  and  C_8 
REMARK    2  A    between atoms: C_8  and  C_9 
REMARK    3  A    between atoms: C_9  and  O_10 
REMARK    4  A    between atoms: O_10  and  C_11 
REMARK    5  A    between atoms: C_19  and  C_20 
ROOT
HETATM    1  C   UNL     1      17.143  44.587  46.016  1.00  0.00     0.073 C 
HETATM    2  C   UNL     1      18.285  44.989  46.875  1.00  0.00     0.065 A 
HETATM    3  N   UNL     1      19.208  44.083  47.224  1.00  0.00    -0.177 NA
HETATM    4  N   UNL     1      20.084  44.785  47.962  1.00  0.00    -0.262 N 
HETATM    5  H   UNL     1      20.899  44.318  48.354  1.00  0.00     0.191 HD
HETATM    6  C   UNL     1      19.748  46.105  48.121  1.00  0.00     0.137 A 
HETATM    7  C   UNL     1      18.578  46.277  47.409  1.00  0.00     0.046 A 
ENDROOT
BRANCH   6   8
HETATM    8  N   UNL     1      20.490  47.001  48.869  1.00  0.00    -0.309 N 
HETATM    9  C   UNL     1      21.579  47.678  48.346  1.00  0.00     0.252 C 
HETATM   10  O   UNL     1      21.989  47.552  47.191  1.00  0.00    -0.270 OA
HETATM   11  H   UNL     1      20.258  47.124  49.850  1.00  0.00     0.170 HD
BRANCH   9  12
HETATM   12  C   UNL     1      22.218  48.674  49.325  1.00  0.00     0.217 C 
HETATM   13  C   UNL     1      23.727  48.443  49.356  1.00  0.00     0.050 C 
BRANCH  12  14
HETATM   14  O   UNL     1      22.011  50.028  48.921  1.00  0.00    -0.337 OA
BRANCH  14  15
HETATM   15  C   UNL     1      20.781  50.575  49.163  1.00  0.00     0.070 A 
HETATM   16  C   UNL     1      20.472  51.688  48.376  1.00  0.00     0.037 A 
HETATM   17  C   UNL     1      19.249  52.346  48.525  1.00  0.00     0.003 A 
HETATM   18  C   UNL     1      18.321  51.884  49.454  1.00  0.00     0.000 A 
HETATM   19  C   UNL     1      18.616  50.765  50.230  1.00  0.00     0.003 A 
HETATM   20  C   UNL     1      19.842  50.109  50.085  1.00  0.00     0.037 A 
ENDBRANCH  14  15
ENDBRANCH  12  14
ENDBRANCH   9  12
ENDBRANCH   6   8
BRANCH   7  21
HETATM   21  C   UNL     1      17.869  47.533  47.259  1.00  0.00    -0.020 A 
HETATM   22  C   UNL     1      16.667  47.753  47.946  1.00  0.00     0.014 A 
HETATM   23  C   UNL     1      15.994  48.971  47.818  1.00  0.00     0.020 A 
HETATM   24  C   UNL     1      16.527  49.972  47.008  1.00  0.00     0.011 A 
HETATM   25 BR   UNL     1      15.623  51.624  46.842  1.00  0.00    -0.051 Br
HETATM   26  C   UNL     1      17.724  49.766  46.324  1.00  0.00     0.020 A 
HETATM   27  C   UNL     1      18.394  48.547  46.450  1.00  0.00     0.014 A 
ENDBRANCH   7  21
TORSDOF 5
ENDMDL
MODEL 10
REMARK VINA RESULT:      -7.3      3.459      7.042
REMARK  5 active torsions:
REMARK  status: ('A' for Active; 'I' for Inactive)
REMARK    1  A    between atoms: C_6  and  N_7 
REMARK       I    between atoms: N_7  and  C_8 
REMARK    2  A    between atoms: C_8  and  C_9 
REMARK    3  A    between atoms: C_9  and  O_10 
REMARK    4  A    between atoms: O_10  and  C_11 
REMARK    5  A    between atoms: C_19  and  C_20 
ROOT
HETATM    1  C   UNL     1      26.945  48.376  55.193  1.00  0.00     0.073 C 
HETATM    2  C   UNL     1      26.594  47.299  54.233  1.00  0.00     0.065 A 
HETATM    3  N   UNL     1      25.592  47.483  53.364  1.00  0.00    -0.177 NA
HETATM    4  N   UNL     1      25.571  46.343  52.652  1.00  0.00    -0.262 N 
HETATM    5  H   UNL     1      24.888  46.228  51.908  1.00  0.00     0.191 HD
HETATM    6  C   UNL     1      26.508  45.423  53.047  1.00  0.00     0.137 A 
HETATM    7  C   UNL     1      27.206  46.023  54.076  1.00  0.00     0.046 A 
ENDROOT
BRANCH   6   8
HETATM    8  N   UNL     1      26.642  44.170  52.474  1.00  0.00    -0.309 N 
HETATM    9  C   UNL     1      27.032  43.998  51.157  1.00  0.00     0.252 C 
HETATM   10  O   UNL     1      27.290  44.918  50.380  1.00  0.00    -0.270 OA
HETATM   11  H   UNL     1      26.393  43.355  53.026  1.00  0.00     0.170 HD
BRANCH   9  12
HETATM   12  C   UNL     1      27.183  42.526  50.744  1.00  0.00     0.217 C 
HETATM   13  C   UNL     1      28.285  41.884  51.583  1.00  0.00     0.050 C 
BRANCH  12  14
HETATM   14  O   UNL     1      25.990  41.779  50.980  1.00  0.00    -0.337 OA
BRANCH  14  15
HETATM   15  C   UNL     1      25.039  41.786  49.996  1.00  0.00     0.070 A 
HETATM   16  C   UNL     1      25.273  40.889  48.951  1.00  0.00     0.037 A 
HETATM   17  C   UNL     1      24.382  40.797  47.880  1.00  0.00     0.003 A 
HETATM   18  C   UNL     1      23.242  41.595  47.855  1.00  0.00     0.000 A 
HETATM   19  C   UNL     1      22.993  42.481  48.902  1.00  0.00     0.003 A 
HETATM   20  C   UNL     1      23.887  42.575  49.973  1.00  0.00     0.037 A 
ENDBRANCH  14  15
ENDBRANCH  12  14
ENDBRANCH   9  12
ENDBRANCH   6   8
BRANCH   7  21
HETATM   21  C   UNL     1      28.326  45.431  54.781  1.00  0.00    -0.020 A 
HETATM   22  C   UNL     1      28.827  46.030  55.945  1.00  0.00     0.014 A 
HETATM   23  C   UNL     1      29.893  45.448  56.636  1.00  0.00     0.020 A 
HETATM   24  C   UNL     1      30.455  44.263  56.165  1.00  0.00     0.011 A 
HETATM   25 BR   UNL     1      31.891  43.470  57.104  1.00  0.00    -0.051 Br
HETATM   26  C   UNL     1      29.964  43.656  55.011  1.00  0.00     0.020 A 
HETATM   27  C   UNL     1      28.900  44.240  54.319  1.00  0.00     0.014 A 
ENDBRANCH   7  21
TORSDOF 5
ENDMDL
