MODEL 1
REMARK VINA RESULT:      -8.5      0.000      0.000
REMARK  6 active torsions:
REMARK  status: ('A' for Active; 'I' for Inactive)
REMARK    1  A    between atoms: C_2  and  O_3 
REMARK    2  A    between atoms: C_2  and  C_4 
REMARK    3  A    between atoms: C_6  and  N_7 
REMARK       I    between atoms: N_7  and  C_8 
REMARK    4  A    between atoms: C_8  and  C_9 
REMARK    5  A    between atoms: C_12  and  C_13 
REMARK    6  A    between atoms: C_18  and  C_19 
ROOT
HETATM    1  C   UNL     1      24.057  45.978  49.198  1.00  0.00     0.096 A 
HETATM    2  C   UNL     1      25.152  45.368  49.784  1.00  0.00     0.138 A 
HETATM    3  N   UNL     1      25.189  44.087  49.307  1.00  0.00    -0.240 N 
HETATM    4  C   UNL     1      26.146  43.081  49.728  1.00  0.00     0.221 C 
HETATM    5  C   UNL     1      27.375  43.750  50.374  1.00  0.00     0.068 C 
HETATM    6  C   UNL     1      27.030  44.920  51.316  1.00  0.00     0.143 C 
HETATM    7  N   UNL     1      26.088  45.816  50.652  1.00  0.00    -0.363 N 
HETATM    8  N   UNL     1      24.262  43.834  48.370  1.00  0.00    -0.181 NA
HETATM    9  C   UNL     1      23.559  44.972  48.327  1.00  0.00     0.160 A 
HETATM   10  H   UNL     1      25.954  46.730  51.094  1.00  0.00     0.162 HD
ENDROOT
BRANCH   1  11
HETATM   11  C   UNL     1      23.599  47.339  49.466  1.00  0.00     0.261 C 
HETATM   12  N   UNL     1      22.490  47.726  48.732  1.00  0.00    -0.323 N 
HETATM   13  H   UNL     1      22.106  47.055  48.085  1.00  0.00     0.169 HD
HETATM   14  O   UNL     1      24.176  48.039  50.295  1.00  0.00    -0.267 OA
BRANCH  12  15
HETATM   15  C   UNL     1      21.803  48.959  48.789  1.00  0.00     0.035 A 
HETATM   16  C   UNL     1      20.603  49.160  49.476  1.00  0.00     0.039 A 
HETATM   17  C   UNL     1      19.967  50.417  49.481  1.00  0.00    -0.028 A 
HETATM   18  C   UNL     1      20.566  51.479  48.794  1.00  0.00     0.010 A 
HETATM   19  C   UNL     1      21.762  51.291  48.107  1.00  0.00     0.003 A 
HETATM   20  C   UNL     1      22.377  50.037  48.106  1.00  0.00     0.029 A 
BRANCH  17  21
HETATM   21  C   UNL     1      18.681  50.599  50.257  1.00  0.00     0.147 C 
HETATM   22  C   UNL     1      17.489  50.778  49.325  1.00  0.00     0.044 C 
BRANCH  21  23
HETATM   23  O   UNL     1      18.450  49.468  51.096  1.00  0.00    -0.391 OA
HETATM   24  H   UNL     1      19.318  49.178  51.423  1.00  0.00     0.210 HD
ENDBRANCH  21  23
ENDBRANCH  17  21
ENDBRANCH  12  15
ENDBRANCH   1  11
BRANCH   4  25
HETATM   25  C   UNL     1      25.463  42.061  50.612  1.00  0.00     0.409 C 
HETATM   26  F   UNL     1      24.443  42.562  51.336  1.00  0.00    -0.169 F 
HETATM   27  F   UNL     1      24.973  41.022  49.895  1.00  0.00    -0.169 F 
HETATM   28  F   UNL     1      26.352  41.524  51.487  1.00  0.00    -0.169 F 
ENDBRANCH   4  25
BRANCH   6  29
HETATM   29  C   UNL     1      26.621  44.481  52.685  1.00  0.00     0.075 A 
HETATM   30  O   UNL     1      25.372  44.847  53.097  1.00  0.00    -0.325 OA
HETATM   31  C   UNL     1      25.200  44.340  54.345  1.00  0.00     0.142 A 
HETATM   32  C   UNL     1      26.316  43.642  54.740  1.00  0.00     0.027 A 
HETATM   33  C   UNL     1      27.232  43.724  53.666  1.00  0.00     0.037 A 
ENDBRANCH   6  29
TORSDOF 6
ENDMDL
MODEL 2
REMARK VINA RESULT:      -8.3      4.251      8.748
REMARK  6 active torsions:
REMARK  status: ('A' for Active; 'I' for Inactive)
REMARK    1  A    between atoms: C_2  and  O_3 
REMARK    2  A    between atoms: C_2  and  C_4 
REMARK    3  A    between atoms: C_6  and  N_7 
REMARK       I    between atoms: N_7  and  C_8 
REMARK    4  A    between atoms: C_8  and  C_9 
REMARK    5  A    between atoms: C_12  and  C_13 
REMARK    6  A    between atoms: C_18  and  C_19 
ROOT
HETATM    1  C   UNL     1      20.531  46.581  48.130  1.00  0.00     0.096 A 
HETATM    2  C   UNL     1      19.753  47.397  48.933  1.00  0.00     0.138 A 
HETATM    3  N   UNL     1      18.452  47.047  48.703  1.00  0.00    -0.240 N 
HETATM    4  C   UNL     1      17.305  47.711  49.294  1.00  0.00     0.221 C 
HETATM    5  C   UNL     1      17.732  48.498  50.548  1.00  0.00     0.068 C 
HETATM    6  C   UNL     1      19.060  49.262  50.388  1.00  0.00     0.143 C 
HETATM    7  N   UNL     1      20.067  48.371  49.818  1.00  0.00    -0.363 N 
HETATM    8  N   UNL     1      18.315  45.990  47.887  1.00  0.00    -0.181 NA
HETATM    9  C   UNL     1      19.574  45.729  47.518  1.00  0.00     0.160 A 
HETATM   10  H   UNL     1      21.035  48.703  49.864  1.00  0.00     0.162 HD
ENDROOT
BRANCH   1  11
HETATM   11  C   UNL     1      21.986  46.649  48.009  1.00  0.00     0.261 C 
HETATM   12  N   UNL     1      22.656  46.743  49.218  1.00  0.00    -0.323 N 
HETATM   13  H   UNL     1      22.099  46.765  50.057  1.00  0.00     0.169 HD
HETATM   14  O   UNL     1      22.522  46.607  46.906  1.00  0.00    -0.267 OA
BRANCH  12  15
HETATM   15  C   UNL     1      24.052  46.796  49.429  1.00  0.00     0.035 A 
HETATM   16  C   UNL     1      24.858  45.675  49.649  1.00  0.00     0.039 A 
HETATM   17  C   UNL     1      26.244  45.804  49.863  1.00  0.00    -0.028 A 
HETATM   18  C   UNL     1      26.815  47.081  49.838  1.00  0.00     0.010 A 
HETATM   19  C   UNL     1      26.023  48.205  49.619  1.00  0.00     0.003 A 
HETATM   20  C   UNL     1      24.649  48.062  49.415  1.00  0.00     0.029 A 
BRANCH  17  21
HETATM   21  C   UNL     1      27.084  44.563  50.073  1.00  0.00     0.147 C 
HETATM   22  C   UNL     1      26.827  43.942  51.440  1.00  0.00     0.044 C 
BRANCH  21  23
HETATM   23  O   UNL     1      26.797  43.599  49.062  1.00  0.00    -0.391 OA
HETATM   24  H   UNL     1      25.932  43.833  48.687  1.00  0.00     0.210 HD
ENDBRANCH  21  23
ENDBRANCH  17  21
ENDBRANCH  12  15
ENDBRANCH   1  11
BRANCH   4  25
HETATM   25  C   UNL     1      16.603  48.550  48.249  1.00  0.00     0.409 C 
HETATM   26  F   UNL     1      15.979  49.634  48.749  1.00  0.00    -0.169 F 
HETATM   27  F   UNL     1      17.459  48.986  47.294  1.00  0.00    -0.169 F 
HETATM   28  F   UNL     1      15.667  47.810  47.601  1.00  0.00    -0.169 F 
ENDBRANCH   4  25
BRANCH   6  29
HETATM   29  C   UNL     1      18.912  50.573  49.686  1.00  0.00     0.075 A 
HETATM   30  O   UNL     1      17.952  51.418  50.163  1.00  0.00    -0.325 OA
HETATM   31  C   UNL     1      17.996  52.542  49.402  1.00  0.00     0.142 A 
HETATM   32  C   UNL     1      18.980  52.439  48.447  1.00  0.00     0.027 A 
HETATM   33  C   UNL     1      19.578  51.172  48.634  1.00  0.00     0.037 A 
ENDBRANCH   6  29
TORSDOF 6
ENDMDL
MODEL 3
REMARK VINA RESULT:      -8.2      3.871      8.604
REMARK  6 active torsions:
REMARK  status: ('A' for Active; 'I' for Inactive)
REMARK    1  A    between atoms: C_2  and  O_3 
REMARK    2  A    between atoms: C_2  and  C_4 
REMARK    3  A    between atoms: C_6  and  N_7 
REMARK       I    between atoms: N_7  and  C_8 
REMARK    4  A    between atoms: C_8  and  C_9 
REMARK    5  A    between atoms: C_12  and  C_13 
REMARK    6  A    between atoms: C_18  and  C_19 
ROOT
HETATM    1  C   UNL     1      21.517  46.714  48.310  1.00  0.00     0.096 A 
HETATM    2  C   UNL     1      20.326  47.281  48.728  1.00  0.00     0.138 A 
HETATM    3  N   UNL     1      19.414  47.052  47.735  1.00  0.00    -0.240 N 
HETATM    4  C   UNL     1      18.050  47.546  47.743  1.00  0.00     0.221 C 
HETATM    5  C   UNL     1      17.624  47.918  49.176  1.00  0.00     0.068 C 
HETATM    6  C   UNL     1      18.709  48.656  49.982  1.00  0.00     0.143 C 
HETATM    7  N   UNL     1      19.977  47.943  49.856  1.00  0.00    -0.363 N 
HETATM    8  N   UNL     1      19.884  46.285  46.739  1.00  0.00    -0.181 NA
HETATM    9  C   UNL     1      21.167  46.107  47.075  1.00  0.00     0.160 A 
HETATM   10  H   UNL     1      20.712  48.218  50.513  1.00  0.00     0.162 HD
ENDROOT
BRANCH   1  11
HETATM   11  C   UNL     1      22.784  46.772  49.036  1.00  0.00     0.261 C 
HETATM   12  N   UNL     1      23.269  45.538  49.439  1.00  0.00    -0.323 N 
HETATM   13  H   UNL     1      22.718  44.726  49.209  1.00  0.00     0.169 HD
HETATM   14  O   UNL     1      23.340  47.848  49.236  1.00  0.00    -0.267 OA
BRANCH  12  15
HETATM   15  C   UNL     1      24.472  45.266  50.127  1.00  0.00     0.035 A 
HETATM   16  C   UNL     1      24.564  45.084  51.510  1.00  0.00     0.039 A 
HETATM   17  C   UNL     1      25.801  44.825  52.131  1.00  0.00    -0.028 A 
HETATM   18  C   UNL     1      26.950  44.735  51.336  1.00  0.00     0.010 A 
HETATM   19  C   UNL     1      26.871  44.912  49.957  1.00  0.00     0.003 A 
HETATM   20  C   UNL     1      25.638  45.176  49.357  1.00  0.00     0.029 A 
BRANCH  17  21
HETATM   21  C   UNL     1      25.854  44.611  53.628  1.00  0.00     0.147 C 
HETATM   22  C   UNL     1      25.977  45.933  54.375  1.00  0.00     0.044 C 
BRANCH  21  23
HETATM   23  O   UNL     1      24.678  43.934  54.068  1.00  0.00    -0.391 OA
HETATM   24  H   UNL     1      24.406  43.343  53.347  1.00  0.00     0.210 HD
ENDBRANCH  21  23
ENDBRANCH  17  21
ENDBRANCH  12  15
ENDBRANCH   1  11
BRANCH   4  25
HETATM   25  C   UNL     1      17.908  48.675  46.745  1.00  0.00     0.409 C 
HETATM   26  F   UNL     1      17.057  49.644  47.135  1.00  0.00    -0.169 F 
HETATM   27  F   UNL     1      19.097  49.268  46.483  1.00  0.00    -0.169 F 
HETATM   28  F   UNL     1      17.458  48.200  45.555  1.00  0.00    -0.169 F 
ENDBRANCH   4  25
BRANCH   6  29
HETATM   29  C   UNL     1      18.780  50.119  49.686  1.00  0.00     0.075 A 
HETATM   30  O   UNL     1      17.748  50.887  50.143  1.00  0.00    -0.325 OA
HETATM   31  C   UNL     1      18.015  52.169  49.783  1.00  0.00     0.142 A 
HETATM   32  C   UNL     1      19.210  52.241  49.110  1.00  0.00     0.027 A 
HETATM   33  C   UNL     1      19.710  50.919  49.052  1.00  0.00     0.037 A 
ENDBRANCH   6  29
TORSDOF 6
ENDMDL
MODEL 4
REMARK VINA RESULT:      -8.1     13.284     15.463
REMARK  6 active torsions:
REMARK  status: ('A' for Active; 'I' for Inactive)
REMARK    1  A    between atoms: C_2  and  O_3 
REMARK    2  A    between atoms: C_2  and  C_4 
REMARK    3  A    between atoms: C_6  and  N_7 
REMARK       I    between atoms: N_7  and  C_8 
REMARK    4  A    between atoms: C_8  and  C_9 
REMARK    5  A    between atoms: C_12  and  C_13 
REMARK    6  A    between atoms: C_18  and  C_19 
ROOT
HETATM    1  C   UNL     1      33.377  50.087  41.983  1.00  0.00     0.096 A 
HETATM    2  C   UNL     1      32.019  49.970  41.743  1.00  0.00     0.138 A 
HETATM    3  N   UNL     1      31.834  48.766  41.122  1.00  0.00    -0.240 N 
HETATM    4  C   UNL     1      30.558  48.282  40.630  1.00  0.00     0.221 C 
HETATM    5  C   UNL     1      29.402  49.038  41.313  1.00  0.00     0.068 C 
HETATM    6  C   UNL     1      29.641  50.553  41.460  1.00  0.00     0.143 C 
HETATM    7  N   UNL     1      30.972  50.782  42.014  1.00  0.00    -0.363 N 
HETATM    8  N   UNL     1      32.954  48.031  41.029  1.00  0.00    -0.181 NA
HETATM    9  C   UNL     1      33.892  48.846  41.524  1.00  0.00     0.160 A 
HETATM   10  H   UNL     1      31.158  51.731  42.351  1.00  0.00     0.162 HD
ENDROOT
BRANCH   1  11
HETATM   11  C   UNL     1      34.035  51.248  42.579  1.00  0.00     0.261 C 
HETATM   12  N   UNL     1      35.379  51.369  42.263  1.00  0.00    -0.323 N 
HETATM   13  H   UNL     1      35.781  50.660  41.670  1.00  0.00     0.169 HD
HETATM   14  O   UNL     1      33.403  52.030  43.283  1.00  0.00    -0.267 OA
BRANCH  12  15
HETATM   15  C   UNL     1      36.271  52.390  42.659  1.00  0.00     0.035 A 
HETATM   16  C   UNL     1      36.583  52.692  43.987  1.00  0.00     0.039 A 
HETATM   17  C   UNL     1      37.476  53.732  44.308  1.00  0.00    -0.028 A 
HETATM   18  C   UNL     1      38.067  54.461  43.269  1.00  0.00     0.010 A 
HETATM   19  C   UNL     1      37.765  54.168  41.941  1.00  0.00     0.003 A 
HETATM   20  C   UNL     1      36.872  53.137  41.639  1.00  0.00     0.029 A 
BRANCH  17  21
HETATM   21  C   UNL     1      37.805  54.012  45.759  1.00  0.00     0.147 C 
HETATM   22  C   UNL     1      39.289  53.815  46.040  1.00  0.00     0.044 C 
BRANCH  21  23
HETATM   23  O   UNL     1      37.439  55.350  46.095  1.00  0.00    -0.391 OA
HETATM   24  H   UNL     1      36.832  55.659  45.403  1.00  0.00     0.210 HD
ENDBRANCH  21  23
ENDBRANCH  17  21
ENDBRANCH  12  15
ENDBRANCH   1  11
BRANCH   4  25
HETATM   25  C   UNL     1      30.532  48.350  39.119  1.00  0.00     0.409 C 
HETATM   26  F   UNL     1      31.277  49.348  38.605  1.00  0.00    -0.169 F 
HETATM   27  F   UNL     1      30.964  47.197  38.556  1.00  0.00    -0.169 F 
HETATM   28  F   UNL     1      29.260  48.527  38.677  1.00  0.00    -0.169 F 
ENDBRANCH   4  25
BRANCH   6  29
HETATM   29  C   UNL     1      29.337  51.327  40.217  1.00  0.00     0.075 A 
HETATM   30  O   UNL     1      28.143  51.064  39.610  1.00  0.00    -0.325 OA
HETATM   31  C   UNL     1      28.062  51.876  38.524  1.00  0.00     0.142 A 
HETATM   32  C   UNL     1      29.182  52.666  38.428  1.00  0.00     0.027 A 
HETATM   33  C   UNL     1      30.004  52.319  39.525  1.00  0.00     0.037 A 
ENDBRANCH   6  29
TORSDOF 6
ENDMDL
MODEL 5
REMARK VINA RESULT:      -8.0      4.058      8.891
REMARK  6 active torsions:
REMARK  status: ('A' for Active; 'I' for Inactive)
REMARK    1  A    between atoms: C_2  and  O_3 
REMARK    2  A    between atoms: C_2  and  C_4 
REMARK    3  A    between atoms: C_6  and  N_7 
REMARK       I    between atoms: N_7  and  C_8 
REMARK    4  A    between atoms: C_8  and  C_9 
REMARK    5  A    between atoms: C_12  and  C_13 
REMARK    6  A    between atoms: C_18  and  C_19 
ROOT
HETATM    1  C   UNL     1      22.583  48.786  49.008  1.00  0.00     0.096 A 
HETATM    2  C   UNL     1      21.469  48.982  48.211  1.00  0.00     0.138 A 
HETATM    3  N   UNL     1      21.129  50.302  48.330  1.00  0.00    -0.240 N 
HETATM    4  C   UNL     1      19.968  50.911  47.709  1.00  0.00     0.221 C 
HETATM    5  C   UNL     1      19.469  50.040  46.541  1.00  0.00     0.068 C 
HETATM    6  C   UNL     1      19.472  48.528  46.838  1.00  0.00     0.143 C 
HETATM    7  N   UNL     1      20.760  48.150  47.414  1.00  0.00    -0.363 N 
HETATM    8  N   UNL     1      21.997  51.016  49.064  1.00  0.00    -0.181 NA
HETATM    9  C   UNL     1      22.859  50.090  49.498  1.00  0.00     0.160 A 
HETATM   10  H   UNL     1      20.954  47.145  47.455  1.00  0.00     0.162 HD
ENDROOT
BRANCH   1  11
HETATM   11  C   UNL     1      23.252  47.506  49.229  1.00  0.00     0.261 C 
HETATM   12  N   UNL     1      24.353  47.573  50.067  1.00  0.00    -0.323 N 
HETATM   13  H   UNL     1      24.598  48.478  50.438  1.00  0.00     0.169 HD
HETATM   14  O   UNL     1      22.827  46.481  48.704  1.00  0.00    -0.267 OA
BRANCH  12  15
HETATM   15  C   UNL     1      25.182  46.511  50.492  1.00  0.00     0.035 A 
HETATM   16  C   UNL     1      25.190  45.988  51.787  1.00  0.00     0.039 A 
HETATM   17  C   UNL     1      26.052  44.933  52.143  1.00  0.00    -0.028 A 
HETATM   18  C   UNL     1      26.903  44.398  51.168  1.00  0.00     0.010 A 
HETATM   19  C   UNL     1      26.903  44.911  49.873  1.00  0.00     0.003 A 
HETATM   20  C   UNL     1      26.047  45.961  49.537  1.00  0.00     0.029 A 
BRANCH  17  21
HETATM   21  C   UNL     1      26.012  44.378  53.550  1.00  0.00     0.147 C 
HETATM   22  C   UNL     1      26.479  45.411  54.568  1.00  0.00     0.044 C 
BRANCH  21  23
HETATM   23  O   UNL     1      24.686  43.967  53.878  1.00  0.00    -0.391 OA
HETATM   24  H   UNL     1      24.163  44.776  54.005  1.00  0.00     0.210 HD
ENDBRANCH  21  23
ENDBRANCH  17  21
ENDBRANCH  12  15
ENDBRANCH   1  11
BRANCH   4  25
HETATM   25  C   UNL     1      18.916  51.197  48.758  1.00  0.00     0.409 C 
HETATM   26  F   UNL     1      17.653  51.152  48.291  1.00  0.00    -0.169 F 
HETATM   27  F   UNL     1      18.990  50.330  49.796  1.00  0.00    -0.169 F 
HETATM   28  F   UNL     1      19.105  52.432  49.290  1.00  0.00    -0.169 F 
ENDBRANCH   4  25
BRANCH   6  29
HETATM   29  C   UNL     1      18.279  48.071  47.614  1.00  0.00     0.075 A 
HETATM   30  O   UNL     1      17.056  48.402  47.106  1.00  0.00    -0.325 OA
HETATM   31  C   UNL     1      16.122  47.884  47.946  1.00  0.00     0.142 A 
HETATM   32  C   UNL     1      16.726  47.212  48.982  1.00  0.00     0.027 A 
HETATM   33  C   UNL     1      18.119  47.325  48.765  1.00  0.00     0.037 A 
ENDBRANCH   6  29
TORSDOF 6
ENDMDL
MODEL 6
REMARK VINA RESULT:      -7.8     12.972     15.265
REMARK  6 active torsions:
REMARK  status: ('A' for Active; 'I' for Inactive)
REMARK    1  A    between atoms: C_2  and  O_3 
REMARK    2  A    between atoms: C_2  and  C_4 
REMARK    3  A    between atoms: C_6  and  N_7 
REMARK       I    between atoms: N_7  and  C_8 
REMARK    4  A    between atoms: C_8  and  C_9 
REMARK    5  A    between atoms: C_12  and  C_13 
REMARK    6  A    between atoms: C_18  and  C_19 
ROOT
HETATM    1  C   UNL     1      32.385  51.448  41.922  1.00  0.00     0.096 A 
HETATM    2  C   UNL     1      31.672  51.074  40.797  1.00  0.00     0.138 A 
HETATM    3  N   UNL     1      30.427  51.626  40.920  1.00  0.00    -0.240 N 
HETATM    4  C   UNL     1      29.339  51.418  39.983  1.00  0.00     0.221 C 
HETATM    5  C   UNL     1      29.887  50.929  38.629  1.00  0.00     0.068 C 
HETATM    6  C   UNL     1      31.007  49.877  38.747  1.00  0.00     0.143 C 
HETATM    7  N   UNL     1      32.002  50.334  39.713  1.00  0.00    -0.363 N 
HETATM    8  N   UNL     1      30.296  52.424  41.992  1.00  0.00    -0.181 NA
HETATM    9  C   UNL     1      31.473  52.290  42.613  1.00  0.00     0.160 A 
HETATM   10  H   UNL     1      32.889  49.823  39.717  1.00  0.00     0.162 HD
ENDROOT
BRANCH   1  11
HETATM   11  C   UNL     1      33.749  51.032  42.239  1.00  0.00     0.261 C 
HETATM   12  N   UNL     1      34.535  52.025  42.799  1.00  0.00    -0.323 N 
HETATM   13  H   UNL     1      34.113  52.931  42.930  1.00  0.00     0.169 HD
HETATM   14  O   UNL     1      34.116  49.880  42.021  1.00  0.00    -0.267 OA
BRANCH  12  15
HETATM   15  C   UNL     1      35.875  51.924  43.235  1.00  0.00     0.035 A 
HETATM   16  C   UNL     1      36.426  52.686  44.269  1.00  0.00     0.039 A 
HETATM   17  C   UNL     1      37.775  52.539  44.645  1.00  0.00    -0.028 A 
HETATM   18  C   UNL     1      38.565  51.598  43.973  1.00  0.00     0.010 A 
HETATM   19  C   UNL     1      38.026  50.832  42.942  1.00  0.00     0.003 A 
HETATM   20  C   UNL     1      36.689  50.994  42.576  1.00  0.00     0.029 A 
BRANCH  17  21
HETATM   21  C   UNL     1      38.327  53.367  45.785  1.00  0.00     0.147 C 
HETATM   22  C   UNL     1      37.665  54.737  45.849  1.00  0.00     0.044 C 
BRANCH  21  23
HETATM   23  O   UNL     1      38.121  52.691  47.025  1.00  0.00    -0.391 OA
HETATM   24  H   UNL     1      38.160  53.366  47.723  1.00  0.00     0.210 HD
ENDBRANCH  21  23
ENDBRANCH  17  21
ENDBRANCH  12  15
ENDBRANCH   1  11
BRANCH   4  25
HETATM   25  C   UNL     1      28.303  50.502  40.596  1.00  0.00     0.409 C 
HETATM   26  F   UNL     1      27.361  51.146  41.312  1.00  0.00    -0.169 F 
HETATM   27  F   UNL     1      27.659  49.769  39.656  1.00  0.00    -0.169 F 
HETATM   28  F   UNL     1      28.896  49.606  41.425  1.00  0.00    -0.169 F 
ENDBRANCH   4  25
BRANCH   6  29
HETATM   29  C   UNL     1      30.499  48.490  38.977  1.00  0.00     0.075 A 
HETATM   30  O   UNL     1      29.526  48.046  38.129  1.00  0.00    -0.325 OA
HETATM   31  C   UNL     1      29.224  46.775  38.500  1.00  0.00     0.142 A 
HETATM   32  C   UNL     1      29.996  46.389  39.570  1.00  0.00     0.027 A 
HETATM   33  C   UNL     1      30.826  47.492  39.875  1.00  0.00     0.037 A 
ENDBRANCH   6  29
TORSDOF 6
ENDMDL
MODEL 7
REMARK VINA RESULT:      -7.7      4.866      7.491
REMARK  6 active torsions:
REMARK  status: ('A' for Active; 'I' for Inactive)
REMARK    1  A    between atoms: C_2  and  O_3 
REMARK    2  A    between atoms: C_2  and  C_4 
REMARK    3  A    between atoms: C_6  and  N_7 
REMARK       I    between atoms: N_7  and  C_8 
REMARK    4  A    between atoms: C_8  and  C_9 
REMARK    5  A    between atoms: C_12  and  C_13 
REMARK    6  A    between atoms: C_18  and  C_19 
ROOT
HETATM    1  C   UNL     1      27.422  41.162  51.285  1.00  0.00     0.096 A 
HETATM    2  C   UNL     1      27.238  40.120  50.394  1.00  0.00     0.138 A 
HETATM    3  N   UNL     1      28.298  39.272  50.560  1.00  0.00    -0.240 N 
HETATM    4  C   UNL     1      28.531  38.081  49.763  1.00  0.00     0.221 C 
HETATM    5  C   UNL     1      27.226  37.636  49.075  1.00  0.00     0.068 C 
HETATM    6  C   UNL     1      26.396  38.796  48.493  1.00  0.00     0.143 C 
HETATM    7  N   UNL     1      26.264  39.850  49.495  1.00  0.00    -0.363 N 
HETATM    8  N   UNL     1      29.115  39.621  51.566  1.00  0.00    -0.181 NA
HETATM    9  C   UNL     1      28.598  40.782  51.984  1.00  0.00     0.160 A 
HETATM   10  H   UNL     1      25.562  40.569  49.298  1.00  0.00     0.162 HD
ENDROOT
BRANCH   1  11
HETATM   11  C   UNL     1      26.556  42.333  51.410  1.00  0.00     0.261 C 
HETATM   12  N   UNL     1      27.186  43.460  51.911  1.00  0.00    -0.323 N 
HETATM   13  H   UNL     1      28.163  43.378  52.148  1.00  0.00     0.169 HD
HETATM   14  O   UNL     1      25.377  42.275  51.073  1.00  0.00    -0.267 OA
BRANCH  12  15
HETATM   15  C   UNL     1      26.629  44.741  52.120  1.00  0.00     0.035 A 
HETATM   16  C   UNL     1      26.709  45.449  53.322  1.00  0.00     0.039 A 
HETATM   17  C   UNL     1      26.120  46.720  53.461  1.00  0.00    -0.028 A 
HETATM   18  C   UNL     1      25.457  47.281  52.363  1.00  0.00     0.010 A 
HETATM   19  C   UNL     1      25.371  46.586  51.159  1.00  0.00     0.003 A 
HETATM   20  C   UNL     1      25.955  45.323  51.039  1.00  0.00     0.029 A 
BRANCH  17  21
HETATM   21  C   UNL     1      26.250  47.463  54.773  1.00  0.00     0.147 C 
HETATM   22  C   UNL     1      27.703  47.804  55.077  1.00  0.00     0.044 C 
BRANCH  21  23
HETATM   23  O   UNL     1      25.487  48.668  54.731  1.00  0.00    -0.391 OA
HETATM   24  H   UNL     1      25.933  49.305  55.313  1.00  0.00     0.210 HD
ENDBRANCH  21  23
ENDBRANCH  17  21
ENDBRANCH  12  15
ENDBRANCH   1  11
BRANCH   4  25
HETATM   25  C   UNL     1      29.681  38.318  48.810  1.00  0.00     0.409 C 
HETATM   26  F   UNL     1      29.633  37.559  47.698  1.00  0.00    -0.169 F 
HETATM   27  F   UNL     1      29.746  39.611  48.410  1.00  0.00    -0.169 F 
HETATM   28  F   UNL     1      30.864  38.059  49.424  1.00  0.00    -0.169 F 
ENDBRANCH   4  25
BRANCH   6  29
HETATM   29  C   UNL     1      26.876  39.259  47.155  1.00  0.00     0.075 A 
HETATM   30  O   UNL     1      27.187  40.584  47.041  1.00  0.00    -0.325 OA
HETATM   31  C   UNL     1      27.610  40.785  45.766  1.00  0.00     0.142 A 
HETATM   32  C   UNL     1      27.588  39.607  45.059  1.00  0.00     0.027 A 
HETATM   33  C   UNL     1      27.122  38.618  45.957  1.00  0.00     0.037 A 
ENDBRANCH   6  29
TORSDOF 6
ENDMDL
MODEL 8
REMARK VINA RESULT:      -7.7      2.089      2.409
REMARK  6 active torsions:
REMARK  status: ('A' for Active; 'I' for Inactive)
REMARK    1  A    between atoms: C_2  and  O_3 
REMARK    2  A    between atoms: C_2  and  C_4 
REMARK    3  A    between atoms: C_6  and  N_7 
REMARK       I    between atoms: N_7  and  C_8 
REMARK    4  A    between atoms: C_8  and  C_9 
REMARK    5  A    between atoms: C_12  and  C_13 
REMARK    6  A    between atoms: C_18  and  C_19 
ROOT
HETATM    1  C   UNL     1      22.879  46.735  48.764  1.00  0.00     0.096 A 
HETATM    2  C   UNL     1      24.110  46.329  49.250  1.00  0.00     0.138 A 
HETATM    3  N   UNL     1      24.075  44.963  49.313  1.00  0.00    -0.240 N 
HETATM    4  C   UNL     1      25.146  44.138  49.839  1.00  0.00     0.221 C 
HETATM    5  C   UNL     1      26.470  44.924  49.852  1.00  0.00     0.068 C 
HETATM    6  C   UNL     1      26.329  46.385  50.321  1.00  0.00     0.143 C 
HETATM    7  N   UNL     1      25.216  47.016  49.617  1.00  0.00    -0.363 N 
HETATM    8  N   UNL     1      22.952  44.429  48.807  1.00  0.00    -0.181 NA
HETATM    9  C   UNL     1      22.218  45.506  48.503  1.00  0.00     0.160 A 
HETATM   10  H   UNL     1      25.162  48.036  49.690  1.00  0.00     0.162 HD
ENDROOT
BRANCH   1  11
HETATM   11  C   UNL     1      22.452  48.121  48.589  1.00  0.00     0.261 C 
HETATM   12  N   UNL     1      21.096  48.331  48.783  1.00  0.00    -0.323 N 
HETATM   13  H   UNL     1      20.532  47.529  49.015  1.00  0.00     0.169 HD
HETATM   14  O   UNL     1      23.268  48.994  48.308  1.00  0.00    -0.267 OA
BRANCH  12  15
HETATM   15  C   UNL     1      20.393  49.554  48.714  1.00  0.00     0.035 A 
HETATM   16  C   UNL     1      19.676  49.988  47.596  1.00  0.00     0.039 A 
HETATM   17  C   UNL     1      19.005  51.226  47.595  1.00  0.00    -0.028 A 
HETATM   18  C   UNL     1      19.052  52.021  48.746  1.00  0.00     0.010 A 
HETATM   19  C   UNL     1      19.762  51.598  49.868  1.00  0.00     0.003 A 
HETATM   20  C   UNL     1      20.427  50.371  49.851  1.00  0.00     0.029 A 
BRANCH  17  21
HETATM   21  C   UNL     1      18.221  51.649  46.371  1.00  0.00     0.147 C 
HETATM   22  C   UNL     1      17.384  50.500  45.823  1.00  0.00     0.044 C 
BRANCH  21  23
HETATM   23  O   UNL     1      17.361  52.740  46.693  1.00  0.00    -0.391 OA
HETATM   24  H   UNL     1      17.919  53.534  46.742  1.00  0.00     0.210 HD
ENDBRANCH  21  23
ENDBRANCH  17  21
ENDBRANCH  12  15
ENDBRANCH   1  11
BRANCH   4  25
HETATM   25  C   UNL     1      24.747  43.580  51.188  1.00  0.00     0.409 C 
HETATM   26  F   UNL     1      24.094  44.460  51.971  1.00  0.00    -0.169 F 
HETATM   27  F   UNL     1      23.956  42.487  51.067  1.00  0.00    -0.169 F 
HETATM   28  F   UNL     1      25.846  43.170  51.872  1.00  0.00    -0.169 F 
ENDBRANCH   4  25
BRANCH   6  29
HETATM   29  C   UNL     1      26.295  46.531  51.809  1.00  0.00     0.075 A 
HETATM   30  O   UNL     1      25.463  47.490  52.310  1.00  0.00    -0.325 OA
HETATM   31  C   UNL     1      25.573  47.445  53.663  1.00  0.00     0.142 A 
HETATM   32  C   UNL     1      26.456  46.462  54.042  1.00  0.00     0.027 A 
HETATM   33  C   UNL     1      26.917  45.865  52.846  1.00  0.00     0.037 A 
ENDBRANCH   6  29
TORSDOF 6
ENDMDL
MODEL 9
REMARK VINA RESULT:      -7.7      2.209      3.501
REMARK  6 active torsions:
REMARK  status: ('A' for Active; 'I' for Inactive)
REMARK    1  A    between atoms: C_2  and  O_3 
REMARK    2  A    between atoms: C_2  and  C_4 
REMARK    3  A    between atoms: C_6  and  N_7 
REMARK       I    between atoms: N_7  and  C_8 
REMARK    4  A    between atoms: C_8  and  C_9 
REMARK    5  A    between atoms: C_12  and  C_13 
REMARK    6  A    between atoms: C_18  and  C_19 
ROOT
HETATM    1  C   UNL     1      24.072  47.387  49.620  1.00  0.00     0.096 A 
HETATM    2  C   UNL     1      24.116  46.089  50.099  1.00  0.00     0.138 A 
HETATM    3  N   UNL     1      25.359  45.913  50.639  1.00  0.00    -0.240 N 
HETATM    4  C   UNL     1      25.846  44.661  51.189  1.00  0.00     0.221 C 
HETATM    5  C   UNL     1      24.665  43.733  51.532  1.00  0.00     0.068 C 
HETATM    6  C   UNL     1      23.548  43.719  50.471  1.00  0.00     0.143 C 
HETATM    7  N   UNL     1      23.201  45.092  50.113  1.00  0.00    -0.363 N 
HETATM    8  N   UNL     1      26.106  47.028  50.649  1.00  0.00    -0.181 NA
HETATM    9  C   UNL     1      25.334  47.912  50.004  1.00  0.00     0.160 A 
HETATM   10  H   UNL     1      22.335  45.210  49.580  1.00  0.00     0.162 HD
ENDROOT
BRANCH   1  11
HETATM   11  C   UNL     1      22.948  47.990  48.907  1.00  0.00     0.261 C 
HETATM   12  N   UNL     1      22.178  48.848  49.675  1.00  0.00    -0.323 N 
HETATM   13  H   UNL     1      22.446  48.975  50.638  1.00  0.00     0.169 HD
HETATM   14  O   UNL     1      22.754  47.737  47.722  1.00  0.00    -0.267 OA
BRANCH  12  15
HETATM   15  C   UNL     1      21.053  49.598  49.266  1.00  0.00     0.035 A 
HETATM   16  C   UNL     1      19.757  49.084  49.168  1.00  0.00     0.039 A 
HETATM   17  C   UNL     1      18.683  49.889  48.743  1.00  0.00    -0.028 A 
HETATM   18  C   UNL     1      18.927  51.232  48.431  1.00  0.00     0.010 A 
HETATM   19  C   UNL     1      20.213  51.756  48.526  1.00  0.00     0.003 A 
HETATM   20  C   UNL     1      21.270  50.943  48.942  1.00  0.00     0.029 A 
BRANCH  17  21
HETATM   21  C   UNL     1      17.290  49.299  48.673  1.00  0.00     0.147 C 
HETATM   22  C   UNL     1      16.320  50.245  47.977  1.00  0.00     0.044 C 
BRANCH  21  23
HETATM   23  O   UNL     1      17.319  48.059  47.969  1.00  0.00    -0.391 OA
HETATM   24  H   UNL     1      17.028  47.374  48.594  1.00  0.00     0.210 HD
ENDBRANCH  21  23
ENDBRANCH  17  21
ENDBRANCH  12  15
ENDBRANCH   1  11
BRANCH   4  25
HETATM   25  C   UNL     1      26.860  44.047  50.249  1.00  0.00     0.409 C 
HETATM   26  F   UNL     1      27.003  42.716  50.395  1.00  0.00    -0.169 F 
HETATM   27  F   UNL     1      26.546  44.276  48.951  1.00  0.00    -0.169 F 
HETATM   28  F   UNL     1      28.082  44.607  50.441  1.00  0.00    -0.169 F 
ENDBRANCH   4  25
BRANCH   6  29
HETATM   29  C   UNL     1      23.841  42.823  49.311  1.00  0.00     0.075 A 
HETATM   30  O   UNL     1      23.627  43.343  48.067  1.00  0.00    -0.325 OA
HETATM   31  C   UNL     1      23.965  42.381  47.170  1.00  0.00     0.142 A 
HETATM   32  C   UNL     1      24.405  41.251  47.817  1.00  0.00     0.027 A 
HETATM   33  C   UNL     1      24.334  41.538  49.200  1.00  0.00     0.037 A 
ENDBRANCH   6  29
TORSDOF 6
ENDMDL
MODEL 10
REMARK VINA RESULT:      -7.6      4.972      8.816
REMARK  6 active torsions:
REMARK  status: ('A' for Active; 'I' for Inactive)
REMARK    1  A    between atoms: C_2  and  O_3 
REMARK    2  A    between atoms: C_2  and  C_4 
REMARK    3  A    between atoms: C_6  and  N_7 
REMARK       I    between atoms: N_7  and  C_8 
REMARK    4  A    between atoms: C_8  and  C_9 
REMARK    5  A    between atoms: C_12  and  C_13 
REMARK    6  A    between atoms: C_18  and  C_19 
ROOT
HETATM    1  C   UNL     1      25.297  43.161  49.723  1.00  0.00     0.096 A 
HETATM    2  C   UNL     1      25.331  43.601  51.034  1.00  0.00     0.138 A 
HETATM    3  N   UNL     1      25.060  44.940  51.005  1.00  0.00    -0.240 N 
HETATM    4  C   UNL     1      25.069  45.806  52.170  1.00  0.00     0.221 C 
HETATM    5  C   UNL     1      24.934  44.971  53.457  1.00  0.00     0.068 C 
HETATM    6  C   UNL     1      25.772  43.678  53.458  1.00  0.00     0.143 C 
HETATM    7  N   UNL     1      25.559  42.961  52.205  1.00  0.00    -0.363 N 
HETATM    8  N   UNL     1      24.745  45.400  49.784  1.00  0.00    -0.181 NA
HETATM    9  C   UNL     1      24.919  44.326  49.005  1.00  0.00     0.160 A 
HETATM   10  H   UNL     1      25.894  41.993  52.181  1.00  0.00     0.162 HD
ENDROOT
BRANCH   1  11
HETATM   11  C   UNL     1      25.589  41.800  49.277  1.00  0.00     0.261 C 
HETATM   12  N   UNL     1      26.938  41.522  49.132  1.00  0.00    -0.323 N 
HETATM   13  H   UNL     1      27.589  42.265  49.334  1.00  0.00     0.169 HD
HETATM   14  O   UNL     1      24.678  41.002  49.074  1.00  0.00    -0.267 OA
BRANCH  12  15
HETATM   15  C   UNL     1      27.532  40.300  48.748  1.00  0.00     0.035 A 
HETATM   16  C   UNL     1      28.136  39.405  49.635  1.00  0.00     0.039 A 
HETATM   17  C   UNL     1      28.719  38.207  49.178  1.00  0.00    -0.028 A 
HETATM   18  C   UNL     1      28.672  37.911  47.810  1.00  0.00     0.010 A 
HETATM   19  C   UNL     1      28.072  38.795  46.917  1.00  0.00     0.003 A 
HETATM   20  C   UNL     1      27.505  39.982  47.384  1.00  0.00     0.029 A 
BRANCH  17  21
HETATM   21  C   UNL     1      29.342  37.253  50.174  1.00  0.00     0.147 C 
HETATM   22  C   UNL     1      30.068  38.004  51.283  1.00  0.00     0.044 C 
BRANCH  21  23
HETATM   23  O   UNL     1      28.337  36.423  50.753  1.00  0.00    -0.391 OA
HETATM   24  H   UNL     1      27.528  36.958  50.812  1.00  0.00     0.210 HD
ENDBRANCH  21  23
ENDBRANCH  17  21
ENDBRANCH  12  15
ENDBRANCH   1  11
BRANCH   4  25
HETATM   25  C   UNL     1      26.293  46.696  52.138  1.00  0.00     0.409 C 
HETATM   26  F   UNL     1      27.405  46.077  51.697  1.00  0.00    -0.169 F 
HETATM   27  F   UNL     1      26.103  47.785  51.354  1.00  0.00    -0.169 F 
HETATM   28  F   UNL     1      26.562  47.173  53.380  1.00  0.00    -0.169 F 
ENDBRANCH   4  25
BRANCH   6  29
HETATM   29  C   UNL     1      27.205  43.898  53.821  1.00  0.00     0.075 A 
HETATM   30  O   UNL     1      27.450  44.738  54.869  1.00  0.00    -0.325 OA
HETATM   31  C   UNL     1      28.796  44.785  55.036  1.00  0.00     0.142 A 
HETATM   32  C   UNL     1      29.424  43.977  54.118  1.00  0.00     0.027 A 
HETATM   33  C   UNL     1      28.398  43.397  53.337  1.00  0.00     0.037 A 
ENDBRANCH   6  29
TORSDOF 6
ENDMDL
