MODEL 1
REMARK VINA RESULT:      -8.7      0.000      0.000
REMARK  5 active torsions:
REMARK  status: ('A' for Active; 'I' for Inactive)
REMARK    1  A    between atoms: C_3  and  O_4 
REMARK    2  A    between atoms: O_4  and  C_5 
REMARK    3  A    between atoms: C_14  and  N_15 
REMARK       I    between atoms: N_15  and  C_16 
REMARK    4  A    between atoms: C_16  and  C_17 
REMARK    5  A    between atoms: C_17  and  C_18 
ROOT
HETATM    1  C   UNL     1      22.933  50.538  48.237  1.00  0.00     0.076 A 
HETATM    2  C   UNL     1      22.732  51.009  49.538  1.00  0.00     0.039 A 
HETATM    3  C   UNL     1      21.436  51.097  50.054  1.00  0.00     0.025 A 
HETATM    4  C   UNL     1      20.340  50.736  49.262  1.00  0.00     0.044 A 
HETATM    5  C   UNL     1      19.010  50.823  49.793  1.00  0.00     0.099 C 
HETATM    6  N   UNL     1      17.934  50.894  50.221  1.00  0.00    -0.191 NA
HETATM    7  C   UNL     1      20.544  50.297  47.949  1.00  0.00     0.025 A 
HETATM    8  C   UNL     1      21.841  50.205  47.435  1.00  0.00     0.039 A 
ENDROOT
BRANCH   1   9
HETATM    9  O   UNL     1      24.181  50.439  47.663  1.00  0.00    -0.311 OA
BRANCH   9  10
HETATM   10  C   UNL     1      25.139  49.716  48.340  1.00  0.00     0.078 A 
HETATM   11  C   UNL     1      26.455  50.159  48.223  1.00  0.00     0.037 A 
HETATM   12  C   UNL     1      27.475  49.471  48.875  1.00  0.00     0.005 A 
HETATM   13  C   UNL     1      27.175  48.340  49.640  1.00  0.00     0.029 A 
HETATM   14  C   UNL     1      25.858  47.871  49.742  1.00  0.00     0.037 A 
HETATM   15  C   UNL     1      24.845  48.556  49.068  1.00  0.00     0.066 A 
BRANCH  14  16
HETATM   16  N   UNL     1      25.638  46.736  50.552  1.00  0.00    -0.327 N 
HETATM   17  C   UNL     1      25.403  46.711  51.918  1.00  0.00     0.227 C 
HETATM   18  O   UNL     1      25.264  47.691  52.647  1.00  0.00    -0.273 OA
HETATM   19  H   UNL     1      25.678  45.844  50.077  1.00  0.00     0.169 HD
BRANCH  17  20
HETATM   20  C   UNL     1      25.326  45.296  52.495  1.00  0.00     0.159 C 
BRANCH  20  21
HETATM   21  C   UNL     1      26.561  44.955  53.271  1.00  0.00     0.017 A 
HETATM   22  N   UNL     1      27.009  45.738  54.313  1.00  0.00    -0.369 N 
HETATM   23  H   UNL     1      26.571  46.605  54.610  1.00  0.00     0.165 HD
HETATM   24  C   UNL     1      28.144  45.190  54.846  1.00  0.00     0.088 A 
HETATM   25  C   UNL     1      28.426  44.036  54.154  1.00  0.00     0.019 A 
HETATM   26  C   UNL     1      27.428  43.884  53.161  1.00  0.00     0.027 A 
ENDBRANCH  20  21
ENDBRANCH  17  20
ENDBRANCH  14  16
ENDBRANCH   9  10
ENDBRANCH   1   9
TORSDOF 5
ENDMDL
MODEL 2
REMARK VINA RESULT:      -8.6      1.750      8.183
REMARK  5 active torsions:
REMARK  status: ('A' for Active; 'I' for Inactive)
REMARK    1  A    between atoms: C_3  and  O_4 
REMARK    2  A    between atoms: O_4  and  C_5 
REMARK    3  A    between atoms: C_14  and  N_15 
REMARK       I    between atoms: N_15  and  C_16 
REMARK    4  A    between atoms: C_16  and  C_17 
REMARK    5  A    between atoms: C_17  and  C_18 
ROOT
HETATM    1  C   UNL     1      26.063  46.109  52.387  1.00  0.00     0.076 A 
HETATM    2  C   UNL     1      25.909  47.161  53.295  1.00  0.00     0.039 A 
HETATM    3  C   UNL     1      26.636  47.163  54.488  1.00  0.00     0.025 A 
HETATM    4  C   UNL     1      27.500  46.102  54.785  1.00  0.00     0.044 A 
HETATM    5  C   UNL     1      28.249  46.106  56.008  1.00  0.00     0.099 C 
HETATM    6  N   UNL     1      28.854  46.108  56.999  1.00  0.00    -0.191 NA
HETATM    7  C   UNL     1      27.625  45.035  53.889  1.00  0.00     0.025 A 
HETATM    8  C   UNL     1      26.901  45.036  52.693  1.00  0.00     0.039 A 
ENDROOT
BRANCH   1   9
HETATM    9  O   UNL     1      25.368  46.038  51.201  1.00  0.00    -0.311 OA
BRANCH   9  10
HETATM   10  C   UNL     1      25.432  47.127  50.358  1.00  0.00     0.078 A 
HETATM   11  C   UNL     1      26.703  47.534  49.959  1.00  0.00     0.037 A 
HETATM   12  C   UNL     1      26.842  48.631  49.112  1.00  0.00     0.005 A 
HETATM   13  C   UNL     1      25.708  49.320  48.672  1.00  0.00     0.029 A 
HETATM   14  C   UNL     1      24.426  48.935  49.090  1.00  0.00     0.037 A 
HETATM   15  C   UNL     1      24.299  47.845  49.955  1.00  0.00     0.066 A 
BRANCH  14  16
HETATM   16  N   UNL     1      23.333  49.669  48.582  1.00  0.00    -0.327 N 
HETATM   17  C   UNL     1      22.623  50.672  49.222  1.00  0.00     0.227 C 
HETATM   18  O   UNL     1      22.883  51.152  50.325  1.00  0.00    -0.273 OA
HETATM   19  H   UNL     1      23.028  49.413  47.652  1.00  0.00     0.169 HD
BRANCH  17  20
HETATM   20  C   UNL     1      21.420  51.172  48.421  1.00  0.00     0.159 C 
BRANCH  20  21
HETATM   21  C   UNL     1      20.134  50.893  49.136  1.00  0.00     0.017 A 
HETATM   22  N   UNL     1      20.024  49.896  50.081  1.00  0.00    -0.369 N 
HETATM   23  H   UNL     1      20.775  49.262  50.338  1.00  0.00     0.165 HD
HETATM   24  C   UNL     1      18.749  49.870  50.578  1.00  0.00     0.088 A 
HETATM   25  C   UNL     1      18.031  50.868  49.962  1.00  0.00     0.019 A 
HETATM   26  C   UNL     1      18.903  51.516  49.054  1.00  0.00     0.027 A 
ENDBRANCH  20  21
ENDBRANCH  17  20
ENDBRANCH  14  16
ENDBRANCH   9  10
ENDBRANCH   1   9
TORSDOF 5
ENDMDL
MODEL 3
REMARK VINA RESULT:      -8.1      5.454     11.241
REMARK  5 active torsions:
REMARK  status: ('A' for Active; 'I' for Inactive)
REMARK    1  A    between atoms: C_3  and  O_4 
REMARK    2  A    between atoms: O_4  and  C_5 
REMARK    3  A    between atoms: C_14  and  N_15 
REMARK       I    between atoms: N_15  and  C_16 
REMARK    4  A    between atoms: C_16  and  C_17 
REMARK    5  A    between atoms: C_17  and  C_18 
ROOT
HETATM    1  C   UNL     1      19.531  50.133  49.616  1.00  0.00     0.076 A 
HETATM    2  C   UNL     1      20.209  48.936  49.367  1.00  0.00     0.039 A 
HETATM    3  C   UNL     1      21.480  48.963  48.788  1.00  0.00     0.025 A 
HETATM    4  C   UNL     1      22.064  50.185  48.434  1.00  0.00     0.044 A 
HETATM    5  C   UNL     1      23.371  50.213  47.842  1.00  0.00     0.099 C 
HETATM    6  N   UNL     1      24.426  50.237  47.362  1.00  0.00    -0.191 NA
HETATM    7  C   UNL     1      21.367  51.378  48.654  1.00  0.00     0.025 A 
HETATM    8  C   UNL     1      20.098  51.351  49.239  1.00  0.00     0.039 A 
ENDROOT
BRANCH   1   9
HETATM    9  O   UNL     1      18.272  50.177  50.172  1.00  0.00    -0.311 OA
BRANCH   9  10
HETATM   10  C   UNL     1      17.345  51.013  49.586  1.00  0.00     0.078 A 
HETATM   11  C   UNL     1      16.718  50.541  48.435  1.00  0.00     0.037 A 
HETATM   12  C   UNL     1      15.775  51.336  47.789  1.00  0.00     0.005 A 
HETATM   13  C   UNL     1      15.466  52.602  48.294  1.00  0.00     0.029 A 
HETATM   14  C   UNL     1      16.111  53.096  49.436  1.00  0.00     0.037 A 
HETATM   15  C   UNL     1      17.070  52.299  50.066  1.00  0.00     0.066 A 
BRANCH  14  16
HETATM   16  N   UNL     1      15.725  54.374  49.894  1.00  0.00    -0.327 N 
HETATM   17  C   UNL     1      14.712  54.676  50.790  1.00  0.00     0.227 C 
HETATM   18  O   UNL     1      14.026  53.863  51.408  1.00  0.00    -0.273 OA
HETATM   19  H   UNL     1      16.237  55.154  49.502  1.00  0.00     0.169 HD
BRANCH  17  20
HETATM   20  C   UNL     1      14.488  56.178  50.971  1.00  0.00     0.159 C 
BRANCH  20  21
HETATM   21  C   UNL     1      15.046  56.660  52.275  1.00  0.00     0.017 A 
HETATM   22  N   UNL     1      15.476  55.789  53.253  1.00  0.00    -0.369 N 
HETATM   23  H   UNL     1      15.419  54.777  53.187  1.00  0.00     0.165 HD
HETATM   24  C   UNL     1      15.945  56.496  54.327  1.00  0.00     0.088 A 
HETATM   25  C   UNL     1      15.831  57.836  54.037  1.00  0.00     0.019 A 
HETATM   26  C   UNL     1      15.267  57.942  52.743  1.00  0.00     0.027 A 
ENDBRANCH  20  21
ENDBRANCH  17  20
ENDBRANCH  14  16
ENDBRANCH   9  10
ENDBRANCH   1   9
TORSDOF 5
ENDMDL
MODEL 4
REMARK VINA RESULT:      -7.9      2.427      9.234
REMARK  5 active torsions:
REMARK  status: ('A' for Active; 'I' for Inactive)
REMARK    1  A    between atoms: C_3  and  O_4 
REMARK    2  A    between atoms: O_4  and  C_5 
REMARK    3  A    between atoms: C_14  and  N_15 
REMARK       I    between atoms: N_15  and  C_16 
REMARK    4  A    between atoms: C_16  and  C_17 
REMARK    5  A    between atoms: C_17  and  C_18 
ROOT
HETATM    1  C   UNL     1      27.377  44.915  54.295  1.00  0.00     0.076 A 
HETATM    2  C   UNL     1      27.893  43.625  54.138  1.00  0.00     0.039 A 
HETATM    3  C   UNL     1      29.105  43.282  54.742  1.00  0.00     0.025 A 
HETATM    4  C   UNL     1      29.815  44.234  55.483  1.00  0.00     0.044 A 
HETATM    5  C   UNL     1      31.057  43.880  56.106  1.00  0.00     0.099 C 
HETATM    6  N   UNL     1      32.064  43.595  56.609  1.00  0.00    -0.191 NA
HETATM    7  C   UNL     1      29.310  45.533  55.609  1.00  0.00     0.025 A 
HETATM    8  C   UNL     1      28.095  45.875  55.010  1.00  0.00     0.039 A 
ENDROOT
BRANCH   1   9
HETATM    9  O   UNL     1      26.196  45.323  53.717  1.00  0.00    -0.311 OA
BRANCH   9  10
HETATM   10  C   UNL     1      26.130  45.333  52.340  1.00  0.00     0.078 A 
HETATM   11  C   UNL     1      27.207  44.769  51.659  1.00  0.00     0.037 A 
HETATM   12  C   UNL     1      27.208  44.751  50.267  1.00  0.00     0.005 A 
HETATM   13  C   UNL     1      26.134  45.300  49.561  1.00  0.00     0.029 A 
HETATM   14  C   UNL     1      25.058  45.893  50.237  1.00  0.00     0.037 A 
HETATM   15  C   UNL     1      25.075  45.924  51.633  1.00  0.00     0.066 A 
BRANCH  14  16
HETATM   16  N   UNL     1      24.003  46.404  49.450  1.00  0.00    -0.327 N 
HETATM   17  C   UNL     1      23.564  47.716  49.383  1.00  0.00     0.227 C 
HETATM   18  O   UNL     1      24.080  48.682  49.943  1.00  0.00    -0.273 OA
HETATM   19  H   UNL     1      23.504  45.724  48.891  1.00  0.00     0.169 HD
BRANCH  17  20
HETATM   20  C   UNL     1      22.317  47.895  48.515  1.00  0.00     0.159 C 
BRANCH  20  21
HETATM   21  C   UNL     1      21.698  49.244  48.721  1.00  0.00     0.017 A 
HETATM   22  N   UNL     1      21.206  49.643  49.944  1.00  0.00    -0.369 N 
HETATM   23  H   UNL     1      21.190  49.060  50.776  1.00  0.00     0.165 HD
HETATM   24  C   UNL     1      20.711  50.916  49.850  1.00  0.00     0.088 A 
HETATM   25  C   UNL     1      20.897  51.350  48.558  1.00  0.00     0.019 A 
HETATM   26  C   UNL     1      21.522  50.298  47.845  1.00  0.00     0.027 A 
ENDBRANCH  20  21
ENDBRANCH  17  20
ENDBRANCH  14  16
ENDBRANCH   9  10
ENDBRANCH   1   9
TORSDOF 5
ENDMDL
MODEL 5
REMARK VINA RESULT:      -7.7      4.863      8.208
REMARK  5 active torsions:
REMARK  status: ('A' for Active; 'I' for Inactive)
REMARK    1  A    between atoms: C_3  and  O_4 
REMARK    2  A    between atoms: O_4  and  C_5 
REMARK    3  A    between atoms: C_14  and  N_15 
REMARK       I    between atoms: N_15  and  C_16 
REMARK    4  A    between atoms: C_16  and  C_17 
REMARK    5  A    between atoms: C_17  and  C_18 
ROOT
HETATM    1  C   UNL     1      25.921  44.610  53.074  1.00  0.00     0.076 A 
HETATM    2  C   UNL     1      25.046  44.261  52.041  1.00  0.00     0.039 A 
HETATM    3  C   UNL     1      24.590  45.240  51.155  1.00  0.00     0.025 A 
HETATM    4  C   UNL     1      24.989  46.572  51.315  1.00  0.00     0.044 A 
HETATM    5  C   UNL     1      24.523  47.577  50.403  1.00  0.00     0.099 C 
HETATM    6  N   UNL     1      24.145  48.390  49.667  1.00  0.00    -0.191 NA
HETATM    7  C   UNL     1      25.838  46.921  52.370  1.00  0.00     0.025 A 
HETATM    8  C   UNL     1      26.298  45.941  53.254  1.00  0.00     0.039 A 
ENDROOT
BRANCH   1   9
HETATM    9  O   UNL     1      26.398  43.698  53.989  1.00  0.00    -0.311 OA
BRANCH   9  10
HETATM   10  C   UNL     1      27.609  43.097  53.719  1.00  0.00     0.078 A 
HETATM   11  C   UNL     1      28.746  43.729  54.219  1.00  0.00     0.037 A 
HETATM   12  C   UNL     1      30.002  43.179  53.979  1.00  0.00     0.005 A 
HETATM   13  C   UNL     1      30.117  42.002  53.235  1.00  0.00     0.029 A 
HETATM   14  C   UNL     1      28.982  41.373  52.704  1.00  0.00     0.037 A 
HETATM   15  C   UNL     1      27.728  41.943  52.934  1.00  0.00     0.066 A 
BRANCH  14  16
HETATM   16  N   UNL     1      29.184  40.176  51.984  1.00  0.00    -0.327 N 
HETATM   17  C   UNL     1      28.740  39.879  50.705  1.00  0.00     0.227 C 
HETATM   18  O   UNL     1      28.158  40.650  49.943  1.00  0.00    -0.273 OA
HETATM   19  H   UNL     1      29.694  39.451  52.472  1.00  0.00     0.169 HD
BRANCH  17  20
HETATM   20  C   UNL     1      29.036  38.441  50.278  1.00  0.00     0.159 C 
BRANCH  20  21
HETATM   21  C   UNL     1      27.976  37.915  49.360  1.00  0.00     0.017 A 
HETATM   22  N   UNL     1      27.852  38.353  48.059  1.00  0.00    -0.369 N 
HETATM   23  H   UNL     1      28.431  39.074  47.638  1.00  0.00     0.165 HD
HETATM   24  C   UNL     1      26.814  37.702  47.450  1.00  0.00     0.088 A 
HETATM   25  C   UNL     1      26.270  36.824  48.358  1.00  0.00     0.019 A 
HETATM   26  C   UNL     1      27.003  36.955  49.563  1.00  0.00     0.027 A 
ENDBRANCH  20  21
ENDBRANCH  17  20
ENDBRANCH  14  16
ENDBRANCH   9  10
ENDBRANCH   1   9
TORSDOF 5
ENDMDL
MODEL 6
REMARK VINA RESULT:      -7.7      2.027      8.753
REMARK  5 active torsions:
REMARK  status: ('A' for Active; 'I' for Inactive)
REMARK    1  A    between atoms: C_3  and  O_4 
REMARK    2  A    between atoms: O_4  and  C_5 
REMARK    3  A    between atoms: C_14  and  N_15 
REMARK       I    between atoms: N_15  and  C_16 
REMARK    4  A    between atoms: C_16  and  C_17 
REMARK    5  A    between atoms: C_17  and  C_18 
ROOT
HETATM    1  C   UNL     1      26.901  44.330  52.182  1.00  0.00     0.076 A 
HETATM    2  C   UNL     1      27.947  43.462  51.854  1.00  0.00     0.039 A 
HETATM    3  C   UNL     1      28.983  43.245  52.766  1.00  0.00     0.025 A 
HETATM    4  C   UNL     1      28.986  43.912  53.996  1.00  0.00     0.044 A 
HETATM    5  C   UNL     1      30.048  43.686  54.934  1.00  0.00     0.099 C 
HETATM    6  N   UNL     1      30.908  43.505  55.692  1.00  0.00    -0.191 NA
HETATM    7  C   UNL     1      27.955  44.805  54.306  1.00  0.00     0.025 A 
HETATM    8  C   UNL     1      26.916  45.018  53.395  1.00  0.00     0.039 A 
ENDROOT
BRANCH   1   9
HETATM    9  O   UNL     1      25.857  44.599  51.325  1.00  0.00    -0.311 OA
BRANCH   9  10
HETATM   10  C   UNL     1      25.854  45.821  50.687  1.00  0.00     0.078 A 
HETATM   11  C   UNL     1      27.032  46.192  50.043  1.00  0.00     0.037 A 
HETATM   12  C   UNL     1      27.101  47.416  49.384  1.00  0.00     0.005 A 
HETATM   13  C   UNL     1      25.992  48.267  49.375  1.00  0.00     0.029 A 
HETATM   14  C   UNL     1      24.811  47.914  50.044  1.00  0.00     0.037 A 
HETATM   15  C   UNL     1      24.759  46.693  50.718  1.00  0.00     0.066 A 
BRANCH  14  16
HETATM   16  N   UNL     1      23.731  48.819  49.967  1.00  0.00    -0.327 N 
HETATM   17  C   UNL     1      22.856  48.997  48.907  1.00  0.00     0.227 C 
HETATM   18  O   UNL     1      22.825  48.329  47.874  1.00  0.00    -0.273 OA
HETATM   19  H   UNL     1      23.600  49.416  50.773  1.00  0.00     0.169 HD
BRANCH  17  20
HETATM   20  C   UNL     1      21.873  50.150  49.116  1.00  0.00     0.159 C 
BRANCH  20  21
HETATM   21  C   UNL     1      20.500  49.646  49.437  1.00  0.00     0.017 A 
HETATM   22  N   UNL     1      20.243  48.308  49.648  1.00  0.00    -0.369 N 
HETATM   23  H   UNL     1      20.937  47.570  49.571  1.00  0.00     0.165 HD
HETATM   24  C   UNL     1      18.916  48.132  49.932  1.00  0.00     0.088 A 
HETATM   25  C   UNL     1      18.311  49.367  49.918  1.00  0.00     0.019 A 
HETATM   26  C   UNL     1      19.308  50.323  49.609  1.00  0.00     0.027 A 
ENDBRANCH  20  21
ENDBRANCH  17  20
ENDBRANCH  14  16
ENDBRANCH   9  10
ENDBRANCH   1   9
TORSDOF 5
ENDMDL
MODEL 7
REMARK VINA RESULT:      -7.6      3.454      5.854
REMARK  5 active torsions:
REMARK  status: ('A' for Active; 'I' for Inactive)
REMARK    1  A    between atoms: C_3  and  O_4 
REMARK    2  A    between atoms: O_4  and  C_5 
REMARK    3  A    between atoms: C_14  and  N_15 
REMARK       I    between atoms: N_15  and  C_16 
REMARK    4  A    between atoms: C_16  and  C_17 
REMARK    5  A    between atoms: C_17  and  C_18 
ROOT
HETATM    1  C   UNL     1      24.175  45.548  50.677  1.00  0.00     0.076 A 
HETATM    2  C   UNL     1      23.325  45.635  49.570  1.00  0.00     0.039 A 
HETATM    3  C   UNL     1      23.318  46.794  48.789  1.00  0.00     0.025 A 
HETATM    4  C   UNL     1      24.141  47.874  49.128  1.00  0.00     0.044 A 
HETATM    5  C   UNL     1      24.136  49.062  48.323  1.00  0.00     0.099 C 
HETATM    6  N   UNL     1      24.130  50.024  47.674  1.00  0.00    -0.191 NA
HETATM    7  C   UNL     1      24.965  47.794  50.256  1.00  0.00     0.025 A 
HETATM    8  C   UNL     1      24.976  46.633  51.034  1.00  0.00     0.039 A 
ENDROOT
BRANCH   1   9
HETATM    9  O   UNL     1      24.223  44.442  51.496  1.00  0.00    -0.311 OA
BRANCH   9  10
HETATM   10  C   UNL     1      25.282  43.573  51.334  1.00  0.00     0.078 A 
HETATM   11  C   UNL     1      25.083  42.501  50.468  1.00  0.00     0.037 A 
HETATM   12  C   UNL     1      26.108  41.581  50.263  1.00  0.00     0.005 A 
HETATM   13  C   UNL     1      27.327  41.736  50.928  1.00  0.00     0.029 A 
HETATM   14  C   UNL     1      27.528  42.797  51.823  1.00  0.00     0.037 A 
HETATM   15  C   UNL     1      26.487  43.702  52.037  1.00  0.00     0.066 A 
BRANCH  14  16
HETATM   16  N   UNL     1      28.795  42.893  52.436  1.00  0.00    -0.327 N 
HETATM   17  C   UNL     1      29.084  42.805  53.788  1.00  0.00     0.227 C 
HETATM   18  O   UNL     1      28.283  42.543  54.684  1.00  0.00    -0.273 OA
HETATM   19  H   UNL     1      29.572  43.067  51.812  1.00  0.00     0.169 HD
BRANCH  17  20
HETATM   20  C   UNL     1      30.554  43.075  54.115  1.00  0.00     0.159 C 
BRANCH  20  21
HETATM   21  C   UNL     1      30.705  43.713  55.462  1.00  0.00     0.017 A 
HETATM   22  N   UNL     1      30.054  44.881  55.795  1.00  0.00    -0.369 N 
HETATM   23  H   UNL     1      29.461  45.410  55.162  1.00  0.00     0.165 HD
HETATM   24  C   UNL     1      30.362  45.230  57.082  1.00  0.00     0.088 A 
HETATM   25  C   UNL     1      31.209  44.273  57.591  1.00  0.00     0.019 A 
HETATM   26  C   UNL     1      31.425  43.314  56.572  1.00  0.00     0.027 A 
ENDBRANCH  20  21
ENDBRANCH  17  20
ENDBRANCH  14  16
ENDBRANCH   9  10
ENDBRANCH   1   9
TORSDOF 5
ENDMDL
MODEL 8
REMARK VINA RESULT:      -7.6      3.388      9.180
REMARK  5 active torsions:
REMARK  status: ('A' for Active; 'I' for Inactive)
REMARK    1  A    between atoms: C_3  and  O_4 
REMARK    2  A    between atoms: O_4  and  C_5 
REMARK    3  A    between atoms: C_14  and  N_15 
REMARK       I    between atoms: N_15  and  C_16 
REMARK    4  A    between atoms: C_16  and  C_17 
REMARK    5  A    between atoms: C_17  and  C_18 
ROOT
HETATM    1  C   UNL     1      29.507  43.326  53.524  1.00  0.00     0.076 A 
HETATM    2  C   UNL     1      30.573  42.990  54.364  1.00  0.00     0.039 A 
HETATM    3  C   UNL     1      30.751  43.673  55.570  1.00  0.00     0.025 A 
HETATM    4  C   UNL     1      29.878  44.708  55.925  1.00  0.00     0.044 A 
HETATM    5  C   UNL     1      30.059  45.407  57.165  1.00  0.00     0.099 C 
HETATM    6  N   UNL     1      30.206  45.974  58.167  1.00  0.00    -0.191 NA
HETATM    7  C   UNL     1      28.834  45.063  55.065  1.00  0.00     0.025 A 
HETATM    8  C   UNL     1      28.653  44.376  53.861  1.00  0.00     0.039 A 
ENDROOT
BRANCH   1   9
HETATM    9  O   UNL     1      29.282  42.703  52.317  1.00  0.00    -0.311 OA
BRANCH   9  10
HETATM   10  C   UNL     1      28.005  42.753  51.801  1.00  0.00     0.078 A 
HETATM   11  C   UNL     1      27.314  41.545  51.726  1.00  0.00     0.037 A 
HETATM   12  C   UNL     1      26.021  41.522  51.209  1.00  0.00     0.005 A 
HETATM   13  C   UNL     1      25.426  42.706  50.766  1.00  0.00     0.029 A 
HETATM   14  C   UNL     1      26.123  43.922  50.812  1.00  0.00     0.037 A 
HETATM   15  C   UNL     1      27.426  43.931  51.313  1.00  0.00     0.066 A 
BRANCH  14  16
HETATM   16  N   UNL     1      25.442  45.074  50.365  1.00  0.00    -0.327 N 
HETATM   17  C   UNL     1      25.448  46.333  50.946  1.00  0.00     0.227 C 
HETATM   18  O   UNL     1      26.123  46.680  51.914  1.00  0.00    -0.273 OA
HETATM   19  H   UNL     1      24.870  44.954  49.539  1.00  0.00     0.169 HD
BRANCH  17  20
HETATM   20  C   UNL     1      24.501  47.321  50.264  1.00  0.00     0.159 C 
BRANCH  20  21
HETATM   21  C   UNL     1      25.256  48.336  49.462  1.00  0.00     0.017 A 
HETATM   22  N   UNL     1      24.617  49.267  48.672  1.00  0.00    -0.369 N 
HETATM   23  H   UNL     1      23.610  49.319  48.544  1.00  0.00     0.165 HD
HETATM   24  C   UNL     1      25.543  50.071  48.065  1.00  0.00     0.088 A 
HETATM   25  C   UNL     1      26.792  49.667  48.475  1.00  0.00     0.019 A 
HETATM   26  C   UNL     1      26.613  48.575  49.358  1.00  0.00     0.027 A 
ENDBRANCH  20  21
ENDBRANCH  17  20
ENDBRANCH  14  16
ENDBRANCH   9  10
ENDBRANCH   1   9
TORSDOF 5
ENDMDL
MODEL 9
REMARK VINA RESULT:      -7.4     11.726     12.886
REMARK  5 active torsions:
REMARK  status: ('A' for Active; 'I' for Inactive)
REMARK    1  A    between atoms: C_3  and  O_4 
REMARK    2  A    between atoms: O_4  and  C_5 
REMARK    3  A    between atoms: C_14  and  N_15 
REMARK       I    between atoms: N_15  and  C_16 
REMARK    4  A    between atoms: C_16  and  C_17 
REMARK    5  A    between atoms: C_17  and  C_18 
ROOT
HETATM    1  C   UNL     1      29.455  48.967  38.736  1.00  0.00     0.076 A 
HETATM    2  C   UNL     1      28.097  48.699  38.935  1.00  0.00     0.039 A 
HETATM    3  C   UNL     1      27.697  47.442  39.398  1.00  0.00     0.025 A 
HETATM    4  C   UNL     1      28.651  46.446  39.637  1.00  0.00     0.044 A 
HETATM    5  C   UNL     1      28.239  45.157  40.115  1.00  0.00     0.099 C 
HETATM    6  N   UNL     1      27.907  44.114  40.500  1.00  0.00    -0.191 NA
HETATM    7  C   UNL     1      30.005  46.709  39.404  1.00  0.00     0.025 A 
HETATM    8  C   UNL     1      30.406  47.967  38.947  1.00  0.00     0.039 A 
ENDROOT
BRANCH   1   9
HETATM    9  O   UNL     1      29.917  50.178  38.271  1.00  0.00    -0.311 OA
BRANCH   9  10
HETATM   10  C   UNL     1      30.065  51.198  39.185  1.00  0.00     0.078 A 
HETATM   11  C   UNL     1      29.151  52.247  39.105  1.00  0.00     0.037 A 
HETATM   12  C   UNL     1      29.247  53.314  39.994  1.00  0.00     0.005 A 
HETATM   13  C   UNL     1      30.259  53.331  40.957  1.00  0.00     0.029 A 
HETATM   14  C   UNL     1      31.200  52.294  41.029  1.00  0.00     0.037 A 
HETATM   15  C   UNL     1      31.107  51.238  40.120  1.00  0.00     0.066 A 
BRANCH  14  16
HETATM   16  N   UNL     1      32.175  52.376  42.046  1.00  0.00    -0.327 N 
HETATM   17  C   UNL     1      32.387  51.480  43.081  1.00  0.00     0.227 C 
HETATM   18  O   UNL     1      31.806  50.408  43.243  1.00  0.00    -0.273 OA
HETATM   19  H   UNL     1      32.769  53.195  42.019  1.00  0.00     0.169 HD
BRANCH  17  20
HETATM   20  C   UNL     1      33.456  51.942  44.075  1.00  0.00     0.159 C 
BRANCH  20  21
HETATM   21  C   UNL     1      34.835  51.696  43.545  1.00  0.00     0.017 A 
HETATM   22  N   UNL     1      35.123  50.630  42.721  1.00  0.00    -0.369 N 
HETATM   23  H   UNL     1      34.451  49.922  42.440  1.00  0.00     0.165 HD
HETATM   24  C   UNL     1      36.449  50.654  42.382  1.00  0.00     0.088 A 
HETATM   25  C   UNL     1      37.021  51.752  42.979  1.00  0.00     0.019 A 
HETATM   26  C   UNL     1      36.006  52.413  43.712  1.00  0.00     0.027 A 
ENDBRANCH  20  21
ENDBRANCH  17  20
ENDBRANCH  14  16
ENDBRANCH   9  10
ENDBRANCH   1   9
TORSDOF 5
ENDMDL
MODEL 10
REMARK VINA RESULT:      -7.3      4.467     11.059
REMARK  5 active torsions:
REMARK  status: ('A' for Active; 'I' for Inactive)
REMARK    1  A    between atoms: C_3  and  O_4 
REMARK    2  A    between atoms: O_4  and  C_5 
REMARK    3  A    between atoms: C_14  and  N_15 
REMARK       I    between atoms: N_15  and  C_16 
REMARK    4  A    between atoms: C_16  and  C_17 
REMARK    5  A    between atoms: C_17  and  C_18 
ROOT
HETATM    1  C   UNL     1      22.129  49.230  48.230  1.00  0.00     0.076 A 
HETATM    2  C   UNL     1      22.823  50.272  47.608  1.00  0.00     0.039 A 
HETATM    3  C   UNL     1      24.206  50.381  47.769  1.00  0.00     0.025 A 
HETATM    4  C   UNL     1      24.894  49.463  48.571  1.00  0.00     0.044 A 
HETATM    5  C   UNL     1      26.315  49.573  48.733  1.00  0.00     0.099 C 
HETATM    6  N   UNL     1      27.464  49.663  48.867  1.00  0.00    -0.191 NA
HETATM    7  C   UNL     1      24.191  48.442  49.219  1.00  0.00     0.025 A 
HETATM    8  C   UNL     1      22.807  48.330  49.053  1.00  0.00     0.039 A 
ENDROOT
BRANCH   1   9
HETATM    9  O   UNL     1      20.766  49.071  48.124  1.00  0.00    -0.311 OA
BRANCH   9  10
HETATM   10  C   UNL     1      19.978  50.189  48.303  1.00  0.00     0.078 A 
HETATM   11  C   UNL     1      19.989  50.764  49.571  1.00  0.00     0.037 A 
HETATM   12  C   UNL     1      19.211  51.891  49.823  1.00  0.00     0.005 A 
HETATM   13  C   UNL     1      18.422  52.436  48.806  1.00  0.00     0.029 A 
HETATM   14  C   UNL     1      18.383  51.847  47.534  1.00  0.00     0.037 A 
HETATM   15  C   UNL     1      19.152  50.706  47.297  1.00  0.00     0.066 A 
BRANCH  14  16
HETATM   16  N   UNL     1      17.578  52.473  46.558  1.00  0.00    -0.327 N 
HETATM   17  C   UNL     1      16.287  52.132  46.189  1.00  0.00     0.227 C 
HETATM   18  O   UNL     1      15.587  51.268  46.716  1.00  0.00    -0.273 OA
HETATM   19  H   UNL     1      18.009  53.242  46.062  1.00  0.00     0.169 HD
BRANCH  17  20
HETATM   20  C   UNL     1      15.756  52.949  45.010  1.00  0.00     0.159 C 
BRANCH  20  21
HETATM   21  C   UNL     1      14.879  54.072  45.475  1.00  0.00     0.017 A 
HETATM   22  N   UNL     1      14.487  54.197  46.790  1.00  0.00    -0.369 N 
HETATM   23  H   UNL     1      14.726  53.539  47.526  1.00  0.00     0.165 HD
HETATM   24  C   UNL     1      13.704  55.310  46.934  1.00  0.00     0.088 A 
HETATM   25  C   UNL     1      13.599  55.919  45.705  1.00  0.00     0.019 A 
HETATM   26  C   UNL     1      14.341  55.141  44.784  1.00  0.00     0.027 A 
ENDBRANCH  20  21
ENDBRANCH  17  20
ENDBRANCH  14  16
ENDBRANCH   9  10
ENDBRANCH   1   9
TORSDOF 5
ENDMDL
