MODEL 1
REMARK VINA RESULT:     -10.5      0.000      0.000
REMARK  11 active torsions:
REMARK  status: ('A' for Active; 'I' for Inactive)
REMARK    1  A    between atoms: O_2  and  C_3 
REMARK    2  A    between atoms: C_6  and  C_7 
REMARK    3  A    between atoms: C_7  and  C_8 
REMARK    4  A    between atoms: C_8  and  N_9 
REMARK    5  A    between atoms: C_13  and  C_14 
REMARK    6  A    between atoms: C_14  and  C_15 
REMARK    7  A    between atoms: C_25  and  N_26 
REMARK    8  A    between atoms: N_26  and  C_27 
REMARK    9  A    between atoms: C_27  and  C_28 
REMARK   10  A    between atoms: C_28  and  O_29 
REMARK   11  A    between atoms: C_28  and  C_30 
ROOT
HETATM    1  C   UNL     1      24.393  46.285  49.966  1.00  0.00     0.074 A 
HETATM    2  C   UNL     1      25.776  46.847  50.057  1.00  0.00     0.266 A 
HETATM    3  O   UNL     1      26.646  46.231  50.679  1.00  0.00    -0.267 OA
HETATM    4  N   UNL     1      25.993  48.056  49.422  1.00  0.00    -0.273 N 
HETATM    5  C   UNL     1      24.938  48.693  48.795  1.00  0.00     0.138 A 
HETATM    6  N   UNL     1      23.728  48.233  48.750  1.00  0.00    -0.218 NA
HETATM    7  C   UNL     1      27.265  48.619  49.440  1.00  0.00     0.102 A 
HETATM    8  C   UNL     1      27.526  49.792  48.849  1.00  0.00     0.018 A 
HETATM    9  C   UNL     1      26.471  50.503  48.177  1.00  0.00     0.005 A 
HETATM   10  C   UNL     1      25.232  50.000  48.139  1.00  0.00     0.051 A 
HETATM   11  C   UNL     1      23.454  47.025  49.336  1.00  0.00     0.121 A 
ENDROOT
BRANCH   1  12
HETATM   12  C   UNL     1      24.182  44.986  50.589  1.00  0.00     0.045 C 
BRANCH  12  13
HETATM   13  C   UNL     1      25.014  43.939  50.600  1.00  0.00     0.077 A 
HETATM   14  S   UNL     1      25.504  42.937  49.295  1.00  0.00    -0.055 SA
HETATM   15  C   UNL     1      26.634  42.028  50.293  1.00  0.00     0.148 A 
HETATM   16  N   UNL     1      26.652  42.550  51.569  1.00  0.00    -0.298 N 
HETATM   17  S   UNL     1      27.512  40.741  49.694  1.00  0.00    -0.052 SA
HETATM   18  C   UNL     1      25.750  43.563  51.835  1.00  0.00     0.266 A 
HETATM   19  O   UNL     1      25.573  44.099  52.921  1.00  0.00    -0.266 OA
BRANCH  16  20
HETATM   20  C   UNL     1      27.571  42.143  52.634  1.00  0.00     0.138 C 
BRANCH  20  21
HETATM   21  C   UNL     1      28.960  42.776  52.496  1.00  0.00     0.059 C 
BRANCH  21  22
HETATM   22  C   UNL     1      29.385  43.436  53.786  1.00  0.00    -0.057 A 
HETATM   23  C   UNL     1      28.720  44.579  54.245  1.00  0.00     0.010 A 
HETATM   24  C   UNL     1      29.134  45.213  55.419  1.00  0.00     0.037 A 
HETATM   25  C   UNL     1      30.205  44.712  56.158  1.00  0.00     0.068 A 
HETATM   26  C   UNL     1      30.873  43.575  55.704  1.00  0.00     0.037 A 
HETATM   27  C   UNL     1      30.467  42.941  54.523  1.00  0.00     0.010 A 
BRANCH  25  28
HETATM   28  O   UNL     1      30.505  45.424  57.287  1.00  0.00    -0.356 OA
HETATM   29  C   UNL     1      29.421  46.073  57.939  1.00  0.00     0.210 C 
ENDBRANCH  25  28
ENDBRANCH  21  22
ENDBRANCH  20  21
ENDBRANCH  16  20
ENDBRANCH  12  13
ENDBRANCH   1  12
BRANCH  11  30
HETATM   30  N   UNL     1      22.132  46.608  49.225  1.00  0.00    -0.274 NA
HETATM   31  H   UNL     1      22.150  45.586  49.248  1.00  0.00     0.129 HD
BRANCH  30  32
HETATM   32  C   UNL     1      21.288  47.009  48.082  1.00  0.00     0.130 C 
BRANCH  32  33
HETATM   33  C   UNL     1      19.876  47.478  48.516  1.00  0.00     0.164 C 
BRANCH  33  34
HETATM   34  O   UNL     1      19.460  46.763  49.690  1.00  0.00    -0.390 OA
HETATM   35  H   UNL     1      18.934  47.410  50.204  1.00  0.00     0.210 HD
ENDBRANCH  33  34
BRANCH  33  36
HETATM   36  C   UNL     1      19.849  48.973  48.763  1.00  0.00    -0.029 A 
HETATM   37  C   UNL     1      18.953  49.508  49.704  1.00  0.00     0.010 A 
HETATM   38  C   UNL     1      18.889  50.885  49.924  1.00  0.00     0.001 A 
HETATM   39  C   UNL     1      19.719  51.746  49.209  1.00  0.00     0.000 A 
HETATM   40  C   UNL     1      20.613  51.231  48.274  1.00  0.00     0.001 A 
HETATM   41  C   UNL     1      20.676  49.855  48.051  1.00  0.00     0.010 A 
ENDBRANCH  33  36
ENDBRANCH  32  33
ENDBRANCH  30  32
ENDBRANCH  11  30
TORSDOF 11
ENDMDL
MODEL 2
REMARK VINA RESULT:     -10.4      2.299     10.268
REMARK  11 active torsions:
REMARK  status: ('A' for Active; 'I' for Inactive)
REMARK    1  A    between atoms: O_2  and  C_3 
REMARK    2  A    between atoms: C_6  and  C_7 
REMARK    3  A    between atoms: C_7  and  C_8 
REMARK    4  A    between atoms: C_8  and  N_9 
REMARK    5  A    between atoms: C_13  and  C_14 
REMARK    6  A    between atoms: C_14  and  C_15 
REMARK    7  A    between atoms: C_25  and  N_26 
REMARK    8  A    between atoms: N_26  and  C_27 
REMARK    9  A    between atoms: C_27  and  C_28 
REMARK   10  A    between atoms: C_28  and  O_29 
REMARK   11  A    between atoms: C_28  and  C_30 
ROOT
HETATM    1  C   UNL     1      25.493  44.627  51.000  1.00  0.00     0.074 A 
HETATM    2  C   UNL     1      25.656  43.563  49.961  1.00  0.00     0.266 A 
HETATM    3  O   UNL     1      25.027  43.642  48.903  1.00  0.00    -0.267 OA
HETATM    4  N   UNL     1      26.523  42.530  50.268  1.00  0.00    -0.273 N 
HETATM    5  C   UNL     1      27.141  42.507  51.504  1.00  0.00     0.138 A 
HETATM    6  N   UNL     1      26.971  43.402  52.425  1.00  0.00    -0.218 NA
HETATM    7  C   UNL     1      26.746  41.525  49.333  1.00  0.00     0.102 A 
HETATM    8  C   UNL     1      27.569  40.499  49.583  1.00  0.00     0.018 A 
HETATM    9  C   UNL     1      28.245  40.418  50.850  1.00  0.00     0.005 A 
HETATM   10  C   UNL     1      28.057  41.362  51.780  1.00  0.00     0.051 A 
HETATM   11  C   UNL     1      26.145  44.466  52.173  1.00  0.00     0.121 A 
ENDROOT
BRANCH   1  12
HETATM   12  C   UNL     1      24.620  45.740  50.652  1.00  0.00     0.045 C 
BRANCH  12  13
HETATM   13  C   UNL     1      24.966  46.909  50.103  1.00  0.00     0.077 A 
HETATM   14  S   UNL     1      26.528  47.593  49.914  1.00  0.00    -0.055 SA
HETATM   15  C   UNL     1      25.918  48.976  49.013  1.00  0.00     0.148 A 
HETATM   16  N   UNL     1      24.558  48.849  48.828  1.00  0.00    -0.298 N 
HETATM   17  S   UNL     1      26.916  50.210  48.496  1.00  0.00    -0.052 SA
HETATM   18  C   UNL     1      23.950  47.771  49.445  1.00  0.00     0.266 A 
HETATM   19  O   UNL     1      22.750  47.533  49.452  1.00  0.00    -0.266 OA
BRANCH  16  20
HETATM   20  C   UNL     1      23.731  49.733  48.005  1.00  0.00     0.138 C 
BRANCH  20  21
HETATM   21  C   UNL     1      23.159  50.916  48.793  1.00  0.00     0.059 C 
BRANCH  21  22
HETATM   22  C   UNL     1      21.650  50.870  48.818  1.00  0.00    -0.057 A 
HETATM   23  C   UNL     1      20.934  50.585  47.649  1.00  0.00     0.010 A 
HETATM   24  C   UNL     1      19.537  50.578  47.661  1.00  0.00     0.037 A 
HETATM   25  C   UNL     1      18.834  50.841  48.837  1.00  0.00     0.068 A 
HETATM   26  C   UNL     1      19.542  51.128  50.003  1.00  0.00     0.037 A 
HETATM   27  C   UNL     1      20.942  51.145  49.994  1.00  0.00     0.010 A 
BRANCH  25  28
HETATM   28  O   UNL     1      17.472  50.798  48.712  1.00  0.00    -0.356 OA
HETATM   29  C   UNL     1      16.725  51.648  49.572  1.00  0.00     0.210 C 
ENDBRANCH  25  28
ENDBRANCH  21  22
ENDBRANCH  20  21
ENDBRANCH  16  20
ENDBRANCH  12  13
ENDBRANCH   1  12
BRANCH  11  30
HETATM   30  N   UNL     1      26.035  45.380  53.215  1.00  0.00    -0.274 NA
HETATM   31  H   UNL     1      26.388  46.270  52.855  1.00  0.00     0.129 HD
BRANCH  30  32
HETATM   32  C   UNL     1      26.680  45.145  54.521  1.00  0.00     0.130 C 
BRANCH  32  33
HETATM   33  C   UNL     1      27.967  45.986  54.713  1.00  0.00     0.164 C 
BRANCH  33  34
HETATM   34  O   UNL     1      27.688  47.134  55.529  1.00  0.00    -0.390 OA
HETATM   35  H   UNL     1      26.874  47.522  55.147  1.00  0.00     0.210 HD
ENDBRANCH  33  34
BRANCH  33  36
HETATM   36  C   UNL     1      29.078  45.155  55.322  1.00  0.00    -0.029 A 
HETATM   37  C   UNL     1      29.734  45.607  56.480  1.00  0.00     0.010 A 
HETATM   38  C   UNL     1      30.781  44.873  57.038  1.00  0.00     0.001 A 
HETATM   39  C   UNL     1      31.188  43.677  56.450  1.00  0.00     0.000 A 
HETATM   40  C   UNL     1      30.547  43.215  55.303  1.00  0.00     0.001 A 
HETATM   41  C   UNL     1      29.503  43.950  54.741  1.00  0.00     0.010 A 
ENDBRANCH  33  36
ENDBRANCH  32  33
ENDBRANCH  30  32
ENDBRANCH  11  30
TORSDOF 11
ENDMDL
MODEL 3
REMARK VINA RESULT:     -10.2      2.358     10.092
REMARK  11 active torsions:
REMARK  status: ('A' for Active; 'I' for Inactive)
REMARK    1  A    between atoms: O_2  and  C_3 
REMARK    2  A    between atoms: C_6  and  C_7 
REMARK    3  A    between atoms: C_7  and  C_8 
REMARK    4  A    between atoms: C_8  and  N_9 
REMARK    5  A    between atoms: C_13  and  C_14 
REMARK    6  A    between atoms: C_14  and  C_15 
REMARK    7  A    between atoms: C_25  and  N_26 
REMARK    8  A    between atoms: N_26  and  C_27 
REMARK    9  A    between atoms: C_27  and  C_28 
REMARK   10  A    between atoms: C_28  and  O_29 
REMARK   11  A    between atoms: C_28  and  C_30 
ROOT
HETATM    1  C   UNL     1      24.583  44.138  50.206  1.00  0.00     0.074 A 
HETATM    2  C   UNL     1      24.401  43.418  48.907  1.00  0.00     0.266 A 
HETATM    3  O   UNL     1      23.737  43.941  48.008  1.00  0.00    -0.267 OA
HETATM    4  N   UNL     1      25.004  42.178  48.799  1.00  0.00    -0.273 N 
HETATM    5  C   UNL     1      25.684  41.658  49.884  1.00  0.00     0.138 A 
HETATM    6  N   UNL     1      25.809  42.257  51.026  1.00  0.00    -0.218 NA
HETATM    7  C   UNL     1      24.902  41.470  47.607  1.00  0.00     0.102 A 
HETATM    8  C   UNL     1      25.459  40.263  47.453  1.00  0.00     0.018 A 
HETATM    9  C   UNL     1      26.183  39.667  48.544  1.00  0.00     0.005 A 
HETATM   10  C   UNL     1      26.303  40.312  49.710  1.00  0.00     0.051 A 
HETATM   11  C   UNL     1      25.258  43.501  51.188  1.00  0.00     0.121 A 
ENDROOT
BRANCH   1  12
HETATM   12  C   UNL     1      23.993  45.466  50.296  1.00  0.00     0.045 C 
BRANCH  12  13
HETATM   13  C   UNL     1      24.526  46.627  49.901  1.00  0.00     0.077 A 
HETATM   14  S   UNL     1      26.172  47.114  49.901  1.00  0.00    -0.055 SA
HETATM   15  C   UNL     1      25.817  48.646  49.109  1.00  0.00     0.148 A 
HETATM   16  N   UNL     1      24.473  48.716  48.812  1.00  0.00    -0.298 N 
HETATM   17  S   UNL     1      27.001  49.781  48.801  1.00  0.00    -0.052 SA
HETATM   18  C   UNL     1      23.685  47.674  49.265  1.00  0.00     0.266 A 
HETATM   19  O   UNL     1      22.469  47.596  49.158  1.00  0.00    -0.266 OA
BRANCH  16  20
HETATM   20  C   UNL     1      23.836  49.777  48.029  1.00  0.00     0.138 C 
BRANCH  20  21
HETATM   21  C   UNL     1      23.334  50.937  48.894  1.00  0.00     0.059 C 
BRANCH  21  22
HETATM   22  C   UNL     1      21.826  50.936  48.980  1.00  0.00    -0.057 A 
HETATM   23  C   UNL     1      21.192  50.979  50.226  1.00  0.00     0.010 A 
HETATM   24  C   UNL     1      19.798  50.941  50.311  1.00  0.00     0.037 A 
HETATM   25  C   UNL     1      19.016  50.873  49.157  1.00  0.00     0.068 A 
HETATM   26  C   UNL     1      19.644  50.827  47.912  1.00  0.00     0.037 A 
HETATM   27  C   UNL     1      21.042  50.856  47.824  1.00  0.00     0.010 A 
BRANCH  25  28
HETATM   28  O   UNL     1      17.667  50.847  49.379  1.00  0.00    -0.356 OA
HETATM   29  C   UNL     1      17.064  52.066  49.793  1.00  0.00     0.210 C 
ENDBRANCH  25  28
ENDBRANCH  21  22
ENDBRANCH  20  21
ENDBRANCH  16  20
ENDBRANCH  12  13
ENDBRANCH   1  12
BRANCH  11  30
HETATM   30  N   UNL     1      25.455  44.068  52.442  1.00  0.00    -0.274 NA
HETATM   31  H   UNL     1      24.937  44.950  52.443  1.00  0.00     0.129 HD
BRANCH  30  32
HETATM   32  C   UNL     1      26.808  44.351  52.959  1.00  0.00     0.130 C 
BRANCH  32  33
HETATM   33  C   UNL     1      27.204  43.423  54.136  1.00  0.00     0.164 C 
BRANCH  33  34
HETATM   34  O   UNL     1      27.287  42.063  53.684  1.00  0.00    -0.390 OA
HETATM   35  H   UNL     1      26.750  41.552  54.325  1.00  0.00     0.210 HD
ENDBRANCH  33  34
BRANCH  33  36
HETATM   36  C   UNL     1      28.515  43.860  54.759  1.00  0.00    -0.029 A 
HETATM   37  C   UNL     1      29.616  42.986  54.753  1.00  0.00     0.010 A 
HETATM   38  C   UNL     1      30.822  43.356  55.350  1.00  0.00     0.001 A 
HETATM   39  C   UNL     1      30.948  44.603  55.958  1.00  0.00     0.000 A 
HETATM   40  C   UNL     1      29.867  45.481  55.971  1.00  0.00     0.001 A 
HETATM   41  C   UNL     1      28.658  45.111  55.378  1.00  0.00     0.010 A 
ENDBRANCH  33  36
ENDBRANCH  32  33
ENDBRANCH  30  32
ENDBRANCH  11  30
TORSDOF 11
ENDMDL
MODEL 4
REMARK VINA RESULT:      -9.8      2.604     10.376
REMARK  11 active torsions:
REMARK  status: ('A' for Active; 'I' for Inactive)
REMARK    1  A    between atoms: O_2  and  C_3 
REMARK    2  A    between atoms: C_6  and  C_7 
REMARK    3  A    between atoms: C_7  and  C_8 
REMARK    4  A    between atoms: C_8  and  N_9 
REMARK    5  A    between atoms: C_13  and  C_14 
REMARK    6  A    between atoms: C_14  and  C_15 
REMARK    7  A    between atoms: C_25  and  N_26 
REMARK    8  A    between atoms: N_26  and  C_27 
REMARK    9  A    between atoms: C_27  and  C_28 
REMARK   10  A    between atoms: C_28  and  O_29 
REMARK   11  A    between atoms: C_28  and  C_30 
ROOT
HETATM    1  C   UNL     1      26.503  41.718  50.631  1.00  0.00     0.074 A 
HETATM    2  C   UNL     1      26.647  40.970  49.343  1.00  0.00     0.266 A 
HETATM    3  O   UNL     1      25.884  41.217  48.405  1.00  0.00    -0.267 OA
HETATM    4  N   UNL     1      27.653  40.023  49.290  1.00  0.00    -0.273 N 
HETATM    5  C   UNL     1      28.422  39.785  50.414  1.00  0.00     0.138 A 
HETATM    6  N   UNL     1      28.274  40.399  51.545  1.00  0.00    -0.218 NA
HETATM    7  C   UNL     1      27.862  39.314  48.112  1.00  0.00     0.102 A 
HETATM    8  C   UNL     1      28.816  38.380  48.011  1.00  0.00     0.018 A 
HETATM    9  C   UNL     1      29.652  38.088  49.144  1.00  0.00     0.005 A 
HETATM   10  C   UNL     1      29.483  38.743  50.298  1.00  0.00     0.051 A 
HETATM   11  C   UNL     1      27.312  41.369  51.655  1.00  0.00     0.121 A 
ENDROOT
BRANCH   1  12
HETATM   12  C   UNL     1      25.479  42.752  50.665  1.00  0.00     0.045 C 
BRANCH  12  13
HETATM   13  C   UNL     1      25.633  44.064  50.454  1.00  0.00     0.077 A 
HETATM   14  S   UNL     1      27.046  44.925  49.999  1.00  0.00    -0.055 SA
HETATM   15  C   UNL     1      26.186  46.455  49.863  1.00  0.00     0.148 A 
HETATM   16  N   UNL     1      24.843  46.257  50.106  1.00  0.00    -0.298 N 
HETATM   17  S   UNL     1      26.965  47.882  49.488  1.00  0.00    -0.052 SA
HETATM   18  C   UNL     1      24.467  44.984  50.494  1.00  0.00     0.266 A 
HETATM   19  O   UNL     1      23.338  44.637  50.817  1.00  0.00    -0.266 OA
BRANCH  16  20
HETATM   20  C   UNL     1      23.798  47.270  49.945  1.00  0.00     0.138 C 
BRANCH  20  21
HETATM   21  C   UNL     1      23.274  47.363  48.508  1.00  0.00     0.059 C 
BRANCH  21  22
HETATM   22  C   UNL     1      22.165  48.382  48.401  1.00  0.00    -0.057 A 
HETATM   23  C   UNL     1      20.858  47.973  48.112  1.00  0.00     0.010 A 
HETATM   24  C   UNL     1      19.836  48.916  47.976  1.00  0.00     0.037 A 
HETATM   25  C   UNL     1      20.098  50.276  48.139  1.00  0.00     0.068 A 
HETATM   26  C   UNL     1      21.399  50.690  48.425  1.00  0.00     0.037 A 
HETATM   27  C   UNL     1      22.428  49.748  48.553  1.00  0.00     0.010 A 
BRANCH  25  28
HETATM   28  O   UNL     1      19.010  51.091  47.984  1.00  0.00    -0.356 OA
HETATM   29  C   UNL     1      19.150  52.435  48.429  1.00  0.00     0.210 C 
ENDBRANCH  25  28
ENDBRANCH  21  22
ENDBRANCH  20  21
ENDBRANCH  16  20
ENDBRANCH  12  13
ENDBRANCH   1  12
BRANCH  11  30
HETATM   30  N   UNL     1      27.237  41.980  52.902  1.00  0.00    -0.274 NA
HETATM   31  H   UNL     1      26.278  42.318  52.999  1.00  0.00     0.129 HD
BRANCH  30  32
HETATM   32  C   UNL     1      28.137  43.090  53.274  1.00  0.00     0.130 C 
BRANCH  32  33
HETATM   33  C   UNL     1      29.450  42.600  53.935  1.00  0.00     0.164 C 
BRANCH  33  34
HETATM   34  O   UNL     1      30.488  42.494  52.949  1.00  0.00    -0.390 OA
HETATM   35  H   UNL     1      30.057  42.737  52.103  1.00  0.00     0.210 HD
ENDBRANCH  33  34
BRANCH  33  36
HETATM   36  C   UNL     1      29.874  43.524  55.059  1.00  0.00    -0.029 A 
HETATM   37  C   UNL     1      29.273  44.788  55.188  1.00  0.00     0.010 A 
HETATM   38  C   UNL     1      29.672  45.667  56.196  1.00  0.00     0.001 A 
HETATM   39  C   UNL     1      30.674  45.296  57.091  1.00  0.00     0.000 A 
HETATM   40  C   UNL     1      31.278  44.046  56.977  1.00  0.00     0.001 A 
HETATM   41  C   UNL     1      30.883  43.168  55.967  1.00  0.00     0.010 A 
ENDBRANCH  33  36
ENDBRANCH  32  33
ENDBRANCH  30  32
ENDBRANCH  11  30
TORSDOF 11
ENDMDL
MODEL 5
REMARK VINA RESULT:      -9.8      2.601      5.088
REMARK  11 active torsions:
REMARK  status: ('A' for Active; 'I' for Inactive)
REMARK    1  A    between atoms: O_2  and  C_3 
REMARK    2  A    between atoms: C_6  and  C_7 
REMARK    3  A    between atoms: C_7  and  C_8 
REMARK    4  A    between atoms: C_8  and  N_9 
REMARK    5  A    between atoms: C_13  and  C_14 
REMARK    6  A    between atoms: C_14  and  C_15 
REMARK    7  A    between atoms: C_25  and  N_26 
REMARK    8  A    between atoms: N_26  and  C_27 
REMARK    9  A    between atoms: C_27  and  C_28 
REMARK   10  A    between atoms: C_28  and  O_29 
REMARK   11  A    between atoms: C_28  and  C_30 
ROOT
HETATM    1  C   UNL     1      20.954  46.540  47.780  1.00  0.00     0.074 A 
HETATM    2  C   UNL     1      21.025  45.932  46.415  1.00  0.00     0.266 A 
HETATM    3  O   UNL     1      22.096  45.929  45.803  1.00  0.00    -0.267 OA
HETATM    4  N   UNL     1      19.849  45.402  45.916  1.00  0.00    -0.273 N 
HETATM    5  C   UNL     1      18.689  45.501  46.660  1.00  0.00     0.138 A 
HETATM    6  N   UNL     1      18.612  46.065  47.824  1.00  0.00    -0.218 NA
HETATM    7  C   UNL     1      19.852  44.792  44.666  1.00  0.00     0.102 A 
HETATM    8  C   UNL     1      18.740  44.271  44.133  1.00  0.00     0.018 A 
HETATM    9  C   UNL     1      17.500  44.340  44.859  1.00  0.00     0.005 A 
HETATM   10  C   UNL     1      17.451  44.921  46.063  1.00  0.00     0.051 A 
HETATM   11  C   UNL     1      19.748  46.586  48.387  1.00  0.00     0.121 A 
ENDROOT
BRANCH   1  12
HETATM   12  C   UNL     1      22.206  47.049  48.325  1.00  0.00     0.045 C 
BRANCH  12  13
HETATM   13  C   UNL     1      23.103  46.390  49.067  1.00  0.00     0.077 A 
HETATM   14  S   UNL     1      23.474  44.715  49.076  1.00  0.00    -0.055 SA
HETATM   15  C   UNL     1      24.794  44.916  50.223  1.00  0.00     0.148 A 
HETATM   16  N   UNL     1      24.955  46.253  50.518  1.00  0.00    -0.298 N 
HETATM   17  S   UNL     1      25.668  43.621  50.808  1.00  0.00    -0.052 SA
HETATM   18  C   UNL     1      24.029  47.122  49.969  1.00  0.00     0.266 A 
HETATM   19  O   UNL     1      23.969  48.327  50.172  1.00  0.00    -0.266 OA
BRANCH  16  20
HETATM   20  C   UNL     1      26.041  46.816  51.323  1.00  0.00     0.138 C 
BRANCH  20  21
HETATM   21  C   UNL     1      25.675  46.953  52.804  1.00  0.00     0.059 C 
BRANCH  21  22
HETATM   22  C   UNL     1      26.792  46.450  53.687  1.00  0.00    -0.057 A 
HETATM   23  C   UNL     1      27.470  47.331  54.537  1.00  0.00     0.010 A 
HETATM   24  C   UNL     1      28.528  46.876  55.327  1.00  0.00     0.037 A 
HETATM   25  C   UNL     1      28.917  45.537  55.294  1.00  0.00     0.068 A 
HETATM   26  C   UNL     1      28.246  44.655  54.447  1.00  0.00     0.037 A 
HETATM   27  C   UNL     1      27.190  45.109  53.646  1.00  0.00     0.010 A 
BRANCH  25  28
HETATM   28  O   UNL     1      29.962  45.223  56.118  1.00  0.00    -0.356 OA
HETATM   29  C   UNL     1      30.713  44.063  55.784  1.00  0.00     0.210 C 
ENDBRANCH  25  28
ENDBRANCH  21  22
ENDBRANCH  20  21
ENDBRANCH  16  20
ENDBRANCH  12  13
ENDBRANCH   1  12
BRANCH  11  30
HETATM   30  N   UNL     1      19.570  47.158  49.642  1.00  0.00    -0.274 NA
HETATM   31  H   UNL     1      19.590  46.389  50.314  1.00  0.00     0.129 HD
BRANCH  30  32
HETATM   32  C   UNL     1      18.387  47.985  49.953  1.00  0.00     0.130 C 
BRANCH  32  33
HETATM   33  C   UNL     1      18.764  49.388  50.492  1.00  0.00     0.164 C 
BRANCH  33  34
HETATM   34  O   UNL     1      19.092  49.308  51.888  1.00  0.00    -0.390 OA
HETATM   35  H   UNL     1      19.082  48.350  52.093  1.00  0.00     0.210 HD
ENDBRANCH  33  34
BRANCH  33  36
HETATM   36  C   UNL     1      19.914  49.985  49.707  1.00  0.00    -0.029 A 
HETATM   37  C   UNL     1      21.052  50.457  50.384  1.00  0.00     0.010 A 
HETATM   38  C   UNL     1      22.108  51.039  49.682  1.00  0.00     0.001 A 
HETATM   39  C   UNL     1      22.046  51.157  48.295  1.00  0.00     0.000 A 
HETATM   40  C   UNL     1      20.926  50.692  47.609  1.00  0.00     0.001 A 
HETATM   41  C   UNL     1      19.867  50.114  48.310  1.00  0.00     0.010 A 
ENDBRANCH  33  36
ENDBRANCH  32  33
ENDBRANCH  30  32
ENDBRANCH  11  30
TORSDOF 11
ENDMDL
MODEL 6
REMARK VINA RESULT:      -9.8      3.058      7.503
REMARK  11 active torsions:
REMARK  status: ('A' for Active; 'I' for Inactive)
REMARK    1  A    between atoms: O_2  and  C_3 
REMARK    2  A    between atoms: C_6  and  C_7 
REMARK    3  A    between atoms: C_7  and  C_8 
REMARK    4  A    between atoms: C_8  and  N_9 
REMARK    5  A    between atoms: C_13  and  C_14 
REMARK    6  A    between atoms: C_14  and  C_15 
REMARK    7  A    between atoms: C_25  and  N_26 
REMARK    8  A    between atoms: N_26  and  C_27 
REMARK    9  A    between atoms: C_27  and  C_28 
REMARK   10  A    between atoms: C_28  and  O_29 
REMARK   11  A    between atoms: C_28  and  C_30 
ROOT
HETATM    1  C   UNL     1      24.824  45.884  50.077  1.00  0.00     0.074 A 
HETATM    2  C   UNL     1      24.247  47.049  49.336  1.00  0.00     0.266 A 
HETATM    3  O   UNL     1      23.065  47.024  48.983  1.00  0.00    -0.267 OA
HETATM    4  N   UNL     1      25.104  48.106  49.088  1.00  0.00    -0.273 N 
HETATM    5  C   UNL     1      26.426  48.015  49.481  1.00  0.00     0.138 A 
HETATM    6  N   UNL     1      26.942  46.991  50.083  1.00  0.00    -0.218 NA
HETATM    7  C   UNL     1      24.624  49.235  48.433  1.00  0.00     0.102 A 
HETATM    8  C   UNL     1      25.413  50.281  48.160  1.00  0.00     0.018 A 
HETATM    9  C   UNL     1      26.799  50.250  48.545  1.00  0.00     0.005 A 
HETATM   10  C   UNL     1      27.303  49.183  49.175  1.00  0.00     0.051 A 
HETATM   11  C   UNL     1      26.139  45.922  50.383  1.00  0.00     0.121 A 
ENDROOT
BRANCH   1  12
HETATM   12  C   UNL     1      23.905  44.797  50.384  1.00  0.00     0.045 C 
BRANCH  12  13
HETATM   13  C   UNL     1      23.624  43.726  49.632  1.00  0.00     0.077 A 
HETATM   14  S   UNL     1      22.440  43.552  48.403  1.00  0.00    -0.055 SA
HETATM   15  C   UNL     1      22.968  41.925  47.991  1.00  0.00     0.148 A 
HETATM   16  N   UNL     1      24.065  41.585  48.753  1.00  0.00    -0.298 N 
HETATM   17  S   UNL     1      22.196  41.006  46.832  1.00  0.00    -0.052 SA
HETATM   18  C   UNL     1      24.452  42.496  49.719  1.00  0.00     0.266 A 
HETATM   19  O   UNL     1      25.354  42.340  50.532  1.00  0.00    -0.266 OA
BRANCH  16  20
HETATM   20  C   UNL     1      24.862  40.367  48.591  1.00  0.00     0.138 C 
BRANCH  20  21
HETATM   21  C   UNL     1      26.201  40.621  47.889  1.00  0.00     0.059 C 
BRANCH  21  22
HETATM   22  C   UNL     1      27.291  39.757  48.476  1.00  0.00    -0.057 A 
HETATM   23  C   UNL     1      27.679  39.921  49.811  1.00  0.00     0.010 A 
HETATM   24  C   UNL     1      28.713  39.149  50.346  1.00  0.00     0.037 A 
HETATM   25  C   UNL     1      29.365  38.194  49.566  1.00  0.00     0.068 A 
HETATM   26  C   UNL     1      28.985  38.028  48.235  1.00  0.00     0.037 A 
HETATM   27  C   UNL     1      27.954  38.806  47.692  1.00  0.00     0.010 A 
BRANCH  25  28
HETATM   28  O   UNL     1      30.354  37.505  50.212  1.00  0.00    -0.356 OA
HETATM   29  C   UNL     1      30.019  36.940  51.474  1.00  0.00     0.210 C 
ENDBRANCH  25  28
ENDBRANCH  21  22
ENDBRANCH  20  21
ENDBRANCH  16  20
ENDBRANCH  12  13
ENDBRANCH   1  12
BRANCH  11  30
HETATM   30  N   UNL     1      26.778  44.877  51.041  1.00  0.00    -0.274 NA
HETATM   31  H   UNL     1      26.313  44.019  50.737  1.00  0.00     0.129 HD
BRANCH  30  32
HETATM   32  C   UNL     1      26.869  44.831  52.514  1.00  0.00     0.130 C 
BRANCH  32  33
HETATM   33  C   UNL     1      27.553  43.540  53.031  1.00  0.00     0.164 C 
BRANCH  33  34
HETATM   34  O   UNL     1      28.097  42.796  51.930  1.00  0.00    -0.390 OA
HETATM   35  H   UNL     1      27.706  41.902  52.013  1.00  0.00     0.210 HD
ENDBRANCH  33  34
BRANCH  33  36
HETATM   36  C   UNL     1      28.634  43.861  54.043  1.00  0.00    -0.029 A 
HETATM   37  C   UNL     1      29.692  42.959  54.245  1.00  0.00     0.010 A 
HETATM   38  C   UNL     1      30.680  43.221  55.196  1.00  0.00     0.001 A 
HETATM   39  C   UNL     1      30.627  44.387  55.957  1.00  0.00     0.000 A 
HETATM   40  C   UNL     1      29.585  45.292  55.768  1.00  0.00     0.001 A 
HETATM   41  C   UNL     1      28.594  45.029  54.820  1.00  0.00     0.010 A 
ENDBRANCH  33  36
ENDBRANCH  32  33
ENDBRANCH  30  32
ENDBRANCH  11  30
TORSDOF 11
ENDMDL
MODEL 7
REMARK VINA RESULT:      -9.7      1.405      2.050
REMARK  11 active torsions:
REMARK  status: ('A' for Active; 'I' for Inactive)
REMARK    1  A    between atoms: O_2  and  C_3 
REMARK    2  A    between atoms: C_6  and  C_7 
REMARK    3  A    between atoms: C_7  and  C_8 
REMARK    4  A    between atoms: C_8  and  N_9 
REMARK    5  A    between atoms: C_13  and  C_14 
REMARK    6  A    between atoms: C_14  and  C_15 
REMARK    7  A    between atoms: C_25  and  N_26 
REMARK    8  A    between atoms: N_26  and  C_27 
REMARK    9  A    between atoms: C_27  and  C_28 
REMARK   10  A    between atoms: C_28  and  O_29 
REMARK   11  A    between atoms: C_28  and  C_30 
ROOT
HETATM    1  C   UNL     1      24.005  46.303  49.725  1.00  0.00     0.074 A 
HETATM    2  C   UNL     1      25.440  46.697  49.881  1.00  0.00     0.266 A 
HETATM    3  O   UNL     1      26.222  45.938  50.461  1.00  0.00    -0.267 OA
HETATM    4  N   UNL     1      25.805  47.921  49.351  1.00  0.00    -0.273 N 
HETATM    5  C   UNL     1      24.842  48.721  48.764  1.00  0.00     0.138 A 
HETATM    6  N   UNL     1      23.589  48.404  48.665  1.00  0.00    -0.218 NA
HETATM    7  C   UNL     1      27.130  48.333  49.432  1.00  0.00     0.102 A 
HETATM    8  C   UNL     1      27.533  49.513  48.944  1.00  0.00     0.018 A 
HETATM    9  C   UNL     1      26.580  50.390  48.318  1.00  0.00     0.005 A 
HETATM   10  C   UNL     1      25.294  50.034  48.221  1.00  0.00     0.051 A 
HETATM   11  C   UNL     1      23.169  47.192  49.145  1.00  0.00     0.121 A 
ENDROOT
BRANCH   1  12
HETATM   12  C   UNL     1      23.637  44.990  50.236  1.00  0.00     0.045 C 
BRANCH  12  13
HETATM   13  C   UNL     1      24.028  43.795  49.779  1.00  0.00     0.077 A 
HETATM   14  S   UNL     1      24.054  43.213  48.165  1.00  0.00    -0.055 SA
HETATM   15  C   UNL     1      24.819  41.696  48.623  1.00  0.00     0.148 A 
HETATM   16  N   UNL     1      25.089  41.700  49.975  1.00  0.00    -0.298 N 
HETATM   17  S   UNL     1      25.136  40.490  47.514  1.00  0.00    -0.052 SA
HETATM   18  C   UNL     1      24.634  42.791  50.692  1.00  0.00     0.266 A 
HETATM   19  O   UNL     1      24.718  42.939  51.904  1.00  0.00    -0.266 OA
BRANCH  16  20
HETATM   20  C   UNL     1      25.846  40.670  50.688  1.00  0.00     0.138 C 
BRANCH  20  21
HETATM   21  C   UNL     1      27.362  40.879  50.605  1.00  0.00     0.059 C 
BRANCH  21  22
HETATM   22  C   UNL     1      27.845  41.786  51.711  1.00  0.00    -0.057 A 
HETATM   23  C   UNL     1      28.213  43.107  51.429  1.00  0.00     0.010 A 
HETATM   24  C   UNL     1      28.695  43.938  52.443  1.00  0.00     0.037 A 
HETATM   25  C   UNL     1      28.804  43.472  53.753  1.00  0.00     0.068 A 
HETATM   26  C   UNL     1      28.441  42.156  54.039  1.00  0.00     0.037 A 
HETATM   27  C   UNL     1      27.966  41.317  53.024  1.00  0.00     0.010 A 
BRANCH  25  28
HETATM   28  O   UNL     1      29.285  44.387  54.648  1.00  0.00    -0.356 OA
HETATM   29  C   UNL     1      28.329  45.240  55.265  1.00  0.00     0.210 C 
ENDBRANCH  25  28
ENDBRANCH  21  22
ENDBRANCH  20  21
ENDBRANCH  16  20
ENDBRANCH  12  13
ENDBRANCH   1  12
BRANCH  11  30
HETATM   30  N   UNL     1      21.812  46.937  48.982  1.00  0.00    -0.274 NA
HETATM   31  H   UNL     1      21.739  45.975  48.642  1.00  0.00     0.129 HD
BRANCH  30  32
HETATM   32  C   UNL     1      20.966  47.777  48.111  1.00  0.00     0.130 C 
BRANCH  32  33
HETATM   33  C   UNL     1      19.554  48.018  48.701  1.00  0.00     0.164 C 
BRANCH  33  34
HETATM   34  O   UNL     1      19.418  47.324  49.951  1.00  0.00    -0.390 OA
HETATM   35  H   UNL     1      18.460  47.137  50.032  1.00  0.00     0.210 HD
ENDBRANCH  33  34
BRANCH  33  36
HETATM   36  C   UNL     1      19.281  49.498  48.880  1.00  0.00    -0.029 A 
HETATM   37  C   UNL     1      20.140  50.442  48.291  1.00  0.00     0.010 A 
HETATM   38  C   UNL     1      19.925  51.810  48.471  1.00  0.00     0.001 A 
HETATM   39  C   UNL     1      18.850  52.254  49.238  1.00  0.00     0.000 A 
HETATM   40  C   UNL     1      17.989  51.331  49.826  1.00  0.00     0.001 A 
HETATM   41  C   UNL     1      18.205  49.963  49.651  1.00  0.00     0.010 A 
ENDBRANCH  33  36
ENDBRANCH  32  33
ENDBRANCH  30  32
ENDBRANCH  11  30
TORSDOF 11
ENDMDL
MODEL 8
REMARK VINA RESULT:      -9.6      2.875     10.311
REMARK  11 active torsions:
REMARK  status: ('A' for Active; 'I' for Inactive)
REMARK    1  A    between atoms: O_2  and  C_3 
REMARK    2  A    between atoms: C_6  and  C_7 
REMARK    3  A    between atoms: C_7  and  C_8 
REMARK    4  A    between atoms: C_8  and  N_9 
REMARK    5  A    between atoms: C_13  and  C_14 
REMARK    6  A    between atoms: C_14  and  C_15 
REMARK    7  A    between atoms: C_25  and  N_26 
REMARK    8  A    between atoms: N_26  and  C_27 
REMARK    9  A    between atoms: C_27  and  C_28 
REMARK   10  A    between atoms: C_28  and  O_29 
REMARK   11  A    between atoms: C_28  and  C_30 
ROOT
HETATM    1  C   UNL     1      26.463  44.741  51.120  1.00  0.00     0.074 A 
HETATM    2  C   UNL     1      26.942  45.220  52.453  1.00  0.00     0.266 A 
HETATM    3  O   UNL     1      26.465  46.249  52.940  1.00  0.00    -0.267 OA
HETATM    4  N   UNL     1      27.919  44.458  53.067  1.00  0.00    -0.273 N 
HETATM    5  C   UNL     1      28.426  43.350  52.415  1.00  0.00     0.138 A 
HETATM    6  N   UNL     1      28.046  42.954  51.241  1.00  0.00    -0.218 NA
HETATM    7  C   UNL     1      28.386  44.830  54.323  1.00  0.00     0.102 A 
HETATM    8  C   UNL     1      29.337  44.132  54.957  1.00  0.00     0.018 A 
HETATM    9  C   UNL     1      29.904  42.966  54.332  1.00  0.00     0.005 A 
HETATM   10  C   UNL     1      29.486  42.575  53.123  1.00  0.00     0.051 A 
HETATM   11  C   UNL     1      27.061  43.651  50.591  1.00  0.00     0.121 A 
ENDROOT
BRANCH   1  12
HETATM   12  C   UNL     1      25.396  45.515  50.501  1.00  0.00     0.045 C 
BRANCH  12  13
HETATM   13  C   UNL     1      25.475  46.743  49.976  1.00  0.00     0.077 A 
HETATM   14  S   UNL     1      26.870  47.675  49.616  1.00  0.00    -0.055 SA
HETATM   15  C   UNL     1      25.931  48.971  48.883  1.00  0.00     0.148 A 
HETATM   16  N   UNL     1      24.595  48.632  48.876  1.00  0.00    -0.298 N 
HETATM   17  S   UNL     1      26.643  50.366  48.306  1.00  0.00    -0.052 SA
HETATM   18  C   UNL     1      24.255  47.451  49.509  1.00  0.00     0.266 A 
HETATM   19  O   UNL     1      23.119  47.022  49.664  1.00  0.00    -0.266 OA
BRANCH  16  20
HETATM   20  C   UNL     1      23.533  49.399  48.222  1.00  0.00     0.138 C 
BRANCH  20  21
HETATM   21  C   UNL     1      23.069  50.601  49.051  1.00  0.00     0.059 C 
BRANCH  21  22
HETATM   22  C   UNL     1      21.569  50.762  48.979  1.00  0.00    -0.057 A 
HETATM   23  C   UNL     1      20.830  51.011  50.141  1.00  0.00     0.010 A 
HETATM   24  C   UNL     1      19.439  51.123  50.083  1.00  0.00     0.037 A 
HETATM   25  C   UNL     1      18.766  51.004  48.867  1.00  0.00     0.068 A 
HETATM   26  C   UNL     1      19.497  50.754  47.706  1.00  0.00     0.037 A 
HETATM   27  C   UNL     1      20.891  50.631  47.762  1.00  0.00     0.010 A 
BRANCH  25  28
HETATM   28  O   UNL     1      17.407  51.139  48.949  1.00  0.00    -0.356 OA
HETATM   29  C   UNL     1      16.919  52.208  49.749  1.00  0.00     0.210 C 
ENDBRANCH  25  28
ENDBRANCH  21  22
ENDBRANCH  20  21
ENDBRANCH  16  20
ENDBRANCH  12  13
ENDBRANCH   1  12
BRANCH  11  30
HETATM   30  N   UNL     1      26.712  43.143  49.344  1.00  0.00    -0.274 NA
HETATM   31  H   UNL     1      26.013  43.783  48.959  1.00  0.00     0.129 HD
BRANCH  30  32
HETATM   32  C   UNL     1      26.189  41.772  49.187  1.00  0.00     0.130 C 
BRANCH  32  33
HETATM   33  C   UNL     1      26.871  41.001  48.028  1.00  0.00     0.164 C 
BRANCH  33  34
HETATM   34  O   UNL     1      27.619  41.910  47.206  1.00  0.00    -0.390 OA
HETATM   35  H   UNL     1      27.242  41.806  46.308  1.00  0.00     0.210 HD
ENDBRANCH  33  34
BRANCH  33  36
HETATM   36  C   UNL     1      27.766  39.899  48.557  1.00  0.00    -0.029 A 
HETATM   37  C   UNL     1      28.135  39.890  49.913  1.00  0.00     0.010 A 
HETATM   38  C   UNL     1      28.986  38.902  50.413  1.00  0.00     0.001 A 
HETATM   39  C   UNL     1      29.478  37.910  49.568  1.00  0.00     0.000 A 
HETATM   40  C   UNL     1      29.120  37.905  48.222  1.00  0.00     0.001 A 
HETATM   41  C   UNL     1      28.273  38.894  47.720  1.00  0.00     0.010 A 
ENDBRANCH  33  36
ENDBRANCH  32  33
ENDBRANCH  30  32
ENDBRANCH  11  30
TORSDOF 11
ENDMDL
MODEL 9
REMARK VINA RESULT:      -9.6      2.616      5.068
REMARK  11 active torsions:
REMARK  status: ('A' for Active; 'I' for Inactive)
REMARK    1  A    between atoms: O_2  and  C_3 
REMARK    2  A    between atoms: C_6  and  C_7 
REMARK    3  A    between atoms: C_7  and  C_8 
REMARK    4  A    between atoms: C_8  and  N_9 
REMARK    5  A    between atoms: C_13  and  C_14 
REMARK    6  A    between atoms: C_14  and  C_15 
REMARK    7  A    between atoms: C_25  and  N_26 
REMARK    8  A    between atoms: N_26  and  C_27 
REMARK    9  A    between atoms: C_27  and  C_28 
REMARK   10  A    between atoms: C_28  and  O_29 
REMARK   11  A    between atoms: C_28  and  C_30 
ROOT
HETATM    1  C   UNL     1      21.198  48.073  48.517  1.00  0.00     0.074 A 
HETATM    2  C   UNL     1      21.310  49.556  48.356  1.00  0.00     0.266 A 
HETATM    3  O   UNL     1      22.387  50.055  48.021  1.00  0.00    -0.267 OA
HETATM    4  N   UNL     1      20.164  50.291  48.605  1.00  0.00    -0.273 N 
HETATM    5  C   UNL     1      19.019  49.641  49.027  1.00  0.00     0.138 A 
HETATM    6  N   UNL     1      18.929  48.361  49.210  1.00  0.00    -0.218 NA
HETATM    7  C   UNL     1      20.190  51.671  48.442  1.00  0.00     0.102 A 
HETATM    8  C   UNL     1      19.112  52.429  48.679  1.00  0.00     0.018 A 
HETATM    9  C   UNL     1      17.888  51.813  49.117  1.00  0.00     0.005 A 
HETATM   10  C   UNL     1      17.820  50.488  49.290  1.00  0.00     0.051 A 
HETATM   11  C   UNL     1      20.021  47.575  48.954  1.00  0.00     0.121 A 
ENDROOT
BRANCH   1  12
HETATM   12  C   UNL     1      22.391  47.299  48.202  1.00  0.00     0.045 C 
BRANCH  12  13
HETATM   13  C   UNL     1      23.121  46.547  49.033  1.00  0.00     0.077 A 
HETATM   14  S   UNL     1      23.157  44.839  49.192  1.00  0.00    -0.055 SA
HETATM   15  C   UNL     1      24.459  44.881  50.375  1.00  0.00     0.148 A 
HETATM   16  N   UNL     1      24.871  46.182  50.569  1.00  0.00    -0.298 N 
HETATM   17  S   UNL     1      25.046  43.497  51.100  1.00  0.00    -0.052 SA
HETATM   18  C   UNL     1      24.149  47.162  49.913  1.00  0.00     0.266 A 
HETATM   19  O   UNL     1      24.321  48.369  50.015  1.00  0.00    -0.266 OA
BRANCH  16  20
HETATM   20  C   UNL     1      26.024  46.592  51.372  1.00  0.00     0.138 C 
BRANCH  20  21
HETATM   21  C   UNL     1      25.681  46.783  52.853  1.00  0.00     0.059 C 
BRANCH  21  22
HETATM   22  C   UNL     1      26.810  46.309  53.737  1.00  0.00    -0.057 A 
HETATM   23  C   UNL     1      27.364  47.167  54.694  1.00  0.00     0.010 A 
HETATM   24  C   UNL     1      28.433  46.743  55.487  1.00  0.00     0.037 A 
HETATM   25  C   UNL     1      28.956  45.458  55.350  1.00  0.00     0.068 A 
HETATM   26  C   UNL     1      28.409  44.599  54.396  1.00  0.00     0.037 A 
HETATM   27  C   UNL     1      27.343  45.023  53.592  1.00  0.00     0.010 A 
BRANCH  25  28
HETATM   28  O   UNL     1      29.996  45.169  56.189  1.00  0.00    -0.356 OA
HETATM   29  C   UNL     1      30.821  44.069  55.829  1.00  0.00     0.210 C 
ENDBRANCH  25  28
ENDBRANCH  21  22
ENDBRANCH  20  21
ENDBRANCH  16  20
ENDBRANCH  12  13
ENDBRANCH   1  12
BRANCH  11  30
HETATM   30  N   UNL     1      19.824  46.214  49.167  1.00  0.00    -0.274 NA
HETATM   31  H   UNL     1      20.754  45.803  49.277  1.00  0.00     0.129 HD
BRANCH  30  32
HETATM   32  C   UNL     1      19.085  45.379  48.199  1.00  0.00     0.130 C 
BRANCH  32  33
HETATM   33  C   UNL     1      19.991  44.838  47.063  1.00  0.00     0.164 C 
BRANCH  33  34
HETATM   34  O   UNL     1      19.789  43.425  46.905  1.00  0.00    -0.390 OA
HETATM   35  H   UNL     1      20.556  43.119  46.378  1.00  0.00     0.210 HD
ENDBRANCH  33  34
BRANCH  33  36
HETATM   36  C   UNL     1      19.726  45.564  45.760  1.00  0.00    -0.029 A 
HETATM   37  C   UNL     1      20.290  45.083  44.566  1.00  0.00     0.010 A 
HETATM   38  C   UNL     1      20.086  45.756  43.360  1.00  0.00     0.001 A 
HETATM   39  C   UNL     1      19.315  46.916  43.329  1.00  0.00     0.000 A 
HETATM   40  C   UNL     1      18.748  47.405  44.503  1.00  0.00     0.001 A 
HETATM   41  C   UNL     1      18.955  46.736  45.711  1.00  0.00     0.010 A 
ENDBRANCH  33  36
ENDBRANCH  32  33
ENDBRANCH  30  32
ENDBRANCH  11  30
TORSDOF 11
ENDMDL
MODEL 10
REMARK VINA RESULT:      -9.5      3.031      6.906
REMARK  11 active torsions:
REMARK  status: ('A' for Active; 'I' for Inactive)
REMARK    1  A    between atoms: O_2  and  C_3 
REMARK    2  A    between atoms: C_6  and  C_7 
REMARK    3  A    between atoms: C_7  and  C_8 
REMARK    4  A    between atoms: C_8  and  N_9 
REMARK    5  A    between atoms: C_13  and  C_14 
REMARK    6  A    between atoms: C_14  and  C_15 
REMARK    7  A    between atoms: C_25  and  N_26 
REMARK    8  A    between atoms: N_26  and  C_27 
REMARK    9  A    between atoms: C_27  and  C_28 
REMARK   10  A    between atoms: C_28  and  O_29 
REMARK   11  A    between atoms: C_28  and  C_30 
ROOT
HETATM    1  C   UNL     1      18.744  47.876  48.756  1.00  0.00     0.074 A 
HETATM    2  C   UNL     1      17.442  48.555  48.472  1.00  0.00     0.266 A 
HETATM    3  O   UNL     1      16.528  47.924  47.934  1.00  0.00    -0.267 OA
HETATM    4  N   UNL     1      17.348  49.885  48.839  1.00  0.00    -0.273 N 
HETATM    5  C   UNL     1      18.448  50.517  49.388  1.00  0.00     0.138 A 
HETATM    6  N   UNL     1      19.592  49.946  49.597  1.00  0.00    -0.218 NA
HETATM    7  C   UNL     1      16.154  50.568  48.633  1.00  0.00     0.102 A 
HETATM    8  C   UNL     1      16.013  51.858  48.961  1.00  0.00     0.018 A 
HETATM    9  C   UNL     1      17.120  52.572  49.540  1.00  0.00     0.005 A 
HETATM   10  C   UNL     1      18.288  51.955  49.753  1.00  0.00     0.051 A 
HETATM   11  C   UNL     1      19.741  48.622  49.281  1.00  0.00     0.121 A 
ENDROOT
BRANCH   1  12
HETATM   12  C   UNL     1      18.821  46.462  48.418  1.00  0.00     0.045 C 
BRANCH  12  13
HETATM   13  C   UNL     1      19.762  45.842  47.697  1.00  0.00     0.077 A 
HETATM   14  S   UNL     1      20.077  45.949  46.014  1.00  0.00    -0.055 SA
HETATM   15  C   UNL     1      21.506  44.928  46.119  1.00  0.00     0.148 A 
HETATM   16  N   UNL     1      21.740  44.587  47.434  1.00  0.00    -0.298 N 
HETATM   17  S   UNL     1      22.388  44.492  44.771  1.00  0.00    -0.052 SA
HETATM   18  C   UNL     1      20.796  45.001  48.356  1.00  0.00     0.266 A 
HETATM   19  O   UNL     1      20.796  44.737  49.551  1.00  0.00    -0.266 OA
BRANCH  16  20
HETATM   20  C   UNL     1      22.916  43.866  47.924  1.00  0.00     0.138 C 
BRANCH  20  21
HETATM   21  C   UNL     1      24.102  44.791  48.217  1.00  0.00     0.059 C 
BRANCH  21  22
HETATM   22  C   UNL     1      24.827  44.361  49.470  1.00  0.00    -0.057 A 
HETATM   23  C   UNL     1      26.129  43.853  49.392  1.00  0.00     0.010 A 
HETATM   24  C   UNL     1      26.788  43.420  50.545  1.00  0.00     0.037 A 
HETATM   25  C   UNL     1      26.168  43.500  51.792  1.00  0.00     0.068 A 
HETATM   26  C   UNL     1      24.870  44.004  51.875  1.00  0.00     0.037 A 
HETATM   27  C   UNL     1      24.202  44.430  50.720  1.00  0.00     0.010 A 
BRANCH  25  28
HETATM   28  O   UNL     1      26.925  43.048  52.838  1.00  0.00    -0.356 OA
HETATM   29  C   UNL     1      27.887  43.950  53.368  1.00  0.00     0.210 C 
ENDBRANCH  25  28
ENDBRANCH  21  22
ENDBRANCH  20  21
ENDBRANCH  16  20
ENDBRANCH  12  13
ENDBRANCH   1  12
BRANCH  11  30
HETATM   30  N   UNL     1      20.999  48.094  49.552  1.00  0.00    -0.274 NA
HETATM   31  H   UNL     1      21.271  48.456  50.469  1.00  0.00     0.129 HD
BRANCH  30  32
HETATM   32  C   UNL     1      22.139  48.305  48.638  1.00  0.00     0.130 C 
BRANCH  32  33
HETATM   33  C   UNL     1      23.014  49.518  49.045  1.00  0.00     0.164 C 
BRANCH  33  34
HETATM   34  O   UNL     1      22.598  50.019  50.324  1.00  0.00    -0.390 OA
HETATM   35  H   UNL     1      23.048  50.884  50.414  1.00  0.00     0.210 HD
ENDBRANCH  33  34
BRANCH  33  36
HETATM   36  C   UNL     1      24.484  49.147  49.070  1.00  0.00    -0.029 A 
HETATM   37  C   UNL     1      24.911  48.034  49.813  1.00  0.00     0.010 A 
HETATM   38  C   UNL     1      26.264  47.695  49.876  1.00  0.00     0.001 A 
HETATM   39  C   UNL     1      27.208  48.461  49.195  1.00  0.00     0.000 A 
HETATM   40  C   UNL     1      26.801  49.566  48.453  1.00  0.00     0.001 A 
HETATM   41  C   UNL     1      25.449  49.909  48.393  1.00  0.00     0.010 A 
ENDBRANCH  33  36
ENDBRANCH  32  33
ENDBRANCH  30  32
ENDBRANCH  11  30
TORSDOF 11
ENDMDL
