MODEL 1
REMARK VINA RESULT:      -9.0      0.000      0.000
REMARK  2 active torsions:
REMARK  status: ('A' for Active; 'I' for Inactive)
REMARK    1  A    between atoms: C_2  and  N_3 
REMARK    2  A    between atoms: N_3  and  C_4 
ROOT
HETATM    1  C   UNL     1      26.563  43.984  53.114  1.00  0.00     0.143 A 
HETATM    2  N   UNL     1      25.499  44.608  52.553  1.00  0.00    -0.223 NA
HETATM    3  C   UNL     1      25.280  45.906  52.796  1.00  0.00     0.236 A 
HETATM    4  N   UNL     1      26.005  46.716  53.562  1.00  0.00    -0.234 NA
HETATM    5  C   UNL     1      27.063  46.094  54.102  1.00  0.00     0.114 A 
HETATM    6  C   UNL     1      27.430  44.762  53.932  1.00  0.00     0.053 A 
HETATM    7  S   UNL     1      28.114  46.959  55.124  1.00  0.00    -0.073 SA
HETATM    8  C   UNL     1      29.099  45.600  55.361  1.00  0.00    -0.008 A 
HETATM    9  C   UNL     1      28.663  44.490  54.657  1.00  0.00    -0.028 A 
HETATM   10  C   UNL     1      29.426  43.194  54.720  1.00  0.00     0.041 C 
HETATM   11  C   UNL     1      30.831  43.361  55.319  1.00  0.00     0.005 C 
HETATM   12  C   UNL     1      30.819  44.257  56.561  1.00  0.00     0.005 C 
HETATM   13  C   UNL     1      30.324  45.668  56.220  1.00  0.00     0.047 C 
ENDROOT
BRANCH   1  14
HETATM   14  N   UNL     1      26.779  42.614  52.895  1.00  0.00    -0.340 N 
HETATM   15  H   UNL     1      26.338  42.030  53.587  1.00  0.00     0.167 HD
BRANCH  14  16
HETATM   16  C   UNL     1      27.339  41.882  51.829  1.00  0.00     0.036 A 
HETATM   17  C   UNL     1      28.160  40.746  51.997  1.00  0.00     0.032 A 
HETATM   18  C   UNL     1      28.672  40.036  50.902  1.00  0.00     0.042 A 
HETATM   19  C   UNL     1      28.342  40.472  49.642  1.00  0.00     0.105 A 
HETATM   20  C   UNL     1      27.536  41.565  49.454  1.00  0.00     0.107 A 
HETATM   21  O   UNL     1      28.738  39.910  48.470  1.00  0.00    -0.323 OA
HETATM   22  C   UNL     1      27.022  42.282  50.517  1.00  0.00     0.069 A 
HETATM   23  O   UNL     1      27.319  41.832  48.138  1.00  0.00    -0.323 OA
HETATM   24  C   UNL     1      28.084  40.775  47.520  1.00  0.00     0.352 A 
ENDBRANCH  14  16
ENDBRANCH   1  14
TORSDOF 2
ENDMDL
MODEL 2
REMARK VINA RESULT:      -8.9      8.666     11.665
REMARK  2 active torsions:
REMARK  status: ('A' for Active; 'I' for Inactive)
REMARK    1  A    between atoms: C_2  and  N_3 
REMARK    2  A    between atoms: N_3  and  C_4 
ROOT
HETATM    1  C   UNL     1      19.799  47.851  49.011  1.00  0.00     0.143 A 
HETATM    2  N   UNL     1      19.837  46.543  48.657  1.00  0.00    -0.223 NA
HETATM    3  C   UNL     1      18.739  45.950  48.173  1.00  0.00     0.236 A 
HETATM    4  N   UNL     1      17.544  46.498  47.984  1.00  0.00    -0.234 NA
HETATM    5  C   UNL     1      17.519  47.795  48.323  1.00  0.00     0.114 A 
HETATM    6  C   UNL     1      18.574  48.552  48.823  1.00  0.00     0.053 A 
HETATM    7  S   UNL     1      16.072  48.678  48.162  1.00  0.00    -0.073 SA
HETATM    8  C   UNL     1      16.803  50.096  48.734  1.00  0.00    -0.008 A 
HETATM    9  C   UNL     1      18.146  49.928  49.028  1.00  0.00    -0.028 A 
HETATM   10  C   UNL     1      18.972  51.084  49.523  1.00  0.00     0.041 C 
HETATM   11  C   UNL     1      18.279  52.440  49.320  1.00  0.00     0.005 C 
HETATM   12  C   UNL     1      16.798  52.388  49.708  1.00  0.00     0.005 C 
HETATM   13  C   UNL     1      16.034  51.377  48.844  1.00  0.00     0.047 C 
ENDROOT
BRANCH   1  14
HETATM   14  N   UNL     1      20.935  48.472  49.555  1.00  0.00    -0.340 N 
HETATM   15  H   UNL     1      20.966  48.425  50.561  1.00  0.00     0.167 HD
BRANCH  14  16
HETATM   16  C   UNL     1      22.112  49.000  48.989  1.00  0.00     0.036 A 
HETATM   17  C   UNL     1      22.131  50.043  48.038  1.00  0.00     0.032 A 
HETATM   18  C   UNL     1      23.332  50.552  47.524  1.00  0.00     0.042 A 
HETATM   19  C   UNL     1      24.508  50.010  47.982  1.00  0.00     0.105 A 
HETATM   20  C   UNL     1      24.515  49.005  48.914  1.00  0.00     0.107 A 
HETATM   21  O   UNL     1      25.761  50.377  47.603  1.00  0.00    -0.323 OA
HETATM   22  C   UNL     1      23.345  48.486  49.433  1.00  0.00     0.069 A 
HETATM   23  O   UNL     1      25.774  48.610  49.245  1.00  0.00    -0.323 OA
HETATM   24  C   UNL     1      26.559  49.488  48.411  1.00  0.00     0.352 A 
ENDBRANCH  14  16
ENDBRANCH   1  14
TORSDOF 2
ENDMDL
MODEL 3
REMARK VINA RESULT:      -8.6      3.534      5.728
REMARK  2 active torsions:
REMARK  status: ('A' for Active; 'I' for Inactive)
REMARK    1  A    between atoms: C_2  and  N_3 
REMARK    2  A    between atoms: N_3  and  C_4 
ROOT
HETATM    1  C   UNL     1      25.611  44.299  51.563  1.00  0.00     0.143 A 
HETATM    2  N   UNL     1      25.303  43.257  50.753  1.00  0.00    -0.223 NA
HETATM    3  C   UNL     1      26.007  42.121  50.830  1.00  0.00     0.236 A 
HETATM    4  N   UNL     1      27.030  41.859  51.636  1.00  0.00    -0.234 NA
HETATM    5  C   UNL     1      27.319  42.891  52.443  1.00  0.00     0.114 A 
HETATM    6  C   UNL     1      26.674  44.123  52.493  1.00  0.00     0.053 A 
HETATM    7  S   UNL     1      28.608  42.757  53.547  1.00  0.00    -0.073 SA
HETATM    8  C   UNL     1      28.341  44.323  54.139  1.00  0.00    -0.008 A 
HETATM    9  C   UNL     1      27.268  44.953  53.531  1.00  0.00    -0.028 A 
HETATM   10  C   UNL     1      26.860  46.341  53.944  1.00  0.00     0.041 C 
HETATM   11  C   UNL     1      27.502  46.780  55.269  1.00  0.00     0.005 C 
HETATM   12  C   UNL     1      28.987  46.411  55.333  1.00  0.00     0.005 C 
HETATM   13  C   UNL     1      29.186  44.893  55.237  1.00  0.00     0.047 C 
ENDROOT
BRANCH   1  14
HETATM   14  N   UNL     1      24.903  45.508  51.463  1.00  0.00    -0.340 N 
HETATM   15  H   UNL     1      24.270  45.659  52.232  1.00  0.00     0.167 HD
BRANCH  14  16
HETATM   16  C   UNL     1      25.010  46.622  50.607  1.00  0.00     0.036 A 
HETATM   17  C   UNL     1      23.915  47.211  49.939  1.00  0.00     0.032 A 
HETATM   18  C   UNL     1      24.069  48.337  49.117  1.00  0.00     0.042 A 
HETATM   19  C   UNL     1      25.329  48.868  48.985  1.00  0.00     0.105 A 
HETATM   20  C   UNL     1      26.406  48.321  49.634  1.00  0.00     0.107 A 
HETATM   21  O   UNL     1      25.668  49.953  48.240  1.00  0.00    -0.323 OA
HETATM   22  C   UNL     1      26.279  47.211  50.447  1.00  0.00     0.069 A 
HETATM   23  O   UNL     1      27.562  48.993  49.384  1.00  0.00    -0.323 OA
HETATM   24  C   UNL     1      27.084  50.029  48.500  1.00  0.00     0.352 A 
ENDBRANCH  14  16
ENDBRANCH   1  14
TORSDOF 2
ENDMDL
MODEL 4
REMARK VINA RESULT:      -8.3      3.310      4.976
REMARK  2 active torsions:
REMARK  status: ('A' for Active; 'I' for Inactive)
REMARK    1  A    between atoms: C_2  and  N_3 
REMARK    2  A    between atoms: N_3  and  C_4 
ROOT
HETATM    1  C   UNL     1      28.289  44.266  53.440  1.00  0.00     0.143 A 
HETATM    2  N   UNL     1      28.498  43.386  52.430  1.00  0.00    -0.223 NA
HETATM    3  C   UNL     1      29.524  42.529  52.492  1.00  0.00     0.236 A 
HETATM    4  N   UNL     1      30.423  42.417  53.464  1.00  0.00    -0.234 NA
HETATM    5  C   UNL     1      30.202  43.282  54.464  1.00  0.00     0.114 A 
HETATM    6  C   UNL     1      29.175  44.217  54.553  1.00  0.00     0.053 A 
HETATM    7  S   UNL     1      31.252  43.302  55.804  1.00  0.00    -0.073 SA
HETATM    8  C   UNL     1      30.370  44.541  56.552  1.00  0.00    -0.008 A 
HETATM    9  C   UNL     1      29.265  44.935  55.816  1.00  0.00    -0.028 A 
HETATM   10  C   UNL     1      28.343  46.007  56.332  1.00  0.00     0.041 C 
HETATM   11  C   UNL     1      28.563  46.313  57.822  1.00  0.00     0.005 C 
HETATM   12  C   UNL     1      30.051  46.407  58.171  1.00  0.00     0.005 C 
HETATM   13  C   UNL     1      30.770  45.081  57.891  1.00  0.00     0.047 C 
ENDROOT
BRANCH   1  14
HETATM   14  N   UNL     1      27.238  45.194  53.366  1.00  0.00    -0.340 N 
HETATM   15  H   UNL     1      27.252  45.866  54.116  1.00  0.00     0.167 HD
BRANCH  14  16
HETATM   16  C   UNL     1      26.271  45.483  52.383  1.00  0.00     0.036 A 
HETATM   17  C   UNL     1      25.278  44.572  51.962  1.00  0.00     0.032 A 
HETATM   18  C   UNL     1      24.320  44.917  50.997  1.00  0.00     0.042 A 
HETATM   19  C   UNL     1      24.366  46.186  50.472  1.00  0.00     0.105 A 
HETATM   20  C   UNL     1      25.313  47.091  50.875  1.00  0.00     0.107 A 
HETATM   21  O   UNL     1      23.522  46.696  49.537  1.00  0.00    -0.323 OA
HETATM   22  C   UNL     1      26.267  46.774  51.821  1.00  0.00     0.069 A 
HETATM   23  O   UNL     1      25.187  48.291  50.246  1.00  0.00    -0.323 OA
HETATM   24  C   UNL     1      24.046  48.033  49.401  1.00  0.00     0.352 A 
ENDBRANCH  14  16
ENDBRANCH   1  14
TORSDOF 2
ENDMDL
MODEL 5
REMARK VINA RESULT:      -8.2      3.209      4.133
REMARK  2 active torsions:
REMARK  status: ('A' for Active; 'I' for Inactive)
REMARK    1  A    between atoms: C_2  and  N_3 
REMARK    2  A    between atoms: N_3  and  C_4 
ROOT
HETATM    1  C   UNL     1      26.402  46.119  52.751  1.00  0.00     0.143 A 
HETATM    2  N   UNL     1      25.624  47.190  53.039  1.00  0.00    -0.223 NA
HETATM    3  C   UNL     1      25.767  47.824  54.209  1.00  0.00     0.236 A 
HETATM    4  N   UNL     1      26.616  47.529  55.188  1.00  0.00    -0.234 NA
HETATM    5  C   UNL     1      27.392  46.477  54.888  1.00  0.00     0.114 A 
HETATM    6  C   UNL     1      27.373  45.728  53.716  1.00  0.00     0.053 A 
HETATM    7  S   UNL     1      28.543  45.934  56.019  1.00  0.00    -0.073 SA
HETATM    8  C   UNL     1      29.065  44.698  54.983  1.00  0.00    -0.008 A 
HETATM    9  C   UNL     1      28.399  44.695  53.769  1.00  0.00    -0.028 A 
HETATM   10  C   UNL     1      28.744  43.687  52.707  1.00  0.00     0.041 C 
HETATM   11  C   UNL     1      30.073  42.965  52.983  1.00  0.00     0.005 C 
HETATM   12  C   UNL     1      30.199  42.546  54.450  1.00  0.00     0.005 C 
HETATM   13  C   UNL     1      30.168  43.765  55.380  1.00  0.00     0.047 C 
ENDROOT
BRANCH   1  14
HETATM   14  N   UNL     1      26.233  45.423  51.542  1.00  0.00    -0.340 N 
HETATM   15  H   UNL     1      27.105  45.137  51.127  1.00  0.00     0.167 HD
BRANCH  14  16
HETATM   16  C   UNL     1      25.105  44.903  50.877  1.00  0.00     0.036 A 
HETATM   17  C   UNL     1      24.596  43.604  51.085  1.00  0.00     0.032 A 
HETATM   18  C   UNL     1      23.453  43.141  50.417  1.00  0.00     0.042 A 
HETATM   19  C   UNL     1      22.826  44.001  49.549  1.00  0.00     0.105 A 
HETATM   20  C   UNL     1      23.294  45.272  49.339  1.00  0.00     0.107 A 
HETATM   21  O   UNL     1      21.710  43.732  48.821  1.00  0.00    -0.323 OA
HETATM   22  C   UNL     1      24.419  45.749  49.984  1.00  0.00     0.069 A 
HETATM   23  O   UNL     1      22.533  45.969  48.454  1.00  0.00    -0.323 OA
HETATM   24  C   UNL     1      21.528  44.985  48.131  1.00  0.00     0.352 A 
ENDBRANCH  14  16
ENDBRANCH   1  14
TORSDOF 2
ENDMDL
MODEL 6
REMARK VINA RESULT:      -7.9      1.835      2.313
REMARK  2 active torsions:
REMARK  status: ('A' for Active; 'I' for Inactive)
REMARK    1  A    between atoms: C_2  and  N_3 
REMARK    2  A    between atoms: N_3  and  C_4 
ROOT
HETATM    1  C   UNL     1      26.429  44.474  50.616  1.00  0.00     0.143 A 
HETATM    2  N   UNL     1      25.388  45.251  50.230  1.00  0.00    -0.223 NA
HETATM    3  C   UNL     1      24.881  46.157  51.074  1.00  0.00     0.236 A 
HETATM    4  N   UNL     1      25.280  46.414  52.315  1.00  0.00    -0.234 NA
HETATM    5  C   UNL     1      26.319  45.650  52.685  1.00  0.00     0.114 A 
HETATM    6  C   UNL     1      26.961  44.681  51.920  1.00  0.00     0.053 A 
HETATM    7  S   UNL     1      26.973  45.821  54.247  1.00  0.00    -0.073 SA
HETATM    8  C   UNL     1      28.139  44.627  53.954  1.00  0.00    -0.008 A 
HETATM    9  C   UNL     1      28.066  44.105  52.673  1.00  0.00    -0.028 A 
HETATM   10  C   UNL     1      29.039  43.052  52.217  1.00  0.00     0.041 C 
HETATM   11  C   UNL     1      30.249  42.915  53.155  1.00  0.00     0.005 C 
HETATM   12  C   UNL     1      29.833  42.929  54.629  1.00  0.00     0.005 C 
HETATM   13  C   UNL     1      29.146  44.251  54.997  1.00  0.00     0.047 C 
ENDROOT
BRANCH   1  14
HETATM   14  N   UNL     1      26.942  43.494  49.751  1.00  0.00    -0.340 N 
HETATM   15  H   UNL     1      27.575  43.867  49.062  1.00  0.00     0.167 HD
BRANCH  14  16
HETATM   16  C   UNL     1      26.887  42.085  49.745  1.00  0.00     0.036 A 
HETATM   17  C   UNL     1      26.133  41.322  50.662  1.00  0.00     0.032 A 
HETATM   18  C   UNL     1      26.090  39.921  50.597  1.00  0.00     0.042 A 
HETATM   19  C   UNL     1      26.802  39.302  49.599  1.00  0.00     0.105 A 
HETATM   20  C   UNL     1      27.531  40.024  48.690  1.00  0.00     0.107 A 
HETATM   21  O   UNL     1      26.874  37.963  49.379  1.00  0.00    -0.323 OA
HETATM   22  C   UNL     1      27.590  41.403  48.734  1.00  0.00     0.069 A 
HETATM   23  O   UNL     1      28.156  39.232  47.777  1.00  0.00    -0.323 OA
HETATM   24  C   UNL     1      27.732  37.925  48.220  1.00  0.00     0.352 A 
ENDBRANCH  14  16
ENDBRANCH   1  14
TORSDOF 2
ENDMDL
MODEL 7
REMARK VINA RESULT:      -7.9      7.703     10.708
REMARK  2 active torsions:
REMARK  status: ('A' for Active; 'I' for Inactive)
REMARK    1  A    between atoms: C_2  and  N_3 
REMARK    2  A    between atoms: N_3  and  C_4 
ROOT
HETATM    1  C   UNL     1      21.278  47.463  48.156  1.00  0.00     0.143 A 
HETATM    2  N   UNL     1      21.404  46.213  47.648  1.00  0.00    -0.223 NA
HETATM    3  C   UNL     1      20.612  45.816  46.645  1.00  0.00     0.236 A 
HETATM    4  N   UNL     1      19.658  46.520  46.045  1.00  0.00    -0.234 NA
HETATM    5  C   UNL     1      19.549  47.759  46.544  1.00  0.00     0.114 A 
HETATM    6  C   UNL     1      20.305  48.320  47.569  1.00  0.00     0.053 A 
HETATM    7  S   UNL     1      18.375  48.818  45.913  1.00  0.00    -0.073 SA
HETATM    8  C   UNL     1      18.842  50.060  46.967  1.00  0.00    -0.008 A 
HETATM    9  C   UNL     1      19.900  49.702  47.786  1.00  0.00    -0.028 A 
HETATM   10  C   UNL     1      20.473  50.684  48.772  1.00  0.00     0.041 C 
HETATM   11  C   UNL     1      20.013  52.126  48.509  1.00  0.00     0.005 C 
HETATM   12  C   UNL     1      18.515  52.200  48.199  1.00  0.00     0.005 C 
HETATM   13  C   UNL     1      18.171  51.399  46.937  1.00  0.00     0.047 C 
ENDROOT
BRANCH   1  14
HETATM   14  N   UNL     1      22.078  47.876  49.234  1.00  0.00    -0.340 N 
HETATM   15  H   UNL     1      21.559  47.992  50.089  1.00  0.00     0.167 HD
BRANCH  14  16
HETATM   16  C   UNL     1      23.471  48.003  49.410  1.00  0.00     0.036 A 
HETATM   17  C   UNL     1      24.251  47.122  50.188  1.00  0.00     0.032 A 
HETATM   18  C   UNL     1      25.640  47.276  50.311  1.00  0.00     0.042 A 
HETATM   19  C   UNL     1      26.232  48.316  49.635  1.00  0.00     0.105 A 
HETATM   20  C   UNL     1      25.496  49.177  48.863  1.00  0.00     0.107 A 
HETATM   21  O   UNL     1      27.558  48.616  49.631  1.00  0.00    -0.323 OA
HETATM   22  C   UNL     1      24.128  49.046  48.729  1.00  0.00     0.069 A 
HETATM   23  O   UNL     1      26.264  50.131  48.271  1.00  0.00    -0.323 OA
HETATM   24  C   UNL     1      27.572  49.767  48.761  1.00  0.00     0.352 A 
ENDBRANCH  14  16
ENDBRANCH   1  14
TORSDOF 2
ENDMDL
MODEL 8
REMARK VINA RESULT:      -7.8     15.033     16.153
REMARK  2 active torsions:
REMARK  status: ('A' for Active; 'I' for Inactive)
REMARK    1  A    between atoms: C_2  and  N_3 
REMARK    2  A    between atoms: N_3  and  C_4 
ROOT
HETATM    1  C   UNL     1      35.457  44.464  66.378  1.00  0.00     0.143 A 
HETATM    2  N   UNL     1      34.913  43.697  67.353  1.00  0.00    -0.223 NA
HETATM    3  C   UNL     1      34.783  44.184  68.593  1.00  0.00     0.236 A 
HETATM    4  N   UNL     1      35.138  45.389  69.026  1.00  0.00    -0.234 NA
HETATM    5  C   UNL     1      35.663  46.147  68.052  1.00  0.00     0.114 A 
HETATM    6  C   UNL     1      35.848  45.790  66.720  1.00  0.00     0.053 A 
HETATM    7  S   UNL     1      36.189  47.726  68.408  1.00  0.00    -0.073 SA
HETATM    8  C   UNL     1      36.666  47.993  66.804  1.00  0.00    -0.008 A 
HETATM    9  C   UNL     1      36.412  46.909  65.979  1.00  0.00    -0.028 A 
HETATM   10  C   UNL     1      36.742  46.968  64.512  1.00  0.00     0.041 C 
HETATM   11  C   UNL     1      37.026  48.398  64.025  1.00  0.00     0.005 C 
HETATM   12  C   UNL     1      37.921  49.166  65.001  1.00  0.00     0.005 C 
HETATM   13  C   UNL     1      37.253  49.303  66.375  1.00  0.00     0.047 C 
ENDROOT
BRANCH   1  14
HETATM   14  N   UNL     1      35.633  43.948  65.083  1.00  0.00    -0.340 N 
HETATM   15  H   UNL     1      34.946  44.284  64.428  1.00  0.00     0.167 HD
BRANCH  14  16
HETATM   16  C   UNL     1      36.657  43.195  64.474  1.00  0.00     0.036 A 
HETATM   17  C   UNL     1      37.439  43.655  63.394  1.00  0.00     0.032 A 
HETATM   18  C   UNL     1      38.465  42.876  62.839  1.00  0.00     0.042 A 
HETATM   19  C   UNL     1      38.701  41.640  63.389  1.00  0.00     0.105 A 
HETATM   20  C   UNL     1      37.962  41.177  64.447  1.00  0.00     0.107 A 
HETATM   21  O   UNL     1      39.650  40.754  62.989  1.00  0.00    -0.323 OA
HETATM   22  C   UNL     1      36.946  41.925  65.008  1.00  0.00     0.069 A 
HETATM   23  O   UNL     1      38.353  39.938  64.853  1.00  0.00    -0.323 OA
HETATM   24  C   UNL     1      39.427  39.678  63.924  1.00  0.00     0.352 A 
ENDBRANCH  14  16
ENDBRANCH   1  14
TORSDOF 2
ENDMDL
MODEL 9
REMARK VINA RESULT:      -7.6     15.273     17.199
REMARK  2 active torsions:
REMARK  status: ('A' for Active; 'I' for Inactive)
REMARK    1  A    between atoms: C_2  and  N_3 
REMARK    2  A    between atoms: N_3  and  C_4 
ROOT
HETATM    1  C   UNL     1      38.751  43.878  63.427  1.00  0.00     0.143 A 
HETATM    2  N   UNL     1      37.398  43.825  63.391  1.00  0.00    -0.223 NA
HETATM    3  C   UNL     1      36.676  44.798  63.961  1.00  0.00     0.236 A 
HETATM    4  N   UNL     1      37.131  45.871  64.599  1.00  0.00    -0.234 NA
HETATM    5  C   UNL     1      38.471  45.922  64.618  1.00  0.00     0.114 A 
HETATM    6  C   UNL     1      39.353  45.002  64.061  1.00  0.00     0.053 A 
HETATM    7  S   UNL     1      39.251  47.219  65.398  1.00  0.00    -0.073 SA
HETATM    8  C   UNL     1      40.783  46.610  65.007  1.00  0.00    -0.008 A 
HETATM    9  C   UNL     1      40.726  45.441  64.267  1.00  0.00    -0.028 A 
HETATM   10  C   UNL     1      41.987  44.765  63.802  1.00  0.00     0.041 C 
HETATM   11  C   UNL     1      43.225  45.667  63.928  1.00  0.00     0.005 C 
HETATM   12  C   UNL     1      43.253  46.414  65.265  1.00  0.00     0.005 C 
HETATM   13  C   UNL     1      42.032  47.332  65.411  1.00  0.00     0.047 C 
ENDROOT
BRANCH   1  14
HETATM   14  N   UNL     1      39.517  42.843  62.866  1.00  0.00    -0.340 N 
HETATM   15  H   UNL     1      40.075  43.144  62.084  1.00  0.00     0.167 HD
BRANCH  14  16
HETATM   16  C   UNL     1      39.792  41.519  63.264  1.00  0.00     0.036 A 
HETATM   17  C   UNL     1      39.358  40.377  62.557  1.00  0.00     0.032 A 
HETATM   18  C   UNL     1      39.680  39.079  62.980  1.00  0.00     0.042 A 
HETATM   19  C   UNL     1      40.449  38.945  64.110  1.00  0.00     0.105 A 
HETATM   20  C   UNL     1      40.893  40.040  64.806  1.00  0.00     0.107 A 
HETATM   21  O   UNL     1      40.862  37.774  64.664  1.00  0.00    -0.323 OA
HETATM   22  C   UNL     1      40.586  41.327  64.410  1.00  0.00     0.069 A 
HETATM   23  O   UNL     1      41.645  39.700  65.887  1.00  0.00    -0.323 OA
HETATM   24  C   UNL     1      41.623  38.260  65.789  1.00  0.00     0.352 A 
ENDBRANCH  14  16
ENDBRANCH   1  14
TORSDOF 2
ENDMDL
MODEL 10
REMARK VINA RESULT:      -7.5      1.751      2.226
REMARK  2 active torsions:
REMARK  status: ('A' for Active; 'I' for Inactive)
REMARK    1  A    between atoms: C_2  and  N_3 
REMARK    2  A    between atoms: N_3  and  C_4 
ROOT
HETATM    1  C   UNL     1      25.943  42.638  51.573  1.00  0.00     0.143 A 
HETATM    2  N   UNL     1      24.798  43.051  50.977  1.00  0.00    -0.223 NA
HETATM    3  C   UNL     1      24.320  44.277  51.226  1.00  0.00     0.236 A 
HETATM    4  N   UNL     1      24.844  45.199  52.027  1.00  0.00    -0.234 NA
HETATM    5  C   UNL     1      25.983  44.786  52.602  1.00  0.00     0.114 A 
HETATM    6  C   UNL     1      26.610  43.555  52.432  1.00  0.00     0.053 A 
HETATM    7  S   UNL     1      26.806  45.821  53.673  1.00  0.00    -0.073 SA
HETATM    8  C   UNL     1      28.029  44.677  53.935  1.00  0.00    -0.008 A 
HETATM    9  C   UNL     1      27.846  43.517  53.202  1.00  0.00    -0.028 A 
HETATM   10  C   UNL     1      28.845  42.394  53.281  1.00  0.00     0.041 C 
HETATM   11  C   UNL     1      30.167  42.821  53.936  1.00  0.00     0.005 C 
HETATM   12  C   UNL     1      29.935  43.675  55.186  1.00  0.00     0.005 C 
HETATM   13  C   UNL     1      29.185  44.968  54.841  1.00  0.00     0.047 C 
ENDROOT
BRANCH   1  14
HETATM   14  N   UNL     1      26.431  41.340  51.348  1.00  0.00    -0.340 N 
HETATM   15  H   UNL     1      26.256  40.714  52.117  1.00  0.00     0.167 HD
BRANCH  14  16
HETATM   16  C   UNL     1      26.964  40.691  50.216  1.00  0.00     0.036 A 
HETATM   17  C   UNL     1      28.333  40.396  50.049  1.00  0.00     0.032 A 
HETATM   18  C   UNL     1      28.811  39.723  48.914  1.00  0.00     0.042 A 
HETATM   19  C   UNL     1      27.898  39.343  47.961  1.00  0.00     0.105 A 
HETATM   20  C   UNL     1      26.561  39.608  48.108  1.00  0.00     0.107 A 
HETATM   21  O   UNL     1      28.174  38.682  46.806  1.00  0.00    -0.323 OA
HETATM   22  C   UNL     1      26.068  40.270  49.215  1.00  0.00     0.069 A 
HETATM   23  O   UNL     1      25.820  39.145  47.065  1.00  0.00    -0.323 OA
HETATM   24  C   UNL     1      26.851  38.557  46.243  1.00  0.00     0.352 A 
ENDBRANCH  14  16
ENDBRANCH   1  14
TORSDOF 2
ENDMDL
