MODEL 1
REMARK VINA RESULT:      -8.4      0.000      0.000
REMARK  8 active torsions:
REMARK  status: ('A' for Active; 'I' for Inactive)
REMARK    1  A    between atoms: C_2  and  C_3 
REMARK    2  A    between atoms: C_6  and  C_7 
REMARK    3  A    between atoms: C_11  and  C_12 
REMARK    4  A    between atoms: C_12  and  C_13 
REMARK    5  A    between atoms: C_13  and  C_14 
REMARK    6  A    between atoms: C_14  and  O_15 
REMARK    7  A    between atoms: C_20  and  C_21 
REMARK       I    between atoms: C_21  and  N_22 
REMARK    8  A    between atoms: N_22  and  C_23 
ROOT
HETATM    1  C   UNL     1      26.425  44.659  49.959  1.00  0.00     0.202 C 
HETATM    2  N   UNL     1      25.992  46.054  49.809  1.00  0.00    -0.083 N 
HETATM    3  C   UNL     1      24.681  46.441  49.747  1.00  0.00     0.726 A 
HETATM    4  N   UNL     1      24.616  47.730  49.531  1.00  0.00    -0.046 NA
HETATM    5  C   UNL     1      25.940  48.091  49.425  1.00  0.00     0.166 A 
HETATM    6  N   UNL     1      26.822  47.091  49.573  1.00  0.00    -0.140 NA
HETATM    7  N   UNL     1      23.708  45.513  49.837  1.00  0.00    -0.192 N 
HETATM    8  C   UNL     1      23.964  44.146  49.769  1.00  0.00     0.037 C 
HETATM    9  C   UNL     1      22.756  43.278  49.513  1.00  0.00     0.070 C 
HETATM   10  C   UNL     1      25.243  43.698  49.844  1.00  0.00     0.062 C 
HETATM   11  H   UNL     1      22.755  45.820  49.661  1.00  0.00     0.184 HD
ENDROOT
BRANCH  10  12
HETATM   12  C   UNL     1      25.651  42.275  49.680  1.00  0.00     0.256 C 
HETATM   13  N   UNL     1      26.338  42.019  48.514  1.00  0.00    -0.323 N 
HETATM   14  H   UNL     1      26.484  42.797  47.885  1.00  0.00     0.169 HD
HETATM   15  O   UNL     1      25.335  41.471  50.548  1.00  0.00    -0.267 OA
BRANCH  13  16
HETATM   16  C   UNL     1      26.923  40.795  48.126  1.00  0.00     0.035 A 
HETATM   17  C   UNL     1      28.113  40.295  48.660  1.00  0.00     0.031 A 
HETATM   18  C   UNL     1      28.644  39.083  48.204  1.00  0.00     0.026 A 
HETATM   19  C   UNL     1      27.989  38.368  47.206  1.00  0.00     0.034 A 
HETATM   20 CL   UNL     1      28.651  36.889  46.633  1.00  0.00    -0.084 Cl
HETATM   21  C   UNL     1      26.800  38.851  46.667  1.00  0.00     0.026 A 
HETATM   22  C   UNL     1      26.264  40.056  47.133  1.00  0.00     0.031 A 
ENDBRANCH  13  16
ENDBRANCH  10  12
BRANCH   1  23
HETATM   23  C   UNL     1      27.197  44.477  51.263  1.00  0.00    -0.028 A 
HETATM   24  C   UNL     1      28.374  43.715  51.332  1.00  0.00     0.010 A 
HETATM   25  C   UNL     1      29.055  43.563  52.544  1.00  0.00     0.007 A 
HETATM   26  C   UNL     1      28.575  44.169  53.711  1.00  0.00    -0.059 A 
HETATM   27  C   UNL     1      27.415  44.947  53.642  1.00  0.00     0.007 A 
HETATM   28  C   UNL     1      26.735  45.101  52.432  1.00  0.00     0.010 A 
BRANCH  26  29
HETATM   29  C   UNL     1      29.299  43.996  55.023  1.00  0.00     0.034 C 
HETATM   30  C   UNL     1      30.588  43.204  54.866  1.00  0.00     0.010 C 
ENDBRANCH  26  29
ENDBRANCH   1  23
BRANCH   5  31
HETATM   31  C   UNL     1      26.360  49.481  49.108  1.00  0.00     0.085 C 
BRANCH  31  32
HETATM   32  C   UNL     1      25.757  50.029  47.819  1.00  0.00     0.034 C 
BRANCH  32  33
HETATM   33  C   UNL     1      24.343  50.564  48.008  1.00  0.00     0.164 C 
BRANCH  33  34
HETATM   34  O   UNL     1      23.418  49.722  47.328  1.00  0.00    -0.401 OA
HETATM   35  H   UNL     1      23.878  48.893  47.114  1.00  0.00     0.209 HD
ENDBRANCH  33  34
ENDBRANCH  32  33
ENDBRANCH  31  32
ENDBRANCH   5  31
TORSDOF 8
ENDMDL
MODEL 2
REMARK VINA RESULT:      -8.4      3.352      6.213
REMARK  8 active torsions:
REMARK  status: ('A' for Active; 'I' for Inactive)
REMARK    1  A    between atoms: C_2  and  C_3 
REMARK    2  A    between atoms: C_6  and  C_7 
REMARK    3  A    between atoms: C_11  and  C_12 
REMARK    4  A    between atoms: C_12  and  C_13 
REMARK    5  A    between atoms: C_13  and  C_14 
REMARK    6  A    between atoms: C_14  and  O_15 
REMARK    7  A    between atoms: C_20  and  C_21 
REMARK       I    between atoms: C_21  and  N_22 
REMARK    8  A    between atoms: N_22  and  C_23 
ROOT
HETATM    1  C   UNL     1      24.779  43.694  50.901  1.00  0.00     0.202 C 
HETATM    2  N   UNL     1      23.864  44.199  49.870  1.00  0.00    -0.083 N 
HETATM    3  C   UNL     1      23.857  45.493  49.426  1.00  0.00     0.726 A 
HETATM    4  N   UNL     1      22.882  45.656  48.570  1.00  0.00    -0.046 NA
HETATM    5  C   UNL     1      22.279  44.419  48.550  1.00  0.00     0.166 A 
HETATM    6  N   UNL     1      22.839  43.495  49.345  1.00  0.00    -0.140 NA
HETATM    7  N   UNL     1      24.737  46.377  49.939  1.00  0.00    -0.192 N 
HETATM    8  C   UNL     1      25.513  46.100  51.061  1.00  0.00     0.037 C 
HETATM    9  C   UNL     1      26.153  47.301  51.712  1.00  0.00     0.070 C 
HETATM   10  C   UNL     1      25.575  44.831  51.538  1.00  0.00     0.062 C 
HETATM   11  H   UNL     1      24.620  47.353  49.679  1.00  0.00     0.184 HD
ENDROOT
BRANCH  10  12
HETATM   12  C   UNL     1      26.285  44.430  52.785  1.00  0.00     0.256 C 
HETATM   13  N   UNL     1      27.658  44.490  52.694  1.00  0.00    -0.323 N 
HETATM   14  H   UNL     1      28.048  44.776  51.806  1.00  0.00     0.169 HD
HETATM   15  O   UNL     1      25.619  44.071  53.748  1.00  0.00    -0.267 OA
BRANCH  13  16
HETATM   16  C   UNL     1      28.587  44.256  53.729  1.00  0.00     0.035 A 
HETATM   17  C   UNL     1      28.771  45.109  54.820  1.00  0.00     0.031 A 
HETATM   18  C   UNL     1      29.732  44.821  55.795  1.00  0.00     0.026 A 
HETATM   19  C   UNL     1      30.521  43.680  55.678  1.00  0.00     0.034 A 
HETATM   20 CL   UNL     1      31.715  43.337  56.867  1.00  0.00    -0.084 Cl
HETATM   21  C   UNL     1      30.347  42.818  54.600  1.00  0.00     0.026 A 
HETATM   22  C   UNL     1      29.376  43.101  53.634  1.00  0.00     0.031 A 
ENDBRANCH  13  16
ENDBRANCH  10  12
BRANCH   1  23
HETATM   23  C   UNL     1      25.679  42.603  50.328  1.00  0.00    -0.028 A 
HETATM   24  C   UNL     1      26.486  42.819  49.199  1.00  0.00     0.010 A 
HETATM   25  C   UNL     1      27.295  41.797  48.693  1.00  0.00     0.007 A 
HETATM   26  C   UNL     1      27.316  40.538  49.306  1.00  0.00    -0.059 A 
HETATM   27  C   UNL     1      26.530  40.325  50.443  1.00  0.00     0.007 A 
HETATM   28  C   UNL     1      25.723  41.346  50.949  1.00  0.00     0.010 A 
BRANCH  26  29
HETATM   29  C   UNL     1      28.178  39.428  48.756  1.00  0.00     0.034 C 
HETATM   30  C   UNL     1      28.992  38.743  49.842  1.00  0.00     0.010 C 
ENDBRANCH  26  29
ENDBRANCH   1  23
BRANCH   5  31
HETATM   31  C   UNL     1      21.058  44.144  47.749  1.00  0.00     0.085 C 
BRANCH  31  32
HETATM   32  C   UNL     1      20.361  45.401  47.236  1.00  0.00     0.034 C 
BRANCH  32  33
HETATM   33  C   UNL     1      19.193  45.830  48.115  1.00  0.00     0.164 C 
BRANCH  33  34
HETATM   34  O   UNL     1      18.588  44.682  48.700  1.00  0.00    -0.401 OA
HETATM   35  H   UNL     1      18.055  44.982  49.455  1.00  0.00     0.209 HD
ENDBRANCH  33  34
ENDBRANCH  32  33
ENDBRANCH  31  32
ENDBRANCH   5  31
TORSDOF 8
ENDMDL
MODEL 3
REMARK VINA RESULT:      -8.3      3.392      6.942
REMARK  8 active torsions:
REMARK  status: ('A' for Active; 'I' for Inactive)
REMARK    1  A    between atoms: C_2  and  C_3 
REMARK    2  A    between atoms: C_6  and  C_7 
REMARK    3  A    between atoms: C_11  and  C_12 
REMARK    4  A    between atoms: C_12  and  C_13 
REMARK    5  A    between atoms: C_13  and  C_14 
REMARK    6  A    between atoms: C_14  and  O_15 
REMARK    7  A    between atoms: C_20  and  C_21 
REMARK       I    between atoms: C_21  and  N_22 
REMARK    8  A    between atoms: N_22  and  C_23 
ROOT
HETATM    1  C   UNL     1      24.899  42.182  49.881  1.00  0.00     0.202 C 
HETATM    2  N   UNL     1      24.020  42.215  48.705  1.00  0.00    -0.083 N 
HETATM    3  C   UNL     1      23.745  43.350  47.993  1.00  0.00     0.726 A 
HETATM    4  N   UNL     1      22.872  43.078  47.057  1.00  0.00    -0.046 NA
HETATM    5  C   UNL     1      22.605  41.744  47.264  1.00  0.00     0.166 A 
HETATM    6  N   UNL     1      23.276  41.174  48.277  1.00  0.00    -0.140 NA
HETATM    7  N   UNL     1      24.306  44.519  48.360  1.00  0.00    -0.192 N 
HETATM    8  C   UNL     1      24.983  44.681  49.566  1.00  0.00     0.037 C 
HETATM    9  C   UNL     1      25.218  46.113  49.984  1.00  0.00     0.070 C 
HETATM   10  C   UNL     1      25.302  43.592  50.309  1.00  0.00     0.062 C 
HETATM   11  H   UNL     1      23.982  45.360  47.888  1.00  0.00     0.184 HD
ENDROOT
BRANCH  10  12
HETATM   12  C   UNL     1      25.930  43.643  51.659  1.00  0.00     0.256 C 
HETATM   13  N   UNL     1      27.306  43.566  51.641  1.00  0.00    -0.323 N 
HETATM   14  H   UNL     1      27.749  43.466  50.738  1.00  0.00     0.169 HD
HETATM   15  O   UNL     1      25.203  43.723  52.641  1.00  0.00    -0.267 OA
BRANCH  13  16
HETATM   16  C   UNL     1      28.175  43.675  52.746  1.00  0.00     0.035 A 
HETATM   17  C   UNL     1      27.987  44.571  53.802  1.00  0.00     0.031 A 
HETATM   18  C   UNL     1      28.909  44.638  54.852  1.00  0.00     0.026 A 
HETATM   19  C   UNL     1      30.030  43.813  54.847  1.00  0.00     0.034 A 
HETATM   20 CL   UNL     1      31.172  43.909  56.128  1.00  0.00    -0.084 Cl
HETATM   21  C   UNL     1      30.229  42.911  53.805  1.00  0.00     0.026 A 
HETATM   22  C   UNL     1      29.299  42.837  52.763  1.00  0.00     0.031 A 
ENDBRANCH  13  16
ENDBRANCH  10  12
BRANCH   1  23
HETATM   23  C   UNL     1      26.106  41.286  49.620  1.00  0.00    -0.028 A 
HETATM   24  C   UNL     1      27.039  41.568  48.608  1.00  0.00     0.010 A 
HETATM   25  C   UNL     1      28.132  40.723  48.389  1.00  0.00     0.007 A 
HETATM   26  C   UNL     1      28.317  39.580  49.177  1.00  0.00    -0.059 A 
HETATM   27  C   UNL     1      27.402  39.308  50.199  1.00  0.00     0.007 A 
HETATM   28  C   UNL     1      26.312  40.152  50.420  1.00  0.00     0.010 A 
BRANCH  26  29
HETATM   29  C   UNL     1      29.487  38.660  48.935  1.00  0.00     0.034 C 
HETATM   30  C   UNL     1      29.793  37.793  50.146  1.00  0.00     0.010 C 
ENDBRANCH  26  29
ENDBRANCH   1  23
BRANCH   5  31
HETATM   31  C   UNL     1      21.599  41.002  46.461  1.00  0.00     0.085 C 
BRANCH  31  32
HETATM   32  C   UNL     1      21.508  39.518  46.804  1.00  0.00     0.034 C 
BRANCH  32  33
HETATM   33  C   UNL     1      20.072  39.027  46.932  1.00  0.00     0.164 C 
BRANCH  33  34
HETATM   34  O   UNL     1      19.696  39.005  48.305  1.00  0.00    -0.401 OA
HETATM   35  H   UNL     1      18.800  39.377  48.371  1.00  0.00     0.209 HD
ENDBRANCH  33  34
ENDBRANCH  32  33
ENDBRANCH  31  32
ENDBRANCH   5  31
TORSDOF 8
ENDMDL
MODEL 4
REMARK VINA RESULT:      -8.2      3.464      6.950
REMARK  8 active torsions:
REMARK  status: ('A' for Active; 'I' for Inactive)
REMARK    1  A    between atoms: C_2  and  C_3 
REMARK    2  A    between atoms: C_6  and  C_7 
REMARK    3  A    between atoms: C_11  and  C_12 
REMARK    4  A    between atoms: C_12  and  C_13 
REMARK    5  A    between atoms: C_13  and  C_14 
REMARK    6  A    between atoms: C_14  and  O_15 
REMARK    7  A    between atoms: C_20  and  C_21 
REMARK       I    between atoms: C_21  and  N_22 
REMARK    8  A    between atoms: N_22  and  C_23 
ROOT
HETATM    1  C   UNL     1      26.191  44.204  51.882  1.00  0.00     0.202 C 
HETATM    2  N   UNL     1      27.395  43.968  52.689  1.00  0.00    -0.083 N 
HETATM    3  C   UNL     1      28.199  42.870  52.553  1.00  0.00     0.726 A 
HETATM    4  N   UNL     1      29.140  42.903  53.461  1.00  0.00    -0.046 NA
HETATM    5  C   UNL     1      28.843  44.043  54.173  1.00  0.00     0.166 A 
HETATM    6  N   UNL     1      27.768  44.723  53.744  1.00  0.00    -0.140 NA
HETATM    7  N   UNL     1      27.902  41.938  51.626  1.00  0.00    -0.192 N 
HETATM    8  C   UNL     1      26.690  41.920  50.941  1.00  0.00     0.037 C 
HETATM    9  C   UNL     1      26.373  40.627  50.230  1.00  0.00     0.070 C 
HETATM   10  C   UNL     1      25.857  42.988  51.021  1.00  0.00     0.062 C 
HETATM   11  H   UNL     1      28.446  41.080  51.638  1.00  0.00     0.184 HD
ENDROOT
BRANCH  10  12
HETATM   12  C   UNL     1      24.494  43.044  50.421  1.00  0.00     0.256 C 
HETATM   13  N   UNL     1      24.485  43.353  49.078  1.00  0.00    -0.323 N 
HETATM   14  H   UNL     1      25.380  43.525  48.639  1.00  0.00     0.169 HD
HETATM   15  O   UNL     1      23.527  42.843  51.144  1.00  0.00    -0.267 OA
BRANCH  13  16
HETATM   16  C   UNL     1      23.362  43.393  48.225  1.00  0.00     0.035 A 
HETATM   17  C   UNL     1      22.521  44.501  48.095  1.00  0.00     0.031 A 
HETATM   18  C   UNL     1      21.409  44.454  47.246  1.00  0.00     0.026 A 
HETATM   19  C   UNL     1      21.130  43.295  46.528  1.00  0.00     0.034 A 
HETATM   20 CL   UNL     1      19.754  43.232  45.500  1.00  0.00    -0.084 Cl
HETATM   21  C   UNL     1      21.961  42.184  46.644  1.00  0.00     0.026 A 
HETATM   22  C   UNL     1      23.079  42.237  47.483  1.00  0.00     0.031 A 
ENDBRANCH  13  16
ENDBRANCH  10  12
BRANCH   1  23
HETATM   23  C   UNL     1      26.344  45.478  51.056  1.00  0.00    -0.028 A 
HETATM   24  C   UNL     1      27.299  45.593  50.033  1.00  0.00     0.010 A 
HETATM   25  C   UNL     1      27.419  46.776  49.298  1.00  0.00     0.007 A 
HETATM   26  C   UNL     1      26.586  47.869  49.568  1.00  0.00    -0.059 A 
HETATM   27  C   UNL     1      25.619  47.751  50.572  1.00  0.00     0.007 A 
HETATM   28  C   UNL     1      25.497  46.569  51.305  1.00  0.00     0.010 A 
BRANCH  26  29
HETATM   29  C   UNL     1      26.721  49.152  48.786  1.00  0.00     0.034 C 
HETATM   30  C   UNL     1      25.369  49.731  48.398  1.00  0.00     0.010 C 
ENDBRANCH  26  29
ENDBRANCH   1  23
BRANCH   5  31
HETATM   31  C   UNL     1      29.621  44.458  55.368  1.00  0.00     0.085 C 
BRANCH  31  32
HETATM   32  C   UNL     1      30.736  43.487  55.746  1.00  0.00     0.034 C 
BRANCH  32  33
HETATM   33  C   UNL     1      31.449  43.879  57.034  1.00  0.00     0.164 C 
BRANCH  33  34
HETATM   34  O   UNL     1      32.248  42.791  57.487  1.00  0.00    -0.401 OA
HETATM   35  H   UNL     1      33.143  42.913  57.127  1.00  0.00     0.209 HD
ENDBRANCH  33  34
ENDBRANCH  32  33
ENDBRANCH  31  32
ENDBRANCH   5  31
TORSDOF 8
ENDMDL
MODEL 5
REMARK VINA RESULT:      -8.1      3.705      7.144
REMARK  8 active torsions:
REMARK  status: ('A' for Active; 'I' for Inactive)
REMARK    1  A    between atoms: C_2  and  C_3 
REMARK    2  A    between atoms: C_6  and  C_7 
REMARK    3  A    between atoms: C_11  and  C_12 
REMARK    4  A    between atoms: C_12  and  C_13 
REMARK    5  A    between atoms: C_13  and  C_14 
REMARK    6  A    between atoms: C_14  and  O_15 
REMARK    7  A    between atoms: C_20  and  C_21 
REMARK       I    between atoms: C_21  and  N_22 
REMARK    8  A    between atoms: N_22  and  C_23 
ROOT
HETATM    1  C   UNL     1      25.397  44.017  51.118  1.00  0.00     0.202 C 
HETATM    2  N   UNL     1      26.471  43.194  51.689  1.00  0.00    -0.083 N 
HETATM    3  C   UNL     1      26.829  41.966  51.203  1.00  0.00     0.726 A 
HETATM    4  N   UNL     1      27.756  41.448  51.968  1.00  0.00    -0.046 NA
HETATM    5  C   UNL     1      27.909  42.395  52.953  1.00  0.00     0.166 A 
HETATM    6  N   UNL     1      27.128  43.480  52.832  1.00  0.00    -0.140 NA
HETATM    7  N   UNL     1      26.185  41.461  50.133  1.00  0.00    -0.192 N 
HETATM    8  C   UNL     1      25.019  42.024  49.622  1.00  0.00     0.037 C 
HETATM    9  C   UNL     1      24.238  41.141  48.679  1.00  0.00     0.070 C 
HETATM   10  C   UNL     1      24.621  43.249  50.050  1.00  0.00     0.062 C 
HETATM   11  H   UNL     1      26.390  40.498  49.879  1.00  0.00     0.184 HD
ENDROOT
BRANCH  10  12
HETATM   12  C   UNL     1      23.345  43.909  49.657  1.00  0.00     0.256 C 
HETATM   13  N   UNL     1      23.426  44.641  48.494  1.00  0.00    -0.323 N 
HETATM   14  H   UNL     1      24.327  44.677  48.035  1.00  0.00     0.169 HD
HETATM   15  O   UNL     1      22.367  43.773  50.383  1.00  0.00    -0.267 OA
BRANCH  13  16
HETATM   16  C   UNL     1      22.370  45.300  47.831  1.00  0.00     0.035 A 
HETATM   17  C   UNL     1      21.455  44.660  46.991  1.00  0.00     0.031 A 
HETATM   18  C   UNL     1      20.448  45.388  46.348  1.00  0.00     0.026 A 
HETATM   19  C   UNL     1      20.356  46.764  46.537  1.00  0.00     0.034 A 
HETATM   20 CL   UNL     1      19.130  47.661  45.732  1.00  0.00    -0.084 Cl
HETATM   21  C   UNL     1      21.256  47.416  47.374  1.00  0.00     0.026 A 
HETATM   22  C   UNL     1      22.254  46.684  48.027  1.00  0.00     0.031 A 
ENDBRANCH  13  16
ENDBRANCH  10  12
BRANCH   1  23
HETATM   23  C   UNL     1      25.959  45.336  50.593  1.00  0.00    -0.028 A 
HETATM   24  C   UNL     1      27.100  45.388  49.776  1.00  0.00     0.010 A 
HETATM   25  C   UNL     1      27.593  46.613  49.316  1.00  0.00     0.007 A 
HETATM   26  C   UNL     1      26.956  47.812  49.662  1.00  0.00    -0.059 A 
HETATM   27  C   UNL     1      25.808  47.762  50.459  1.00  0.00     0.007 A 
HETATM   28  C   UNL     1      25.313  46.539  50.916  1.00  0.00     0.010 A 
BRANCH  26  29
HETATM   29  C   UNL     1      27.493  49.136  49.179  1.00  0.00     0.034 C 
HETATM   30  C   UNL     1      26.498  49.869  48.294  1.00  0.00     0.010 C 
ENDBRANCH  26  29
ENDBRANCH   1  23
BRANCH   5  31
HETATM   31  C   UNL     1      28.830  42.203  54.103  1.00  0.00     0.085 C 
BRANCH  31  32
HETATM   32  C   UNL     1      29.952  43.234  54.173  1.00  0.00     0.034 C 
BRANCH  32  33
HETATM   33  C   UNL     1      29.707  44.305  55.228  1.00  0.00     0.164 C 
BRANCH  33  34
HETATM   34  O   UNL     1      28.852  45.312  54.697  1.00  0.00    -0.401 OA
HETATM   35  H   UNL     1      28.335  45.678  55.434  1.00  0.00     0.209 HD
ENDBRANCH  33  34
ENDBRANCH  32  33
ENDBRANCH  31  32
ENDBRANCH   5  31
TORSDOF 8
ENDMDL
MODEL 6
REMARK VINA RESULT:      -7.9      4.333      7.473
REMARK  8 active torsions:
REMARK  status: ('A' for Active; 'I' for Inactive)
REMARK    1  A    between atoms: C_2  and  C_3 
REMARK    2  A    between atoms: C_6  and  C_7 
REMARK    3  A    between atoms: C_11  and  C_12 
REMARK    4  A    between atoms: C_12  and  C_13 
REMARK    5  A    between atoms: C_13  and  C_14 
REMARK    6  A    between atoms: C_14  and  O_15 
REMARK    7  A    between atoms: C_20  and  C_21 
REMARK       I    between atoms: C_21  and  N_22 
REMARK    8  A    between atoms: N_22  and  C_23 
ROOT
HETATM    1  C   UNL     1      23.127  48.267  49.281  1.00  0.00     0.202 C 
HETATM    2  N   UNL     1      22.428  49.470  48.814  1.00  0.00    -0.083 N 
HETATM    3  C   UNL     1      23.049  50.516  48.188  1.00  0.00     0.726 A 
HETATM    4  N   UNL     1      22.181  51.470  47.968  1.00  0.00    -0.046 NA
HETATM    5  C   UNL     1      21.026  50.971  48.523  1.00  0.00     0.166 A 
HETATM    6  N   UNL     1      21.133  49.750  49.070  1.00  0.00    -0.140 NA
HETATM    7  N   UNL     1      24.377  50.464  47.962  1.00  0.00    -0.192 N 
HETATM    8  C   UNL     1      25.197  49.493  48.531  1.00  0.00     0.037 C 
HETATM    9  C   UNL     1      26.676  49.793  48.482  1.00  0.00     0.070 C 
HETATM   10  C   UNL     1      24.641  48.422  49.150  1.00  0.00     0.062 C 
HETATM   11  H   UNL     1      24.822  51.307  47.611  1.00  0.00     0.184 HD
ENDROOT
BRANCH  10  12
HETATM   12  C   UNL     1      25.409  47.376  49.882  1.00  0.00     0.256 C 
HETATM   13  N   UNL     1      25.052  47.242  51.206  1.00  0.00    -0.323 N 
HETATM   14  H   UNL     1      24.333  47.862  51.554  1.00  0.00     0.169 HD
HETATM   15  O   UNL     1      26.278  46.758  49.281  1.00  0.00    -0.267 OA
BRANCH  13  16
HETATM   16  C   UNL     1      25.538  46.285  52.122  1.00  0.00     0.035 A 
HETATM   17  C   UNL     1      26.431  46.577  53.156  1.00  0.00     0.031 A 
HETATM   18  C   UNL     1      26.887  45.566  54.009  1.00  0.00     0.026 A 
HETATM   19  C   UNL     1      26.458  44.255  53.826  1.00  0.00     0.034 A 
HETATM   20 CL   UNL     1      27.034  43.010  54.863  1.00  0.00    -0.084 Cl
HETATM   21  C   UNL     1      25.565  43.948  52.803  1.00  0.00     0.026 A 
HETATM   22  C   UNL     1      25.099  44.962  51.960  1.00  0.00     0.031 A 
ENDBRANCH  13  16
ENDBRANCH  10  12
BRANCH   1  23
HETATM   23  C   UNL     1      22.604  47.031  48.555  1.00  0.00    -0.028 A 
HETATM   24  C   UNL     1      22.728  45.740  49.095  1.00  0.00     0.010 A 
HETATM   25  C   UNL     1      22.243  44.626  48.402  1.00  0.00     0.007 A 
HETATM   26  C   UNL     1      21.625  44.778  47.154  1.00  0.00    -0.059 A 
HETATM   27  C   UNL     1      21.481  46.064  46.623  1.00  0.00     0.007 A 
HETATM   28  C   UNL     1      21.962  47.177  47.316  1.00  0.00     0.010 A 
BRANCH  26  29
HETATM   29  C   UNL     1      21.113  43.579  46.397  1.00  0.00     0.034 C 
HETATM   30  C   UNL     1      19.656  43.736  45.991  1.00  0.00     0.010 C 
ENDBRANCH  26  29
ENDBRANCH   1  23
BRANCH   5  31
HETATM   31  C   UNL     1      19.764  51.754  48.568  1.00  0.00     0.085 C 
BRANCH  31  32
HETATM   32  C   UNL     1      19.079  51.742  49.932  1.00  0.00     0.034 C 
BRANCH  32  33
HETATM   33  C   UNL     1      18.063  50.617  50.074  1.00  0.00     0.164 C 
BRANCH  33  34
HETATM   34  O   UNL     1      18.545  49.652  51.003  1.00  0.00    -0.401 OA
HETATM   35  H   UNL     1      17.932  48.897  50.988  1.00  0.00     0.209 HD
ENDBRANCH  33  34
ENDBRANCH  32  33
ENDBRANCH  31  32
ENDBRANCH   5  31
TORSDOF 8
ENDMDL
MODEL 7
REMARK VINA RESULT:      -7.5      8.616     13.803
REMARK  8 active torsions:
REMARK  status: ('A' for Active; 'I' for Inactive)
REMARK    1  A    between atoms: C_2  and  C_3 
REMARK    2  A    between atoms: C_6  and  C_7 
REMARK    3  A    between atoms: C_11  and  C_12 
REMARK    4  A    between atoms: C_12  and  C_13 
REMARK    5  A    between atoms: C_13  and  C_14 
REMARK    6  A    between atoms: C_14  and  O_15 
REMARK    7  A    between atoms: C_20  and  C_21 
REMARK       I    between atoms: C_21  and  N_22 
REMARK    8  A    between atoms: N_22  and  C_23 
ROOT
HETATM    1  C   UNL     1      18.585  50.736  47.596  1.00  0.00     0.202 C 
HETATM    2  N   UNL     1      19.928  50.152  47.697  1.00  0.00    -0.083 N 
HETATM    3  C   UNL     1      20.173  48.873  48.118  1.00  0.00     0.726 A 
HETATM    4  N   UNL     1      21.465  48.673  48.179  1.00  0.00    -0.046 NA
HETATM    5  C   UNL     1      21.983  49.895  47.817  1.00  0.00     0.166 A 
HETATM    6  N   UNL     1      21.076  50.841  47.527  1.00  0.00    -0.140 NA
HETATM    7  N   UNL     1      19.141  48.075  48.456  1.00  0.00    -0.192 N 
HETATM    8  C   UNL     1      17.842  48.552  48.612  1.00  0.00     0.037 C 
HETATM    9  C   UNL     1      16.901  47.624  49.341  1.00  0.00     0.070 C 
HETATM   10  C   UNL     1      17.532  49.806  48.196  1.00  0.00     0.062 C 
HETATM   11  H   UNL     1      19.366  47.180  48.882  1.00  0.00     0.184 HD
ENDROOT
BRANCH  10  12
HETATM   12  C   UNL     1      16.211  50.462  48.402  1.00  0.00     0.256 C 
HETATM   13  N   UNL     1      16.283  51.680  49.042  1.00  0.00    -0.323 N 
HETATM   14  H   UNL     1      17.201  51.999  49.321  1.00  0.00     0.169 HD
HETATM   15  O   UNL     1      15.202  49.881  48.023  1.00  0.00    -0.267 OA
BRANCH  13  16
HETATM   16  C   UNL     1      15.217  52.568  49.296  1.00  0.00     0.035 A 
HETATM   17  C   UNL     1      14.553  52.660  50.522  1.00  0.00     0.031 A 
HETATM   18  C   UNL     1      13.486  53.549  50.689  1.00  0.00     0.026 A 
HETATM   19  C   UNL     1      13.072  54.347  49.626  1.00  0.00     0.034 A 
HETATM   20 CL   UNL     1      11.749  55.425  49.826  1.00  0.00    -0.084 Cl
HETATM   21  C   UNL     1      13.726  54.270  48.400  1.00  0.00     0.026 A 
HETATM   22  C   UNL     1      14.801  53.390  48.239  1.00  0.00     0.031 A 
ENDBRANCH  13  16
ENDBRANCH  10  12
BRANCH   1  23
HETATM   23  C   UNL     1      18.273  51.109  46.149  1.00  0.00    -0.028 A 
HETATM   24  C   UNL     1      17.604  52.297  45.814  1.00  0.00     0.010 A 
HETATM   25  C   UNL     1      17.327  52.608  44.479  1.00  0.00     0.007 A 
HETATM   26  C   UNL     1      17.715  51.740  43.451  1.00  0.00    -0.059 A 
HETATM   27  C   UNL     1      18.401  50.566  43.780  1.00  0.00     0.007 A 
HETATM   28  C   UNL     1      18.679  50.256  45.112  1.00  0.00     0.010 A 
BRANCH  26  29
HETATM   29  C   UNL     1      17.407  52.064  42.011  1.00  0.00     0.034 C 
HETATM   30  C   UNL     1      17.584  53.544  41.706  1.00  0.00     0.010 C 
ENDBRANCH  26  29
ENDBRANCH   1  23
BRANCH   5  31
HETATM   31  C   UNL     1      23.444  50.166  47.808  1.00  0.00     0.085 C 
BRANCH  31  32
HETATM   32  C   UNL     1      24.250  49.236  48.711  1.00  0.00     0.034 C 
BRANCH  32  33
HETATM   33  C   UNL     1      25.751  49.473  48.614  1.00  0.00     0.164 C 
BRANCH  33  34
HETATM   34  O   UNL     1      26.056  50.111  47.378  1.00  0.00    -0.401 OA
HETATM   35  H   UNL     1      26.179  49.415  46.710  1.00  0.00     0.209 HD
ENDBRANCH  33  34
ENDBRANCH  32  33
ENDBRANCH  31  32
ENDBRANCH   5  31
TORSDOF 8
ENDMDL
MODEL 8
REMARK VINA RESULT:      -7.5      4.198      8.639
REMARK  8 active torsions:
REMARK  status: ('A' for Active; 'I' for Inactive)
REMARK    1  A    between atoms: C_2  and  C_3 
REMARK    2  A    between atoms: C_6  and  C_7 
REMARK    3  A    between atoms: C_11  and  C_12 
REMARK    4  A    between atoms: C_12  and  C_13 
REMARK    5  A    between atoms: C_13  and  C_14 
REMARK    6  A    between atoms: C_14  and  O_15 
REMARK    7  A    between atoms: C_20  and  C_21 
REMARK       I    between atoms: C_21  and  N_22 
REMARK    8  A    between atoms: N_22  and  C_23 
ROOT
HETATM    1  C   UNL     1      27.273  42.311  49.854  1.00  0.00     0.202 C 
HETATM    2  N   UNL     1      27.403  41.012  49.182  1.00  0.00    -0.083 N 
HETATM    3  C   UNL     1      27.682  39.843  49.835  1.00  0.00     0.726 A 
HETATM    4  N   UNL     1      27.815  38.877  48.962  1.00  0.00    -0.046 NA
HETATM    5  C   UNL     1      27.646  39.523  47.759  1.00  0.00     0.166 A 
HETATM    6  N   UNL     1      27.405  40.841  47.844  1.00  0.00    -0.140 NA
HETATM    7  N   UNL     1      27.841  39.849  51.173  1.00  0.00    -0.192 N 
HETATM    8  C   UNL     1      27.955  41.024  51.911  1.00  0.00     0.037 C 
HETATM    9  C   UNL     1      28.492  40.854  53.311  1.00  0.00     0.070 C 
HETATM   10  C   UNL     1      27.674  42.215  51.325  1.00  0.00     0.062 C 
HETATM   11  H   UNL     1      28.170  38.990  51.606  1.00  0.00     0.184 HD
ENDROOT
BRANCH  10  12
HETATM   12  C   UNL     1      27.857  43.542  51.977  1.00  0.00     0.256 C 
HETATM   13  N   UNL     1      26.719  44.037  52.574  1.00  0.00    -0.323 N 
HETATM   14  H   UNL     1      25.880  43.476  52.501  1.00  0.00     0.169 HD
HETATM   15  O   UNL     1      28.956  44.079  51.912  1.00  0.00    -0.267 OA
BRANCH  13  16
HETATM   16  C   UNL     1      26.606  45.218  53.336  1.00  0.00     0.035 A 
HETATM   17  C   UNL     1      25.800  46.303  52.980  1.00  0.00     0.031 A 
HETATM   18  C   UNL     1      25.762  47.453  53.776  1.00  0.00     0.026 A 
HETATM   19  C   UNL     1      26.537  47.526  54.930  1.00  0.00     0.034 A 
HETATM   20 CL   UNL     1      26.503  48.946  55.898  1.00  0.00    -0.084 Cl
HETATM   21  C   UNL     1      27.341  46.452  55.301  1.00  0.00     0.026 A 
HETATM   22  C   UNL     1      27.368  45.298  54.510  1.00  0.00     0.031 A 
ENDBRANCH  13  16
ENDBRANCH  10  12
BRANCH   1  23
HETATM   23  C   UNL     1      25.863  42.868  49.671  1.00  0.00    -0.028 A 
HETATM   24  C   UNL     1      24.719  42.125  50.005  1.00  0.00     0.010 A 
HETATM   25  C   UNL     1      23.441  42.661  49.819  1.00  0.00     0.007 A 
HETATM   26  C   UNL     1      23.278  43.950  49.297  1.00  0.00    -0.059 A 
HETATM   27  C   UNL     1      24.416  44.700  48.983  1.00  0.00     0.007 A 
HETATM   28  C   UNL     1      25.693  44.167  49.170  1.00  0.00     0.010 A 
BRANCH  26  29
HETATM   29  C   UNL     1      21.901  44.526  49.082  1.00  0.00     0.034 C 
HETATM   30  C   UNL     1      21.951  45.907  48.448  1.00  0.00     0.010 C 
ENDBRANCH  26  29
ENDBRANCH   1  23
BRANCH   5  31
HETATM   31  C   UNL     1      27.780  38.822  46.456  1.00  0.00     0.085 C 
BRANCH  31  32
HETATM   32  C   UNL     1      28.568  37.518  46.535  1.00  0.00     0.034 C 
BRANCH  32  33
HETATM   33  C   UNL     1      27.676  36.285  46.502  1.00  0.00     0.164 C 
BRANCH  33  34
HETATM   34  O   UNL     1      27.251  35.966  47.823  1.00  0.00    -0.401 OA
HETATM   35  H   UNL     1      27.051  36.802  48.277  1.00  0.00     0.209 HD
ENDBRANCH  33  34
ENDBRANCH  32  33
ENDBRANCH  31  32
ENDBRANCH   5  31
TORSDOF 8
ENDMDL
MODEL 9
REMARK VINA RESULT:      -7.4      4.988      8.643
REMARK  8 active torsions:
REMARK  status: ('A' for Active; 'I' for Inactive)
REMARK    1  A    between atoms: C_2  and  C_3 
REMARK    2  A    between atoms: C_6  and  C_7 
REMARK    3  A    between atoms: C_11  and  C_12 
REMARK    4  A    between atoms: C_12  and  C_13 
REMARK    5  A    between atoms: C_13  and  C_14 
REMARK    6  A    between atoms: C_14  and  O_15 
REMARK    7  A    between atoms: C_20  and  C_21 
REMARK       I    between atoms: C_21  and  N_22 
REMARK    8  A    between atoms: N_22  and  C_23 
ROOT
HETATM    1  C   UNL     1      21.012  48.536  49.107  1.00  0.00     0.202 C 
HETATM    2  N   UNL     1      20.377  49.857  49.016  1.00  0.00    -0.083 N 
HETATM    3  C   UNL     1      20.992  50.963  48.498  1.00  0.00     0.726 A 
HETATM    4  N   UNL     1      20.207  52.001  48.628  1.00  0.00    -0.046 NA
HETATM    5  C   UNL     1      19.113  51.480  49.281  1.00  0.00     0.166 A 
HETATM    6  N   UNL     1      19.179  50.168  49.555  1.00  0.00    -0.140 NA
HETATM    7  N   UNL     1      22.251  50.864  48.025  1.00  0.00    -0.192 N 
HETATM    8  C   UNL     1      23.047  49.742  48.236  1.00  0.00     0.037 C 
HETATM    9  C   UNL     1      24.520  49.940  47.973  1.00  0.00     0.070 C 
HETATM   10  C   UNL     1      22.490  48.607  48.730  1.00  0.00     0.062 C 
HETATM   11  H   UNL     1      22.719  51.729  47.766  1.00  0.00     0.184 HD
ENDROOT
BRANCH  10  12
HETATM   12  C   UNL     1      23.253  47.380  49.094  1.00  0.00     0.256 C 
HETATM   13  N   UNL     1      23.900  47.461  50.308  1.00  0.00    -0.323 N 
HETATM   14  H   UNL     1      23.814  48.330  50.818  1.00  0.00     0.169 HD
HETATM   15  O   UNL     1      23.265  46.442  48.307  1.00  0.00    -0.267 OA
BRANCH  13  16
HETATM   16  C   UNL     1      24.623  46.436  50.953  1.00  0.00     0.035 A 
HETATM   17  C   UNL     1      24.284  45.082  50.888  1.00  0.00     0.031 A 
HETATM   18  C   UNL     1      25.037  44.126  51.577  1.00  0.00     0.026 A 
HETATM   19  C   UNL     1      26.131  44.521  52.343  1.00  0.00     0.034 A 
HETATM   20 CL   UNL     1      27.044  43.347  53.205  1.00  0.00    -0.084 Cl
HETATM   21  C   UNL     1      26.484  45.865  52.414  1.00  0.00     0.026 A 
HETATM   22  C   UNL     1      25.738  46.818  51.713  1.00  0.00     0.031 A 
ENDBRANCH  13  16
ENDBRANCH  10  12
BRANCH   1  23
HETATM   23  C   UNL     1      20.246  47.517  48.266  1.00  0.00    -0.028 A 
HETATM   24  C   UNL     1      19.670  46.367  48.831  1.00  0.00     0.010 A 
HETATM   25  C   UNL     1      18.981  45.449  48.032  1.00  0.00     0.007 A 
HETATM   26  C   UNL     1      18.851  45.661  46.654  1.00  0.00    -0.059 A 
HETATM   27  C   UNL     1      19.404  46.816  46.092  1.00  0.00     0.007 A 
HETATM   28  C   UNL     1      20.092  47.734  46.889  1.00  0.00     0.010 A 
BRANCH  26  29
HETATM   29  C   UNL     1      18.119  44.667  45.787  1.00  0.00     0.034 C 
HETATM   30  C   UNL     1      19.040  43.576  45.264  1.00  0.00     0.010 C 
ENDBRANCH  26  29
ENDBRANCH   1  23
BRANCH   5  31
HETATM   31  C   UNL     1      17.967  52.324  49.707  1.00  0.00     0.085 C 
BRANCH  31  32
HETATM   32  C   UNL     1      16.604  51.693  49.440  1.00  0.00     0.034 C 
BRANCH  32  33
HETATM   33  C   UNL     1      15.505  52.727  49.228  1.00  0.00     0.164 C 
BRANCH  33  34
HETATM   34  O   UNL     1      16.025  54.032  49.462  1.00  0.00    -0.401 OA
HETATM   35  H   UNL     1      15.464  54.457  50.132  1.00  0.00     0.209 HD
ENDBRANCH  33  34
ENDBRANCH  32  33
ENDBRANCH  31  32
ENDBRANCH   5  31
TORSDOF 8
ENDMDL
MODEL 10
REMARK VINA RESULT:      -7.4     18.656     20.652
REMARK  8 active torsions:
REMARK  status: ('A' for Active; 'I' for Inactive)
REMARK    1  A    between atoms: C_2  and  C_3 
REMARK    2  A    between atoms: C_6  and  C_7 
REMARK    3  A    between atoms: C_11  and  C_12 
REMARK    4  A    between atoms: C_12  and  C_13 
REMARK    5  A    between atoms: C_13  and  C_14 
REMARK    6  A    between atoms: C_14  and  O_15 
REMARK    7  A    between atoms: C_20  and  C_21 
REMARK       I    between atoms: C_21  and  N_22 
REMARK    8  A    between atoms: N_22  and  C_23 
ROOT
HETATM    1  C   UNL     1      38.619  48.780  65.428  1.00  0.00     0.202 C 
HETATM    2  N   UNL     1      38.394  50.013  66.193  1.00  0.00    -0.083 N 
HETATM    3  C   UNL     1      37.441  50.141  67.166  1.00  0.00     0.726 A 
HETATM    4  N   UNL     1      37.429  51.374  67.606  1.00  0.00    -0.046 NA
HETATM    5  C   UNL     1      38.385  51.987  66.829  1.00  0.00     0.166 A 
HETATM    6  N   UNL     1      38.995  51.193  65.936  1.00  0.00    -0.140 NA
HETATM    7  N   UNL     1      36.654  49.090  67.470  1.00  0.00    -0.192 N 
HETATM    8  C   UNL     1      36.608  47.937  66.692  1.00  0.00     0.037 C 
HETATM    9  C   UNL     1      35.428  47.032  66.952  1.00  0.00     0.070 C 
HETATM   10  C   UNL     1      37.538  47.742  65.723  1.00  0.00     0.062 C 
HETATM   11  H   UNL     1      35.877  49.259  68.104  1.00  0.00     0.184 HD
ENDROOT
BRANCH  10  12
HETATM   12  C   UNL     1      37.533  46.603  64.762  1.00  0.00     0.256 C 
HETATM   13  N   UNL     1      38.338  45.550  65.137  1.00  0.00    -0.323 N 
HETATM   14  H   UNL     1      38.857  45.651  65.998  1.00  0.00     0.169 HD
HETATM   15  O   UNL     1      36.860  46.699  63.744  1.00  0.00    -0.267 OA
BRANCH  13  16
HETATM   16  C   UNL     1      38.469  44.309  64.479  1.00  0.00     0.035 A 
HETATM   17  C   UNL     1      37.557  43.258  64.607  1.00  0.00     0.031 A 
HETATM   18  C   UNL     1      37.770  42.045  63.941  1.00  0.00     0.026 A 
HETATM   19  C   UNL     1      38.903  41.876  63.150  1.00  0.00     0.034 A 
HETATM   20 CL   UNL     1      39.174  40.380  62.347  1.00  0.00    -0.084 Cl
HETATM   21  C   UNL     1      39.818  42.915  63.009  1.00  0.00     0.026 A 
HETATM   22  C   UNL     1      39.596  44.131  63.665  1.00  0.00     0.031 A 
ENDBRANCH  13  16
ENDBRANCH  10  12
BRANCH   1  23
HETATM   23  C   UNL     1      40.025  48.244  65.682  1.00  0.00    -0.028 A 
HETATM   24  C   UNL     1      40.628  48.301  66.949  1.00  0.00     0.010 A 
HETATM   25  C   UNL     1      41.921  47.807  67.147  1.00  0.00     0.007 A 
HETATM   26  C   UNL     1      42.638  47.244  66.085  1.00  0.00    -0.059 A 
HETATM   27  C   UNL     1      42.033  47.165  64.826  1.00  0.00     0.007 A 
HETATM   28  C   UNL     1      40.742  47.657  64.627  1.00  0.00     0.010 A 
BRANCH  26  29
HETATM   29  C   UNL     1      44.038  46.721  66.292  1.00  0.00     0.034 C 
HETATM   30  C   UNL     1      44.933  46.989  65.092  1.00  0.00     0.010 C 
ENDBRANCH  26  29
ENDBRANCH   1  23
BRANCH   5  31
HETATM   31  C   UNL     1      38.679  53.440  66.933  1.00  0.00     0.085 C 
BRANCH  31  32
HETATM   32  C   UNL     1      37.590  54.333  66.345  1.00  0.00     0.034 C 
BRANCH  32  33
HETATM   33  C   UNL     1      37.125  55.413  67.313  1.00  0.00     0.164 C 
BRANCH  33  34
HETATM   34  O   UNL     1      37.961  56.559  67.186  1.00  0.00    -0.401 OA
HETATM   35  H   UNL     1      38.813  56.349  67.605  1.00  0.00     0.209 HD
ENDBRANCH  33  34
ENDBRANCH  32  33
ENDBRANCH  31  32
ENDBRANCH   5  31
TORSDOF 8
ENDMDL
