MODEL 1
REMARK VINA RESULT:      -9.3      0.000      0.000
REMARK  4 active torsions:
REMARK  status: ('A' for Active; 'I' for Inactive)
REMARK    1  A    between atoms: C_4  and  N_5 
REMARK       I    between atoms: N_5  and  C_6 
REMARK       I    between atoms: C_6  and  N_7 
REMARK    2  A    between atoms: N_7  and  C_8 
REMARK    3  A    between atoms: C_8  and  C_9 
REMARK    4  A    between atoms: C_12  and  C_13 
ROOT
HETATM    1  N   UNL     1      24.256  46.143  50.929  1.00  0.00    -0.309 N 
HETATM    2  C   UNL     1      24.760  44.923  51.246  1.00  0.00     0.321 C 
HETATM    3  N   UNL     1      25.839  44.472  50.559  1.00  0.00    -0.335 N 
HETATM    4  O   UNL     1      24.202  44.248  52.110  1.00  0.00    -0.247 OA
HETATM    5  H   UNL     1      23.362  46.285  51.383  1.00  0.00     0.170 HD
HETATM    6  H   UNL     1      25.896  44.780  49.598  1.00  0.00     0.164 HD
ENDROOT
BRANCH   3   7
HETATM    7  C   UNL     1      26.330  43.133  50.820  1.00  0.00     0.213 C 
BRANCH   7   8
HETATM    8  C   UNL     1      27.437  43.167  51.803  1.00  0.00     0.190 A 
HETATM    9  O   UNL     1      28.498  42.354  51.537  1.00  0.00    -0.194 OA
HETATM   10  N   UNL     1      29.417  42.553  52.558  1.00  0.00    -0.106 NA
HETATM   11  C   UNL     1      28.831  43.470  53.349  1.00  0.00     0.189 A 
HETATM   12  N   UNL     1      27.591  43.880  52.899  1.00  0.00    -0.202 NA
BRANCH  11  13
HETATM   13  C   UNL     1      29.441  43.994  54.567  1.00  0.00     0.014 A 
HETATM   14  C   UNL     1      30.516  43.325  55.169  1.00  0.00     0.015 A 
HETATM   15  C   UNL     1      31.102  43.823  56.337  1.00  0.00     0.001 A 
HETATM   16  C   UNL     1      30.619  44.995  56.915  1.00  0.00     0.000 A 
HETATM   17  C   UNL     1      29.551  45.671  56.329  1.00  0.00     0.001 A 
HETATM   18  C   UNL     1      28.965  45.174  55.162  1.00  0.00     0.015 A 
ENDBRANCH  11  13
ENDBRANCH   7   8
ENDBRANCH   3   7
BRANCH   1  19
HETATM   19  C   UNL     1      24.738  47.223  50.168  1.00  0.00     0.036 A 
HETATM   20  C   UNL     1      26.084  47.583  50.055  1.00  0.00     0.036 A 
HETATM   21  C   UNL     1      26.474  48.677  49.264  1.00  0.00    -0.060 A 
HETATM   22  C   UNL     1      27.920  49.069  49.169  1.00  0.00     0.048 C 
HETATM   23  C   UNL     1      25.495  49.442  48.620  1.00  0.00     0.007 A 
HETATM   24  C   UNL     1      24.150  49.112  48.752  1.00  0.00     0.003 A 
HETATM   25  C   UNL     1      23.776  48.011  49.523  1.00  0.00     0.029 A 
ENDBRANCH   1  19
TORSDOF 4
ENDMDL
MODEL 2
REMARK VINA RESULT:      -9.1      1.935      8.028
REMARK  4 active torsions:
REMARK  status: ('A' for Active; 'I' for Inactive)
REMARK    1  A    between atoms: C_4  and  N_5 
REMARK       I    between atoms: N_5  and  C_6 
REMARK       I    between atoms: C_6  and  N_7 
REMARK    2  A    between atoms: N_7  and  C_8 
REMARK    3  A    between atoms: C_8  and  C_9 
REMARK    4  A    between atoms: C_12  and  C_13 
ROOT
HETATM    1  N   UNL     1      25.951  43.565  53.316  1.00  0.00    -0.309 N 
HETATM    2  C   UNL     1      25.462  43.749  52.063  1.00  0.00     0.321 C 
HETATM    3  N   UNL     1      26.251  44.361  51.146  1.00  0.00    -0.335 N 
HETATM    4  O   UNL     1      24.310  43.398  51.810  1.00  0.00    -0.247 OA
HETATM    5  H   UNL     1      25.214  43.263  53.942  1.00  0.00     0.170 HD
HETATM    6  H   UNL     1      26.888  45.052  51.519  1.00  0.00     0.164 HD
ENDROOT
BRANCH   3   7
HETATM    7  C   UNL     1      25.710  44.652  49.833  1.00  0.00     0.213 C 
BRANCH   7   8
HETATM    8  C   UNL     1      25.286  46.069  49.746  1.00  0.00     0.190 A 
HETATM    9  O   UNL     1      26.208  46.993  50.138  1.00  0.00    -0.194 OA
HETATM   10  N   UNL     1      25.621  48.239  49.960  1.00  0.00    -0.106 NA
HETATM   11  C   UNL     1      24.399  47.957  49.476  1.00  0.00     0.189 A 
HETATM   12  N   UNL     1      24.160  46.604  49.325  1.00  0.00    -0.202 NA
BRANCH  11  13
HETATM   13  C   UNL     1      23.410  48.975  49.134  1.00  0.00     0.014 A 
HETATM   14  C   UNL     1      23.817  50.269  48.778  1.00  0.00     0.015 A 
HETATM   15  C   UNL     1      22.873  51.247  48.451  1.00  0.00     0.001 A 
HETATM   16  C   UNL     1      21.514  50.942  48.474  1.00  0.00     0.000 A 
HETATM   17  C   UNL     1      21.094  49.661  48.826  1.00  0.00     0.001 A 
HETATM   18  C   UNL     1      22.037  48.683  49.153  1.00  0.00     0.015 A 
ENDBRANCH  11  13
ENDBRANCH   7   8
ENDBRANCH   3   7
BRANCH   1  19
HETATM   19  C   UNL     1      27.237  43.655  53.877  1.00  0.00     0.036 A 
HETATM   20  C   UNL     1      27.725  44.758  54.584  1.00  0.00     0.036 A 
HETATM   21  C   UNL     1      29.026  44.755  55.117  1.00  0.00    -0.060 A 
HETATM   22  C   UNL     1      29.547  45.955  55.852  1.00  0.00     0.048 C 
HETATM   23  C   UNL     1      29.856  43.652  54.895  1.00  0.00     0.007 A 
HETATM   24  C   UNL     1      29.392  42.562  54.166  1.00  0.00     0.003 A 
HETATM   25  C   UNL     1      28.092  42.566  53.659  1.00  0.00     0.029 A 
ENDBRANCH   1  19
TORSDOF 4
ENDMDL
MODEL 3
REMARK VINA RESULT:      -9.0      3.449      8.694
REMARK  4 active torsions:
REMARK  status: ('A' for Active; 'I' for Inactive)
REMARK    1  A    between atoms: C_4  and  N_5 
REMARK       I    between atoms: N_5  and  C_6 
REMARK       I    between atoms: C_6  and  N_7 
REMARK    2  A    between atoms: N_7  and  C_8 
REMARK    3  A    between atoms: C_8  and  C_9 
REMARK    4  A    between atoms: C_12  and  C_13 
ROOT
HETATM    1  N   UNL     1      26.059  46.078  51.486  1.00  0.00    -0.309 N 
HETATM    2  C   UNL     1      26.252  46.678  50.283  1.00  0.00     0.321 C 
HETATM    3  N   UNL     1      26.742  47.942  50.264  1.00  0.00    -0.335 N 
HETATM    4  O   UNL     1      25.939  46.078  49.256  1.00  0.00    -0.247 OA
HETATM    5  H   UNL     1      25.534  45.219  51.372  1.00  0.00     0.170 HD
HETATM    6  H   UNL     1      26.475  48.519  51.050  1.00  0.00     0.164 HD
ENDROOT
BRANCH   3   7
HETATM    7  C   UNL     1      26.864  48.630  48.994  1.00  0.00     0.213 C 
BRANCH   7   8
HETATM    8  C   UNL     1      25.604  49.335  48.661  1.00  0.00     0.190 A 
HETATM    9  O   UNL     1      25.593  50.014  47.480  1.00  0.00    -0.194 OA
HETATM   10  N   UNL     1      24.329  50.576  47.357  1.00  0.00    -0.106 NA
HETATM   11  C   UNL     1      23.689  50.186  48.473  1.00  0.00     0.189 A 
HETATM   12  N   UNL     1      24.460  49.400  49.310  1.00  0.00    -0.202 NA
BRANCH  11  13
HETATM   13  C   UNL     1      22.308  50.546  48.782  1.00  0.00     0.014 A 
HETATM   14  C   UNL     1      21.910  50.762  50.110  1.00  0.00     0.015 A 
HETATM   15  C   UNL     1      20.589  51.105  50.410  1.00  0.00     0.001 A 
HETATM   16  C   UNL     1      19.652  51.237  49.386  1.00  0.00     0.000 A 
HETATM   17  C   UNL     1      20.032  51.025  48.063  1.00  0.00     0.001 A 
HETATM   18  C   UNL     1      21.353  50.682  47.763  1.00  0.00     0.015 A 
ENDBRANCH  11  13
ENDBRANCH   7   8
ENDBRANCH   3   7
BRANCH   1  19
HETATM   19  C   UNL     1      26.476  46.377  52.796  1.00  0.00     0.036 A 
HETATM   20  C   UNL     1      27.465  45.681  53.497  1.00  0.00     0.036 A 
HETATM   21  C   UNL     1      27.820  46.057  54.804  1.00  0.00    -0.060 A 
HETATM   22  C   UNL     1      28.866  45.287  55.557  1.00  0.00     0.048 C 
HETATM   23  C   UNL     1      27.141  47.111  55.425  1.00  0.00     0.007 A 
HETATM   24  C   UNL     1      26.133  47.789  54.747  1.00  0.00     0.003 A 
HETATM   25  C   UNL     1      25.802  47.421  53.442  1.00  0.00     0.029 A 
ENDBRANCH   1  19
TORSDOF 4
ENDMDL
MODEL 4
REMARK VINA RESULT:      -9.0      1.481      7.961
REMARK  4 active torsions:
REMARK  status: ('A' for Active; 'I' for Inactive)
REMARK    1  A    between atoms: C_4  and  N_5 
REMARK       I    between atoms: N_5  and  C_6 
REMARK       I    between atoms: C_6  and  N_7 
REMARK    2  A    between atoms: N_7  and  C_8 
REMARK    3  A    between atoms: C_8  and  C_9 
REMARK    4  A    between atoms: C_12  and  C_13 
ROOT
HETATM    1  N   UNL     1      27.995  42.858  53.545  1.00  0.00    -0.309 N 
HETATM    2  C   UNL     1      27.597  43.041  52.260  1.00  0.00     0.321 C 
HETATM    3  N   UNL     1      27.766  44.265  51.701  1.00  0.00    -0.335 N 
HETATM    4  O   UNL     1      27.058  42.112  51.660  1.00  0.00    -0.247 OA
HETATM    5  H   UNL     1      27.659  41.969  53.896  1.00  0.00     0.170 HD
HETATM    6  H   UNL     1      27.695  45.044  52.342  1.00  0.00     0.164 HD
ENDROOT
BRANCH   3   7
HETATM    7  C   UNL     1      27.259  44.504  50.364  1.00  0.00     0.213 C 
BRANCH   7   8
HETATM    8  C   UNL     1      26.411  45.718  50.339  1.00  0.00     0.190 A 
HETATM    9  O   UNL     1      26.218  46.338  51.536  1.00  0.00    -0.194 OA
HETATM   10  N   UNL     1      25.422  47.447  51.286  1.00  0.00    -0.106 NA
HETATM   11  C   UNL     1      25.205  47.399  49.960  1.00  0.00     0.189 A 
HETATM   12  N   UNL     1      25.817  46.329  49.335  1.00  0.00    -0.202 NA
BRANCH  11  13
HETATM   13  C   UNL     1      24.405  48.382  49.235  1.00  0.00     0.014 A 
HETATM   14  C   UNL     1      25.016  49.497  48.641  1.00  0.00     0.015 A 
HETATM   15  C   UNL     1      24.254  50.442  47.947  1.00  0.00     0.001 A 
HETATM   16  C   UNL     1      22.874  50.282  47.839  1.00  0.00     0.000 A 
HETATM   17  C   UNL     1      22.253  49.180  48.423  1.00  0.00     0.001 A 
HETATM   18  C   UNL     1      23.014  48.236  49.117  1.00  0.00     0.015 A 
ENDBRANCH  11  13
ENDBRANCH   7   8
ENDBRANCH   3   7
BRANCH   1  19
HETATM   19  C   UNL     1      28.795  43.605  54.428  1.00  0.00     0.036 A 
HETATM   20  C   UNL     1      29.923  43.115  55.092  1.00  0.00     0.036 A 
HETATM   21  C   UNL     1      30.667  43.940  55.953  1.00  0.00    -0.060 A 
HETATM   22  C   UNL     1      31.863  43.396  56.680  1.00  0.00     0.048 C 
HETATM   23  C   UNL     1      30.243  45.253  56.183  1.00  0.00     0.007 A 
HETATM   24  C   UNL     1      29.103  45.740  55.552  1.00  0.00     0.003 A 
HETATM   25  C   UNL     1      28.384  44.920  54.682  1.00  0.00     0.029 A 
ENDBRANCH   1  19
TORSDOF 4
ENDMDL
MODEL 5
REMARK VINA RESULT:      -8.8      2.061      7.785
REMARK  4 active torsions:
REMARK  status: ('A' for Active; 'I' for Inactive)
REMARK    1  A    between atoms: C_4  and  N_5 
REMARK       I    between atoms: N_5  and  C_6 
REMARK       I    between atoms: C_6  and  N_7 
REMARK    2  A    between atoms: N_7  and  C_8 
REMARK    3  A    between atoms: C_8  and  C_9 
REMARK    4  A    between atoms: C_12  and  C_13 
ROOT
HETATM    1  N   UNL     1      27.831  46.976  55.881  1.00  0.00    -0.309 N 
HETATM    2  C   UNL     1      26.655  46.796  55.228  1.00  0.00     0.321 C 
HETATM    3  N   UNL     1      26.439  45.612  54.603  1.00  0.00    -0.335 N 
HETATM    4  O   UNL     1      25.843  47.720  55.184  1.00  0.00    -0.247 OA
HETATM    5  H   UNL     1      27.941  47.947  56.150  1.00  0.00     0.170 HD
HETATM    6  H   UNL     1      27.267  45.163  54.234  1.00  0.00     0.164 HD
ENDROOT
BRANCH   3   7
HETATM    7  C   UNL     1      25.231  45.438  53.821  1.00  0.00     0.213 C 
BRANCH   7   8
HETATM    8  C   UNL     1      25.419  45.962  52.449  1.00  0.00     0.190 A 
HETATM    9  O   UNL     1      25.502  45.030  51.459  1.00  0.00    -0.194 OA
HETATM   10  N   UNL     1      25.654  45.727  50.268  1.00  0.00    -0.106 NA
HETATM   11  C   UNL     1      25.650  47.018  50.644  1.00  0.00     0.189 A 
HETATM   12  N   UNL     1      25.498  47.200  52.005  1.00  0.00    -0.202 NA
BRANCH  11  13
HETATM   13  C   UNL     1      25.786  48.133  49.711  1.00  0.00     0.014 A 
HETATM   14  C   UNL     1      27.045  48.695  49.454  1.00  0.00     0.015 A 
HETATM   15  C   UNL     1      27.180  49.763  48.562  1.00  0.00     0.001 A 
HETATM   16  C   UNL     1      26.058  50.280  47.918  1.00  0.00     0.000 A 
HETATM   17  C   UNL     1      24.801  49.733  48.162  1.00  0.00     0.001 A 
HETATM   18  C   UNL     1      24.665  48.665  49.054  1.00  0.00     0.015 A 
ENDBRANCH  11  13
ENDBRANCH   7   8
ENDBRANCH   3   7
BRANCH   1  19
HETATM   19  C   UNL     1      28.858  46.106  56.287  1.00  0.00     0.036 A 
HETATM   20  C   UNL     1      29.447  45.132  55.476  1.00  0.00     0.036 A 
HETATM   21  C   UNL     1      30.476  44.310  55.968  1.00  0.00    -0.060 A 
HETATM   22  C   UNL     1      31.084  43.250  55.096  1.00  0.00     0.048 C 
HETATM   23  C   UNL     1      30.880  44.439  57.301  1.00  0.00     0.007 A 
HETATM   24  C   UNL     1      30.278  45.384  58.126  1.00  0.00     0.003 A 
HETATM   25  C   UNL     1      29.273  46.209  57.621  1.00  0.00     0.029 A 
ENDBRANCH   1  19
TORSDOF 4
ENDMDL
MODEL 6
REMARK VINA RESULT:      -8.7      1.299      7.867
REMARK  4 active torsions:
REMARK  status: ('A' for Active; 'I' for Inactive)
REMARK    1  A    between atoms: C_4  and  N_5 
REMARK       I    between atoms: N_5  and  C_6 
REMARK       I    between atoms: C_6  and  N_7 
REMARK    2  A    between atoms: N_7  and  C_8 
REMARK    3  A    between atoms: C_8  and  C_9 
REMARK    4  A    between atoms: C_12  and  C_13 
ROOT
HETATM    1  N   UNL     1      28.529  42.584  53.388  1.00  0.00    -0.309 N 
HETATM    2  C   UNL     1      28.042  42.776  52.136  1.00  0.00     0.321 C 
HETATM    3  N   UNL     1      27.785  44.045  51.732  1.00  0.00    -0.335 N 
HETATM    4  O   UNL     1      27.808  41.799  51.425  1.00  0.00    -0.247 OA
HETATM    5  H   UNL     1      28.512  41.599  53.627  1.00  0.00     0.170 HD
HETATM    6  H   UNL     1      27.492  44.678  52.464  1.00  0.00     0.164 HD
ENDROOT
BRANCH   3   7
HETATM    7  C   UNL     1      27.176  44.260  50.434  1.00  0.00     0.213 C 
BRANCH   7   8
HETATM    8  C   UNL     1      26.415  45.531  50.421  1.00  0.00     0.190 A 
HETATM    9  O   UNL     1      26.076  46.037  51.640  1.00  0.00    -0.194 OA
HETATM   10  N   UNL     1      25.396  47.225  51.401  1.00  0.00    -0.106 NA
HETATM   11  C   UNL     1      25.387  47.330  50.061  1.00  0.00     0.189 A 
HETATM   12  N   UNL     1      26.024  46.287  49.417  1.00  0.00    -0.202 NA
BRANCH  11  13
HETATM   13  C   UNL     1      24.770  48.441  49.342  1.00  0.00     0.014 A 
HETATM   14  C   UNL     1      23.385  48.653  49.413  1.00  0.00     0.015 A 
HETATM   15  C   UNL     1      22.791  49.715  48.725  1.00  0.00     0.001 A 
HETATM   16  C   UNL     1      23.574  50.576  47.959  1.00  0.00     0.000 A 
HETATM   17  C   UNL     1      24.950  50.379  47.878  1.00  0.00     0.001 A 
HETATM   18  C   UNL     1      25.545  49.318  48.566  1.00  0.00     0.015 A 
ENDBRANCH  11  13
ENDBRANCH   7   8
ENDBRANCH   3   7
BRANCH   1  19
HETATM   19  C   UNL     1      29.080  43.441  54.357  1.00  0.00     0.036 A 
HETATM   20  C   UNL     1      28.444  44.573  54.876  1.00  0.00     0.036 A 
HETATM   21  C   UNL     1      29.071  45.369  55.850  1.00  0.00    -0.060 A 
HETATM   22  C   UNL     1      28.389  46.595  56.383  1.00  0.00     0.048 C 
HETATM   23  C   UNL     1      30.367  45.049  56.268  1.00  0.00     0.007 A 
HETATM   24  C   UNL     1      31.022  43.943  55.734  1.00  0.00     0.003 A 
HETATM   25  C   UNL     1      30.382  43.147  54.783  1.00  0.00     0.029 A 
ENDBRANCH   1  19
TORSDOF 4
ENDMDL
MODEL 7
REMARK VINA RESULT:      -8.4      3.147      4.854
REMARK  4 active torsions:
REMARK  status: ('A' for Active; 'I' for Inactive)
REMARK    1  A    between atoms: C_4  and  N_5 
REMARK       I    between atoms: N_5  and  C_6 
REMARK       I    between atoms: C_6  and  N_7 
REMARK    2  A    between atoms: N_7  and  C_8 
REMARK    3  A    between atoms: C_8  and  C_9 
REMARK    4  A    between atoms: C_12  and  C_13 
ROOT
HETATM    1  N   UNL     1      21.647  47.627  47.563  1.00  0.00    -0.309 N 
HETATM    2  C   UNL     1      22.367  46.575  48.030  1.00  0.00     0.321 C 
HETATM    3  N   UNL     1      23.033  46.720  49.203  1.00  0.00    -0.335 N 
HETATM    4  O   UNL     1      22.429  45.544  47.362  1.00  0.00    -0.247 OA
HETATM    5  H   UNL     1      21.347  47.454  46.610  1.00  0.00     0.170 HD
HETATM    6  H   UNL     1      23.368  47.655  49.394  1.00  0.00     0.164 HD
ENDROOT
BRANCH   3   7
HETATM    7  C   UNL     1      23.882  45.641  49.668  1.00  0.00     0.213 C 
BRANCH   7   8
HETATM    8  C   UNL     1      24.710  46.087  50.812  1.00  0.00     0.190 A 
HETATM    9  O   UNL     1      24.628  47.409  51.130  1.00  0.00    -0.194 OA
HETATM   10  N   UNL     1      25.456  47.606  52.227  1.00  0.00    -0.106 NA
HETATM   11  C   UNL     1      25.964  46.386  52.474  1.00  0.00     0.189 A 
HETATM   12  N   UNL     1      25.511  45.409  51.607  1.00  0.00    -0.202 NA
BRANCH  11  13
HETATM   13  C   UNL     1      26.903  46.104  53.557  1.00  0.00     0.014 A 
HETATM   14  C   UNL     1      27.249  47.106  54.475  1.00  0.00     0.015 A 
HETATM   15  C   UNL     1      28.148  46.841  55.512  1.00  0.00     0.001 A 
HETATM   16  C   UNL     1      28.709  45.573  55.643  1.00  0.00     0.000 A 
HETATM   17  C   UNL     1      28.376  44.567  54.738  1.00  0.00     0.001 A 
HETATM   18  C   UNL     1      27.477  44.832  53.701  1.00  0.00     0.015 A 
ENDBRANCH  11  13
ENDBRANCH   7   8
ENDBRANCH   3   7
BRANCH   1  19
HETATM   19  C   UNL     1      21.210  48.834  48.136  1.00  0.00     0.036 A 
HETATM   20  C   UNL     1      20.018  48.994  48.849  1.00  0.00     0.036 A 
HETATM   21  C   UNL     1      19.666  50.241  49.393  1.00  0.00    -0.060 A 
HETATM   22  C   UNL     1      18.372  50.407  50.136  1.00  0.00     0.048 C 
HETATM   23  C   UNL     1      20.498  51.345  49.177  1.00  0.00     0.007 A 
HETATM   24  C   UNL     1      21.670  51.204  48.441  1.00  0.00     0.003 A 
HETATM   25  C   UNL     1      22.021  49.957  47.923  1.00  0.00     0.029 A 
ENDBRANCH   1  19
TORSDOF 4
ENDMDL
MODEL 8
REMARK VINA RESULT:      -8.4      4.058      9.365
REMARK  4 active torsions:
REMARK  status: ('A' for Active; 'I' for Inactive)
REMARK    1  A    between atoms: C_4  and  N_5 
REMARK       I    between atoms: N_5  and  C_6 
REMARK       I    between atoms: C_6  and  N_7 
REMARK    2  A    between atoms: N_7  and  C_8 
REMARK    3  A    between atoms: C_8  and  C_9 
REMARK    4  A    between atoms: C_12  and  C_13 
ROOT
HETATM    1  N   UNL     1      27.140  46.752  49.768  1.00  0.00    -0.309 N 
HETATM    2  C   UNL     1      26.968  48.032  49.351  1.00  0.00     0.321 C 
HETATM    3  N   UNL     1      25.705  48.516  49.259  1.00  0.00    -0.335 N 
HETATM    4  O   UNL     1      27.952  48.697  49.029  1.00  0.00    -0.247 OA
HETATM    5  H   UNL     1      28.100  46.461  49.627  1.00  0.00     0.170 HD
HETATM    6  H   UNL     1      24.999  47.834  49.018  1.00  0.00     0.164 HD
ENDROOT
BRANCH   3   7
HETATM    7  C   UNL     1      25.498  49.848  48.725  1.00  0.00     0.213 C 
BRANCH   7   8
HETATM    8  C   UNL     1      24.058  50.094  48.483  1.00  0.00     0.190 A 
HETATM    9  O   UNL     1      23.627  49.916  47.203  1.00  0.00    -0.194 OA
HETATM   10  N   UNL     1      22.263  50.176  47.203  1.00  0.00    -0.106 NA
HETATM   11  C   UNL     1      21.991  50.487  48.482  1.00  0.00     0.189 A 
HETATM   12  N   UNL     1      23.095  50.439  49.313  1.00  0.00    -0.202 NA
BRANCH  11  13
HETATM   13  C   UNL     1      20.658  50.839  48.964  1.00  0.00     0.014 A 
HETATM   14  C   UNL     1      19.990  50.008  49.874  1.00  0.00     0.015 A 
HETATM   15  C   UNL     1      18.712  50.340  50.336  1.00  0.00     0.001 A 
HETATM   16  C   UNL     1      18.091  51.506  49.894  1.00  0.00     0.000 A 
HETATM   17  C   UNL     1      18.742  52.342  48.989  1.00  0.00     0.001 A 
HETATM   18  C   UNL     1      20.019  52.010  48.526  1.00  0.00     0.015 A 
ENDBRANCH  11  13
ENDBRANCH   7   8
ENDBRANCH   3   7
BRANCH   1  19
HETATM   19  C   UNL     1      26.295  45.810  50.382  1.00  0.00     0.036 A 
HETATM   20  C   UNL     1      26.188  45.613  51.762  1.00  0.00     0.036 A 
HETATM   21  C   UNL     1      25.308  44.650  52.285  1.00  0.00    -0.060 A 
HETATM   22  C   UNL     1      25.219  44.429  53.767  1.00  0.00     0.048 C 
HETATM   23  C   UNL     1      24.567  43.848  51.410  1.00  0.00     0.007 A 
HETATM   24  C   UNL     1      24.690  44.015  50.035  1.00  0.00     0.003 A 
HETATM   25  C   UNL     1      25.550  44.989  49.526  1.00  0.00     0.029 A 
ENDBRANCH   1  19
TORSDOF 4
ENDMDL
MODEL 9
REMARK VINA RESULT:      -8.3      2.576      4.482
REMARK  4 active torsions:
REMARK  status: ('A' for Active; 'I' for Inactive)
REMARK    1  A    between atoms: C_4  and  N_5 
REMARK       I    between atoms: N_5  and  C_6 
REMARK       I    between atoms: C_6  and  N_7 
REMARK    2  A    between atoms: N_7  and  C_8 
REMARK    3  A    between atoms: C_8  and  C_9 
REMARK    4  A    between atoms: C_12  and  C_13 
ROOT
HETATM    1  N   UNL     1      25.017  45.894  49.624  1.00  0.00    -0.309 N 
HETATM    2  C   UNL     1      25.157  46.731  50.683  1.00  0.00     0.321 C 
HETATM    3  N   UNL     1      25.379  46.191  51.907  1.00  0.00    -0.335 N 
HETATM    4  O   UNL     1      25.036  47.944  50.511  1.00  0.00    -0.247 OA
HETATM    5  H   UNL     1      24.686  46.403  48.812  1.00  0.00     0.170 HD
HETATM    6  H   UNL     1      24.952  45.288  52.062  1.00  0.00     0.164 HD
ENDROOT
BRANCH   3   7
HETATM    7  C   UNL     1      25.434  47.065  53.062  1.00  0.00     0.213 C 
BRANCH   7   8
HETATM    8  C   UNL     1      26.634  46.771  53.880  1.00  0.00     0.190 A 
HETATM    9  O   UNL     1      27.141  47.815  54.593  1.00  0.00    -0.194 OA
HETATM   10  N   UNL     1      28.235  47.323  55.294  1.00  0.00    -0.106 NA
HETATM   11  C   UNL     1      28.290  46.026  54.942  1.00  0.00     0.189 A 
HETATM   12  N   UNL     1      27.295  45.647  54.060  1.00  0.00    -0.202 NA
BRANCH  11  13
HETATM   13  C   UNL     1      29.297  45.095  55.442  1.00  0.00     0.014 A 
HETATM   14  C   UNL     1      30.019  45.387  56.608  1.00  0.00     0.015 A 
HETATM   15  C   UNL     1      30.985  44.498  57.089  1.00  0.00     0.001 A 
HETATM   16  C   UNL     1      31.239  43.308  56.410  1.00  0.00     0.000 A 
HETATM   17  C   UNL     1      30.530  43.004  55.250  1.00  0.00     0.001 A 
HETATM   18  C   UNL     1      29.564  43.892  54.769  1.00  0.00     0.015 A 
ENDBRANCH  11  13
ENDBRANCH   7   8
ENDBRANCH   3   7
BRANCH   1  19
HETATM   19  C   UNL     1      25.283  44.528  49.426  1.00  0.00     0.036 A 
HETATM   20  C   UNL     1      24.340  43.582  49.014  1.00  0.00     0.036 A 
HETATM   21  C   UNL     1      24.701  42.235  48.836  1.00  0.00    -0.060 A 
HETATM   22  C   UNL     1      23.674  41.223  48.417  1.00  0.00     0.048 C 
HETATM   23  C   UNL     1      26.010  41.831  49.121  1.00  0.00     0.007 A 
HETATM   24  C   UNL     1      26.948  42.758  49.562  1.00  0.00     0.003 A 
HETATM   25  C   UNL     1      26.585  44.097  49.715  1.00  0.00     0.029 A 
ENDBRANCH   1  19
TORSDOF 4
ENDMDL
MODEL 10
REMARK VINA RESULT:      -8.2      3.169      4.535
REMARK  4 active torsions:
REMARK  status: ('A' for Active; 'I' for Inactive)
REMARK    1  A    between atoms: C_4  and  N_5 
REMARK       I    between atoms: N_5  and  C_6 
REMARK       I    between atoms: C_6  and  N_7 
REMARK    2  A    between atoms: N_7  and  C_8 
REMARK    3  A    between atoms: C_8  and  C_9 
REMARK    4  A    between atoms: C_12  and  C_13 
ROOT
HETATM    1  N   UNL     1      20.294  46.631  48.775  1.00  0.00    -0.309 N 
HETATM    2  C   UNL     1      21.206  45.636  48.923  1.00  0.00     0.321 C 
HETATM    3  N   UNL     1      22.484  45.973  49.226  1.00  0.00    -0.335 N 
HETATM    4  O   UNL     1      20.860  44.471  48.736  1.00  0.00    -0.247 OA
HETATM    5  H   UNL     1      19.434  46.266  48.384  1.00  0.00     0.170 HD
HETATM    6  H   UNL     1      22.796  46.859  48.850  1.00  0.00     0.164 HD
ENDROOT
BRANCH   3   7
HETATM    7  C   UNL     1      23.490  44.931  49.292  1.00  0.00     0.213 C 
BRANCH   7   8
HETATM    8  C   UNL     1      24.158  44.937  50.614  1.00  0.00     0.190 A 
HETATM    9  O   UNL     1      23.933  43.849  51.402  1.00  0.00    -0.194 OA
HETATM   10  N   UNL     1      24.659  44.046  52.569  1.00  0.00    -0.106 NA
HETATM   11  C   UNL     1      25.259  45.235  52.382  1.00  0.00     0.189 A 
HETATM   12  N   UNL     1      24.970  45.817  51.162  1.00  0.00    -0.202 NA
BRANCH  11  13
HETATM   13  C   UNL     1      26.140  45.860  53.364  1.00  0.00     0.014 A 
HETATM   14  C   UNL     1      27.272  45.181  53.836  1.00  0.00     0.015 A 
HETATM   15  C   UNL     1      28.118  45.776  54.778  1.00  0.00     0.001 A 
HETATM   16  C   UNL     1      27.840  47.055  55.257  1.00  0.00     0.000 A 
HETATM   17  C   UNL     1      26.718  47.741  54.798  1.00  0.00     0.001 A 
HETATM   18  C   UNL     1      25.873  47.148  53.856  1.00  0.00     0.015 A 
ENDBRANCH  11  13
ENDBRANCH   7   8
ENDBRANCH   3   7
BRANCH   1  19
HETATM   19  C   UNL     1      20.292  48.000  49.097  1.00  0.00     0.036 A 
HETATM   20  C   UNL     1      21.251  48.922  48.671  1.00  0.00     0.036 A 
HETATM   21  C   UNL     1      21.162  50.276  49.038  1.00  0.00    -0.060 A 
HETATM   22  C   UNL     1      22.212  51.253  48.595  1.00  0.00     0.048 C 
HETATM   23  C   UNL     1      20.125  50.693  49.879  1.00  0.00     0.007 A 
HETATM   24  C   UNL     1      19.183  49.777  50.335  1.00  0.00     0.003 A 
HETATM   25  C   UNL     1      19.269  48.439  49.948  1.00  0.00     0.029 A 
ENDBRANCH   1  19
TORSDOF 4
ENDMDL
