MODEL 1
REMARK VINA RESULT:      -7.8      0.000      0.000
REMARK  11 active torsions:
REMARK  status: ('A' for Active; 'I' for Inactive)
REMARK    1  A    between atoms: C_2  and  N_3 
REMARK    2  A    between atoms: N_3  and  C_5 
REMARK    3  A    between atoms: N_3  and  C_34 
REMARK    4  A    between atoms: C_5  and  C_6 
REMARK    5  A    between atoms: C_6  and  C_7 
REMARK    6  A    between atoms: C_7  and  N_8 
REMARK       I    between atoms: N_8  and  C_9 
REMARK    7  A    between atoms: C_9  and  C_10 
REMARK    8  A    between atoms: C_10  and  O_11 
REMARK    9  A    between atoms: N_12  and  C_13 
REMARK   10  A    between atoms: C_14  and  O_15 
REMARK   11  A    between atoms: C_18  and  O_19 
ROOT
HETATM    1  C   UNL     1      26.316  42.825  49.808  1.00  0.00     0.256 C 
HETATM    2  N   UNL     1      25.064  43.411  50.301  1.00  0.00    -0.251 N 
HETATM    3  C   UNL     1      23.881  42.693  50.259  1.00  0.00     0.330 C 
HETATM    4  O   UNL     1      22.867  42.948  50.907  1.00  0.00    -0.246 OA
HETATM    5  N   UNL     1      23.832  41.637  49.391  1.00  0.00    -0.308 N 
HETATM    6  C   UNL     1      24.842  41.294  48.498  1.00  0.00     0.048 A 
HETATM    7  C   UNL     1      26.089  41.895  48.633  1.00  0.00     0.035 A 
HETATM    8  C   UNL     1      24.593  40.367  47.486  1.00  0.00     0.031 A 
HETATM    9  C   UNL     1      25.608  40.038  46.586  1.00  0.00     0.021 A 
HETATM   10  C   UNL     1      26.863  40.630  46.712  1.00  0.00     0.011 A 
HETATM   11 BR   UNL     1      28.242  40.174  45.505  1.00  0.00    -0.051 Br
HETATM   12  C   UNL     1      27.110  41.549  47.731  1.00  0.00     0.034 A 
HETATM   13  H   UNL     1      22.913  41.224  49.293  1.00  0.00     0.170 HD
ENDROOT
BRANCH   1  14
HETATM   14  C   UNL     1      27.052  41.990  50.951  1.00  0.00     0.279 C 
HETATM   15  N   UNL     1      28.102  42.615  51.615  1.00  0.00    -0.356 N 
HETATM   16  H   UNL     1      28.648  43.242  51.026  1.00  0.00     0.162 HD
HETATM   17  O   UNL     1      26.640  40.883  51.308  1.00  0.00    -0.268 OA
BRANCH  15  18
HETATM   18  C   UNL     1      28.796  41.929  52.683  1.00  0.00     0.124 C 
BRANCH  18  19
HETATM   19  C   UNL     1      29.992  42.739  53.183  1.00  0.00     0.047 C 
BRANCH  19  20
HETATM   20  C   UNL     1      29.918  42.894  54.699  1.00  0.00     0.236 C 
BRANCH  20  21
HETATM   21  N   UNL     1      30.166  44.318  55.177  1.00  0.00    -0.072 N 
HETATM   22  H   UNL     1      30.711  44.763  54.424  1.00  0.00     0.279 HD
BRANCH  21  23
HETATM   23  C   UNL     1      31.041  44.437  56.418  1.00  0.00     0.230 C 
HETATM   24  C   UNL     1      31.460  43.074  56.937  1.00  0.00     0.034 C 
ENDBRANCH  21  23
BRANCH  21  25
HETATM   25  C   UNL     1      28.923  45.179  55.324  1.00  0.00     0.230 C 
HETATM   26  C   UNL     1      28.933  45.958  56.627  1.00  0.00     0.034 C 
ENDBRANCH  21  25
ENDBRANCH  20  21
ENDBRANCH  19  20
ENDBRANCH  18  19
ENDBRANCH  15  18
ENDBRANCH   1  14
BRANCH   1  27
HETATM   27  O   UNL     1      27.181  43.856  49.331  1.00  0.00    -0.359 OA
HETATM   28  H   UNL     1      27.723  44.126  50.093  1.00  0.00     0.213 HD
ENDBRANCH   1  27
BRANCH   2  29
HETATM   29  C   UNL     1      25.133  44.605  51.076  1.00  0.00     0.076 A 
HETATM   30  C   UNL     1      24.985  45.885  50.516  1.00  0.00     0.098 A 
HETATM   31  C   UNL     1      25.094  47.025  51.331  1.00  0.00     0.075 A 
HETATM   32  C   UNL     1      25.395  46.895  52.689  1.00  0.00     0.070 A 
HETATM   33  C   UNL     1      25.554  45.624  53.238  1.00  0.00     0.039 A 
HETATM   34  C   UNL     1      25.424  44.487  52.441  1.00  0.00     0.035 A 
BRANCH  30  35
HETATM   35  O   UNL     1      24.630  45.973  49.188  1.00  0.00    -0.354 OA
HETATM   36  C   UNL     1      23.268  46.367  49.006  1.00  0.00     0.210 C 
ENDBRANCH  30  35
BRANCH  32  37
HETATM   37  O   UNL     1      25.541  47.917  53.585  1.00  0.00    -0.356 OA
HETATM   38  C   UNL     1      26.324  47.661  54.743  1.00  0.00     0.210 C 
ENDBRANCH  32  37
ENDBRANCH   2  29
TORSDOF 11
ENDMDL
MODEL 2
REMARK VINA RESULT:      -7.0      3.122      6.820
REMARK  11 active torsions:
REMARK  status: ('A' for Active; 'I' for Inactive)
REMARK    1  A    between atoms: C_2  and  N_3 
REMARK    2  A    between atoms: N_3  and  C_5 
REMARK    3  A    between atoms: N_3  and  C_34 
REMARK    4  A    between atoms: C_5  and  C_6 
REMARK    5  A    between atoms: C_6  and  C_7 
REMARK    6  A    between atoms: C_7  and  N_8 
REMARK       I    between atoms: N_8  and  C_9 
REMARK    7  A    between atoms: C_9  and  C_10 
REMARK    8  A    between atoms: C_10  and  O_11 
REMARK    9  A    between atoms: N_12  and  C_13 
REMARK   10  A    between atoms: C_14  and  O_15 
REMARK   11  A    between atoms: C_18  and  O_19 
ROOT
HETATM    1  C   UNL     1      23.907  43.701  49.600  1.00  0.00     0.256 C 
HETATM    2  N   UNL     1      25.232  43.954  50.176  1.00  0.00    -0.251 N 
HETATM    3  C   UNL     1      26.381  43.588  49.495  1.00  0.00     0.330 C 
HETATM    4  O   UNL     1      27.513  44.015  49.721  1.00  0.00    -0.246 OA
HETATM    5  N   UNL     1      26.243  42.640  48.519  1.00  0.00    -0.308 N 
HETATM    6  C   UNL     1      25.062  41.967  48.226  1.00  0.00     0.048 A 
HETATM    7  C   UNL     1      23.872  42.427  48.779  1.00  0.00     0.035 A 
HETATM    8  C   UNL     1      25.085  40.847  47.394  1.00  0.00     0.031 A 
HETATM    9  C   UNL     1      23.898  40.168  47.115  1.00  0.00     0.021 A 
HETATM   10  C   UNL     1      22.698  40.621  47.662  1.00  0.00     0.011 A 
HETATM   11 BR   UNL     1      21.088  39.714  47.273  1.00  0.00    -0.051 Br
HETATM   12  C   UNL     1      22.678  41.746  48.484  1.00  0.00     0.034 A 
HETATM   13  H   UNL     1      27.120  42.306  48.139  1.00  0.00     0.170 HD
ENDROOT
BRANCH   1  14
HETATM   14  C   UNL     1      23.449  44.900  48.653  1.00  0.00     0.279 C 
HETATM   15  N   UNL     1      22.843  45.993  49.262  1.00  0.00    -0.356 N 
HETATM   16  H   UNL     1      22.272  45.751  50.070  1.00  0.00     0.162 HD
HETATM   17  O   UNL     1      23.719  44.909  47.448  1.00  0.00    -0.268 OA
BRANCH  15  18
HETATM   18  C   UNL     1      22.431  47.130  48.468  1.00  0.00     0.124 C 
BRANCH  18  19
HETATM   19  C   UNL     1      20.923  47.359  48.562  1.00  0.00     0.047 C 
BRANCH  19  20
HETATM   20  C   UNL     1      20.639  48.651  49.323  1.00  0.00     0.236 C 
BRANCH  20  21
HETATM   21  N   UNL     1      20.726  49.899  48.456  1.00  0.00    -0.072 N 
HETATM   22  H   UNL     1      21.012  49.560  47.526  1.00  0.00     0.279 HD
BRANCH  21  23
HETATM   23  C   UNL     1      21.808  50.891  48.862  1.00  0.00     0.230 C 
HETATM   24  C   UNL     1      23.051  50.741  48.003  1.00  0.00     0.034 C 
ENDBRANCH  21  23
BRANCH  21  25
HETATM   25  C   UNL     1      19.409  50.621  48.224  1.00  0.00     0.230 C 
HETATM   26  C   UNL     1      19.534  52.110  48.489  1.00  0.00     0.034 C 
ENDBRANCH  21  25
ENDBRANCH  20  21
ENDBRANCH  19  20
ENDBRANCH  18  19
ENDBRANCH  15  18
ENDBRANCH   1  14
BRANCH   1  27
HETATM   27  O   UNL     1      22.949  43.520  50.645  1.00  0.00    -0.359 OA
HETATM   28  H   UNL     1      22.446  44.351  50.694  1.00  0.00     0.213 HD
ENDBRANCH   1  27
BRANCH   2  29
HETATM   29  C   UNL     1      25.330  44.828  51.297  1.00  0.00     0.076 A 
HETATM   30  C   UNL     1      25.604  46.200  51.172  1.00  0.00     0.098 A 
HETATM   31  C   UNL     1      25.718  47.002  52.320  1.00  0.00     0.075 A 
HETATM   32  C   UNL     1      25.607  46.432  53.591  1.00  0.00     0.070 A 
HETATM   33  C   UNL     1      25.349  45.068  53.712  1.00  0.00     0.039 A 
HETATM   34  C   UNL     1      25.211  44.270  52.576  1.00  0.00     0.035 A 
BRANCH  30  35
HETATM   35  O   UNL     1      25.646  46.737  49.904  1.00  0.00    -0.354 OA
HETATM   36  C   UNL     1      26.360  47.975  49.853  1.00  0.00     0.210 C 
ENDBRANCH  30  35
BRANCH  32  37
HETATM   37  O   UNL     1      25.711  47.093  54.783  1.00  0.00    -0.356 OA
HETATM   38  C   UNL     1      26.954  47.718  55.075  1.00  0.00     0.210 C 
ENDBRANCH  32  37
ENDBRANCH   2  29
TORSDOF 11
ENDMDL
MODEL 3
REMARK VINA RESULT:      -6.9     10.994     13.430
REMARK  11 active torsions:
REMARK  status: ('A' for Active; 'I' for Inactive)
REMARK    1  A    between atoms: C_2  and  N_3 
REMARK    2  A    between atoms: N_3  and  C_5 
REMARK    3  A    between atoms: N_3  and  C_34 
REMARK    4  A    between atoms: C_5  and  C_6 
REMARK    5  A    between atoms: C_6  and  C_7 
REMARK    6  A    between atoms: C_7  and  N_8 
REMARK       I    between atoms: N_8  and  C_9 
REMARK    7  A    between atoms: C_9  and  C_10 
REMARK    8  A    between atoms: C_10  and  O_11 
REMARK    9  A    between atoms: N_12  and  C_13 
REMARK   10  A    between atoms: C_14  and  O_15 
REMARK   11  A    between atoms: C_18  and  O_19 
ROOT
HETATM    1  C   UNL     1      28.366  48.022  41.035  1.00  0.00     0.256 C 
HETATM    2  N   UNL     1      29.786  48.167  40.693  1.00  0.00    -0.251 N 
HETATM    3  C   UNL     1      30.336  47.457  39.640  1.00  0.00     0.330 C 
HETATM    4  O   UNL     1      31.398  47.721  39.078  1.00  0.00    -0.246 OA
HETATM    5  N   UNL     1      29.655  46.347  39.222  1.00  0.00    -0.308 N 
HETATM    6  C   UNL     1      28.510  45.842  39.830  1.00  0.00     0.048 A 
HETATM    7  C   UNL     1      27.855  46.618  40.778  1.00  0.00     0.035 A 
HETATM    8  C   UNL     1      28.043  44.572  39.487  1.00  0.00     0.031 A 
HETATM    9  C   UNL     1      26.901  44.066  40.112  1.00  0.00     0.021 A 
HETATM   10  C   UNL     1      26.234  44.835  41.062  1.00  0.00     0.011 A 
HETATM   11 BR   UNL     1      24.680  44.158  41.896  1.00  0.00    -0.051 Br
HETATM   12  C   UNL     1      26.699  46.107  41.393  1.00  0.00     0.034 A 
HETATM   13  H   UNL     1      30.154  45.786  38.544  1.00  0.00     0.170 HD
ENDROOT
BRANCH   1  14
HETATM   14  C   UNL     1      27.463  49.029  40.189  1.00  0.00     0.279 C 
HETATM   15  N   UNL     1      27.370  48.800  38.821  1.00  0.00    -0.356 N 
HETATM   16  H   UNL     1      28.222  48.428  38.407  1.00  0.00     0.162 HD
HETATM   17  O   UNL     1      26.787  49.905  40.737  1.00  0.00    -0.268 OA
BRANCH  15  18
HETATM   18  C   UNL     1      26.544  49.655  37.997  1.00  0.00     0.124 C 
BRANCH  18  19
HETATM   19  C   UNL     1      25.153  49.056  37.790  1.00  0.00     0.047 C 
BRANCH  19  20
HETATM   20  C   UNL     1      24.099  49.958  38.425  1.00  0.00     0.236 C 
BRANCH  20  21
HETATM   21  N   UNL     1      23.568  49.432  39.751  1.00  0.00    -0.072 N 
HETATM   22  H   UNL     1      24.082  49.958  40.473  1.00  0.00     0.279 HD
BRANCH  21  23
HETATM   23  C   UNL     1      23.880  47.969  40.035  1.00  0.00     0.230 C 
HETATM   24  C   UNL     1      22.689  47.254  40.648  1.00  0.00     0.034 C 
ENDBRANCH  21  23
BRANCH  21  25
HETATM   25  C   UNL     1      22.101  49.721  40.024  1.00  0.00     0.230 C 
HETATM   26  C   UNL     1      21.819  51.213  40.034  1.00  0.00     0.034 C 
ENDBRANCH  21  25
ENDBRANCH  20  21
ENDBRANCH  19  20
ENDBRANCH  18  19
ENDBRANCH  15  18
ENDBRANCH   1  14
BRANCH   1  27
HETATM   27  O   UNL     1      28.175  48.259  42.431  1.00  0.00    -0.359 OA
HETATM   28  H   UNL     1      28.238  47.389  42.862  1.00  0.00     0.213 HD
ENDBRANCH   1  27
BRANCH   2  29
HETATM   29  C   UNL     1      30.516  49.247  41.269  1.00  0.00     0.076 A 
HETATM   30  C   UNL     1      30.624  50.506  40.655  1.00  0.00     0.098 A 
HETATM   31  C   UNL     1      31.386  51.520  41.260  1.00  0.00     0.075 A 
HETATM   32  C   UNL     1      32.076  51.269  42.449  1.00  0.00     0.070 A 
HETATM   33  C   UNL     1      31.977  50.014  43.049  1.00  0.00     0.039 A 
HETATM   34  C   UNL     1      31.204  49.010  42.466  1.00  0.00     0.035 A 
BRANCH  30  35
HETATM   35  O   UNL     1      29.882  50.736  39.517  1.00  0.00    -0.354 OA
HETATM   36  C   UNL     1      29.430  52.088  39.417  1.00  0.00     0.210 C 
ENDBRANCH  30  35
BRANCH  32  37
HETATM   37  O   UNL     1      32.859  52.158  43.131  1.00  0.00    -0.356 OA
HETATM   38  C   UNL     1      33.010  51.954  44.529  1.00  0.00     0.210 C 
ENDBRANCH  32  37
ENDBRANCH   2  29
TORSDOF 11
ENDMDL
MODEL 4
REMARK VINA RESULT:      -6.8      7.024     10.078
REMARK  11 active torsions:
REMARK  status: ('A' for Active; 'I' for Inactive)
REMARK    1  A    between atoms: C_2  and  N_3 
REMARK    2  A    between atoms: N_3  and  C_5 
REMARK    3  A    between atoms: N_3  and  C_34 
REMARK    4  A    between atoms: C_5  and  C_6 
REMARK    5  A    between atoms: C_6  and  C_7 
REMARK    6  A    between atoms: C_7  and  N_8 
REMARK       I    between atoms: N_8  and  C_9 
REMARK    7  A    between atoms: C_9  and  C_10 
REMARK    8  A    between atoms: C_10  and  O_11 
REMARK    9  A    between atoms: N_12  and  C_13 
REMARK   10  A    between atoms: C_14  and  O_15 
REMARK   11  A    between atoms: C_18  and  O_19 
ROOT
HETATM    1  C   UNL     1      18.886  48.378  47.466  1.00  0.00     0.256 C 
HETATM    2  N   UNL     1      17.517  48.396  47.994  1.00  0.00    -0.251 N 
HETATM    3  C   UNL     1      17.008  47.304  48.676  1.00  0.00     0.330 C 
HETATM    4  O   UNL     1      16.022  47.317  49.412  1.00  0.00    -0.246 OA
HETATM    5  N   UNL     1      17.635  46.105  48.476  1.00  0.00    -0.308 N 
HETATM    6  C   UNL     1      18.680  45.894  47.582  1.00  0.00     0.048 A 
HETATM    7  C   UNL     1      19.308  46.995  47.011  1.00  0.00     0.035 A 
HETATM    8  C   UNL     1      19.076  44.593  47.268  1.00  0.00     0.031 A 
HETATM    9  C   UNL     1      20.116  44.389  46.360  1.00  0.00     0.021 A 
HETATM   10  C   UNL     1      20.756  45.484  45.783  1.00  0.00     0.011 A 
HETATM   11 BR   UNL     1      22.174  45.210  44.566  1.00  0.00    -0.051 Br
HETATM   12  C   UNL     1      20.363  46.782  46.107  1.00  0.00     0.034 A 
HETATM   13  H   UNL     1      17.155  45.313  48.885  1.00  0.00     0.170 HD
ENDROOT
BRANCH   1  14
HETATM   14  C   UNL     1      19.935  48.868  48.564  1.00  0.00     0.279 C 
HETATM   15  N   UNL     1      20.627  50.044  48.299  1.00  0.00    -0.356 N 
HETATM   16  H   UNL     1      20.836  50.186  47.312  1.00  0.00     0.162 HD
HETATM   17  O   UNL     1      20.048  48.291  49.649  1.00  0.00    -0.268 OA
BRANCH  15  18
HETATM   18  C   UNL     1      21.571  50.564  49.264  1.00  0.00     0.124 C 
BRANCH  18  19
HETATM   19  C   UNL     1      22.785  51.188  48.577  1.00  0.00     0.047 C 
BRANCH  19  20
HETATM   20  C   UNL     1      23.620  50.100  47.908  1.00  0.00     0.236 C 
BRANCH  20  21
HETATM   21  N   UNL     1      24.802  49.638  48.750  1.00  0.00    -0.072 N 
HETATM   22  H   UNL     1      24.863  50.316  49.523  1.00  0.00     0.279 HD
BRANCH  21  23
HETATM   23  C   UNL     1      26.155  49.712  48.055  1.00  0.00     0.230 C 
HETATM   24  C   UNL     1      27.282  49.306  48.988  1.00  0.00     0.034 C 
ENDBRANCH  21  23
BRANCH  21  25
HETATM   25  C   UNL     1      24.629  48.287  49.425  1.00  0.00     0.230 C 
HETATM   26  C   UNL     1      23.469  47.510  48.829  1.00  0.00     0.034 C 
ENDBRANCH  21  25
ENDBRANCH  20  21
ENDBRANCH  19  20
ENDBRANCH  18  19
ENDBRANCH  15  18
ENDBRANCH   1  14
BRANCH   1  27
HETATM   27  O   UNL     1      18.972  49.214  46.310  1.00  0.00    -0.359 OA
HETATM   28  H   UNL     1      18.721  50.107  46.605  1.00  0.00     0.213 HD
ENDBRANCH   1  27
BRANCH   2  29
HETATM   29  C   UNL     1      16.825  49.640  48.045  1.00  0.00     0.076 A 
HETATM   30  C   UNL     1      15.971  50.079  47.018  1.00  0.00     0.098 A 
HETATM   31  C   UNL     1      15.342  51.331  47.116  1.00  0.00     0.075 A 
HETATM   32  C   UNL     1      15.595  52.165  48.208  1.00  0.00     0.070 A 
HETATM   33  C   UNL     1      16.453  51.732  49.218  1.00  0.00     0.039 A 
HETATM   34  C   UNL     1      17.064  50.480  49.139  1.00  0.00     0.035 A 
BRANCH  30  35
HETATM   35  O   UNL     1      15.697  49.207  45.989  1.00  0.00    -0.354 OA
HETATM   36  C   UNL     1      14.298  48.961  45.831  1.00  0.00     0.210 C 
ENDBRANCH  30  35
BRANCH  32  37
HETATM   37  O   UNL     1      15.062  53.406  48.417  1.00  0.00    -0.356 OA
HETATM   38  C   UNL     1      15.236  53.981  49.705  1.00  0.00     0.210 C 
ENDBRANCH  32  37
ENDBRANCH   2  29
TORSDOF 11
ENDMDL
MODEL 5
REMARK VINA RESULT:      -6.7      8.488     12.830
REMARK  11 active torsions:
REMARK  status: ('A' for Active; 'I' for Inactive)
REMARK    1  A    between atoms: C_2  and  N_3 
REMARK    2  A    between atoms: N_3  and  C_5 
REMARK    3  A    between atoms: N_3  and  C_34 
REMARK    4  A    between atoms: C_5  and  C_6 
REMARK    5  A    between atoms: C_6  and  C_7 
REMARK    6  A    between atoms: C_7  and  N_8 
REMARK       I    between atoms: N_8  and  C_9 
REMARK    7  A    between atoms: C_9  and  C_10 
REMARK    8  A    between atoms: C_10  and  O_11 
REMARK    9  A    between atoms: N_12  and  C_13 
REMARK   10  A    between atoms: C_14  and  O_15 
REMARK   11  A    between atoms: C_18  and  O_19 
ROOT
HETATM    1  C   UNL     1      18.775  50.308  47.515  1.00  0.00     0.256 C 
HETATM    2  N   UNL     1      19.503  50.263  48.788  1.00  0.00    -0.251 N 
HETATM    3  C   UNL     1      18.826  50.314  49.994  1.00  0.00     0.330 C 
HETATM    4  O   UNL     1      19.284  49.980  51.086  1.00  0.00    -0.246 OA
HETATM    5  N   UNL     1      17.554  50.819  49.966  1.00  0.00    -0.308 N 
HETATM    6  C   UNL     1      16.937  51.355  48.841  1.00  0.00     0.048 A 
HETATM    7  C   UNL     1      17.531  51.170  47.597  1.00  0.00     0.035 A 
HETATM    8  C   UNL     1      15.746  52.070  48.973  1.00  0.00     0.031 A 
HETATM    9  C   UNL     1      15.140  52.618  47.842  1.00  0.00     0.021 A 
HETATM   10  C   UNL     1      15.724  52.437  46.589  1.00  0.00     0.011 A 
HETATM   11 BR   UNL     1      14.896  53.163  45.054  1.00  0.00    -0.051 Br
HETATM   12  C   UNL     1      16.908  51.714  46.460  1.00  0.00     0.034 A 
HETATM   13  H   UNL     1      17.145  50.961  50.880  1.00  0.00     0.170 HD
ENDROOT
BRANCH   1  14
HETATM   14  C   UNL     1      18.322  48.848  47.057  1.00  0.00     0.279 C 
HETATM   15  N   UNL     1      18.999  48.283  45.982  1.00  0.00    -0.356 N 
HETATM   16  H   UNL     1      19.290  48.958  45.278  1.00  0.00     0.162 HD
HETATM   17  O   UNL     1      17.486  48.202  47.696  1.00  0.00    -0.268 OA
BRANCH  15  18
HETATM   18  C   UNL     1      18.663  46.950  45.532  1.00  0.00     0.124 C 
BRANCH  18  19
HETATM   19  C   UNL     1      17.596  46.982  44.439  1.00  0.00     0.047 C 
BRANCH  19  20
HETATM   20  C   UNL     1      16.430  46.076  44.822  1.00  0.00     0.236 C 
BRANCH  20  21
HETATM   21  N   UNL     1      15.111  46.818  44.986  1.00  0.00    -0.072 N 
HETATM   22  H   UNL     1      14.773  46.561  45.925  1.00  0.00     0.279 HD
BRANCH  21  23
HETATM   23  C   UNL     1      14.004  46.381  44.037  1.00  0.00     0.230 C 
HETATM   24  C   UNL     1      14.141  44.917  43.659  1.00  0.00     0.034 C 
ENDBRANCH  21  23
BRANCH  21  25
HETATM   25  C   UNL     1      15.219  48.334  45.009  1.00  0.00     0.230 C 
HETATM   26  C   UNL     1      14.405  48.934  46.142  1.00  0.00     0.034 C 
ENDBRANCH  21  25
ENDBRANCH  20  21
ENDBRANCH  19  20
ENDBRANCH  18  19
ENDBRANCH  15  18
ENDBRANCH   1  14
BRANCH   1  27
HETATM   27  O   UNL     1      19.595  50.897  46.505  1.00  0.00    -0.359 OA
HETATM   28  H   UNL     1      18.987  51.357  45.900  1.00  0.00     0.213 HD
ENDBRANCH   1  27
BRANCH   2  29
HETATM   29  C   UNL     1      20.877  49.884  48.771  1.00  0.00     0.076 A 
HETATM   30  C   UNL     1      21.301  48.551  48.901  1.00  0.00     0.098 A 
HETATM   31  C   UNL     1      22.672  48.246  48.908  1.00  0.00     0.075 A 
HETATM   32  C   UNL     1      23.622  49.269  48.832  1.00  0.00     0.070 A 
HETATM   33  C   UNL     1      23.198  50.592  48.716  1.00  0.00     0.039 A 
HETATM   34  C   UNL     1      21.838  50.899  48.686  1.00  0.00     0.035 A 
BRANCH  30  35
HETATM   35  O   UNL     1      20.338  47.565  48.913  1.00  0.00    -0.354 OA
HETATM   36  C   UNL     1      20.836  46.303  48.464  1.00  0.00     0.210 C 
ENDBRANCH  30  35
BRANCH  32  37
HETATM   37  O   UNL     1      24.979  49.112  48.842  1.00  0.00    -0.356 OA
HETATM   38  C   UNL     1      25.739  49.956  47.987  1.00  0.00     0.210 C 
ENDBRANCH  32  37
ENDBRANCH   2  29
TORSDOF 11
ENDMDL
MODEL 6
REMARK VINA RESULT:      -6.6      3.248      7.552
REMARK  11 active torsions:
REMARK  status: ('A' for Active; 'I' for Inactive)
REMARK    1  A    between atoms: C_2  and  N_3 
REMARK    2  A    between atoms: N_3  and  C_5 
REMARK    3  A    between atoms: N_3  and  C_34 
REMARK    4  A    between atoms: C_5  and  C_6 
REMARK    5  A    between atoms: C_6  and  C_7 
REMARK    6  A    between atoms: C_7  and  N_8 
REMARK       I    between atoms: N_8  and  C_9 
REMARK    7  A    between atoms: C_9  and  C_10 
REMARK    8  A    between atoms: C_10  and  O_11 
REMARK    9  A    between atoms: N_12  and  C_13 
REMARK   10  A    between atoms: C_14  and  O_15 
REMARK   11  A    between atoms: C_18  and  O_19 
ROOT
HETATM    1  C   UNL     1      26.895  42.036  49.751  1.00  0.00     0.256 C 
HETATM    2  N   UNL     1      27.382  40.851  49.037  1.00  0.00    -0.251 N 
HETATM    3  C   UNL     1      27.694  39.689  49.723  1.00  0.00     0.330 C 
HETATM    4  O   UNL     1      27.807  38.571  49.222  1.00  0.00    -0.246 OA
HETATM    5  N   UNL     1      27.936  39.812  51.064  1.00  0.00    -0.308 N 
HETATM    6  C   UNL     1      27.973  41.017  51.758  1.00  0.00     0.048 A 
HETATM    7  C   UNL     1      27.510  42.168  51.130  1.00  0.00     0.035 A 
HETATM    8  C   UNL     1      28.476  41.057  53.059  1.00  0.00     0.031 A 
HETATM    9  C   UNL     1      28.524  42.272  53.744  1.00  0.00     0.021 A 
HETATM   10  C   UNL     1      28.060  43.432  53.127  1.00  0.00     0.011 A 
HETATM   11 BR   UNL     1      28.107  45.075  54.059  1.00  0.00    -0.051 Br
HETATM   12  C   UNL     1      27.548  43.386  51.831  1.00  0.00     0.034 A 
HETATM   13  H   UNL     1      28.288  38.969  51.500  1.00  0.00     0.170 HD
ENDROOT
BRANCH   1  14
HETATM   14  C   UNL     1      25.310  41.991  49.930  1.00  0.00     0.279 C 
HETATM   15  N   UNL     1      24.558  42.852  49.138  1.00  0.00    -0.356 N 
HETATM   16  H   UNL     1      25.014  43.744  48.951  1.00  0.00     0.162 HD
HETATM   17  O   UNL     1      24.766  41.154  50.657  1.00  0.00    -0.268 OA
BRANCH  15  18
HETATM   18  C   UNL     1      23.114  42.844  49.225  1.00  0.00     0.124 C 
BRANCH  18  19
HETATM   19  C   UNL     1      22.547  44.262  49.219  1.00  0.00     0.047 C 
BRANCH  19  20
HETATM   20  C   UNL     1      23.663  45.268  48.951  1.00  0.00     0.236 C 
BRANCH  20  21
HETATM   21  N   UNL     1      23.475  46.593  49.677  1.00  0.00    -0.072 N 
HETATM   22  H   UNL     1      22.793  46.395  50.424  1.00  0.00     0.279 HD
BRANCH  21  23
HETATM   23  C   UNL     1      22.838  47.698  48.846  1.00  0.00     0.230 C 
HETATM   24  C   UNL     1      23.647  48.981  48.912  1.00  0.00     0.034 C 
ENDBRANCH  21  23
BRANCH  21  25
HETATM   25  C   UNL     1      24.706  47.118  50.398  1.00  0.00     0.230 C 
HETATM   26  C   UNL     1      25.936  46.287  50.080  1.00  0.00     0.034 C 
ENDBRANCH  21  25
ENDBRANCH  20  21
ENDBRANCH  19  20
ENDBRANCH  18  19
ENDBRANCH  15  18
ENDBRANCH   1  14
BRANCH   1  27
HETATM   27  O   UNL     1      27.266  43.219  49.041  1.00  0.00    -0.359 OA
HETATM   28  H   UNL     1      28.069  42.990  48.540  1.00  0.00     0.213 HD
ENDBRANCH   1  27
BRANCH   2  29
HETATM   29  C   UNL     1      27.261  40.815  47.617  1.00  0.00     0.076 A 
HETATM   30  C   UNL     1      26.096  40.378  46.964  1.00  0.00     0.098 A 
HETATM   31  C   UNL     1      26.052  40.338  45.560  1.00  0.00     0.075 A 
HETATM   32  C   UNL     1      27.177  40.687  44.808  1.00  0.00     0.070 A 
HETATM   33  C   UNL     1      28.335  41.108  45.461  1.00  0.00     0.039 A 
HETATM   34  C   UNL     1      28.379  41.172  46.853  1.00  0.00     0.035 A 
BRANCH  30  35
HETATM   35  O   UNL     1      24.989  40.100  47.734  1.00  0.00    -0.354 OA
HETATM   36  C   UNL     1      23.801  39.940  46.955  1.00  0.00     0.210 C 
ENDBRANCH  30  35
BRANCH  32  37
HETATM   37  O   UNL     1      27.271  40.679  43.445  1.00  0.00    -0.356 OA
HETATM   38  C   UNL     1      28.482  41.153  42.873  1.00  0.00     0.210 C 
ENDBRANCH  32  37
ENDBRANCH   2  29
TORSDOF 11
ENDMDL
MODEL 7
REMARK VINA RESULT:      -6.5      8.470     12.750
REMARK  11 active torsions:
REMARK  status: ('A' for Active; 'I' for Inactive)
REMARK    1  A    between atoms: C_2  and  N_3 
REMARK    2  A    between atoms: N_3  and  C_5 
REMARK    3  A    between atoms: N_3  and  C_34 
REMARK    4  A    between atoms: C_5  and  C_6 
REMARK    5  A    between atoms: C_6  and  C_7 
REMARK    6  A    between atoms: C_7  and  N_8 
REMARK       I    between atoms: N_8  and  C_9 
REMARK    7  A    between atoms: C_9  and  C_10 
REMARK    8  A    between atoms: C_10  and  O_11 
REMARK    9  A    between atoms: N_12  and  C_13 
REMARK   10  A    between atoms: C_14  and  O_15 
REMARK   11  A    between atoms: C_18  and  O_19 
ROOT
HETATM    1  C   UNL     1      18.795  50.380  47.542  1.00  0.00     0.256 C 
HETATM    2  N   UNL     1      19.502  50.270  48.823  1.00  0.00    -0.251 N 
HETATM    3  C   UNL     1      18.805  50.273  50.019  1.00  0.00     0.330 C 
HETATM    4  O   UNL     1      19.241  49.885  51.102  1.00  0.00    -0.246 OA
HETATM    5  N   UNL     1      17.540  50.792  49.993  1.00  0.00    -0.308 N 
HETATM    6  C   UNL     1      16.947  51.386  48.884  1.00  0.00     0.048 A 
HETATM    7  C   UNL     1      17.559  51.251  47.643  1.00  0.00     0.035 A 
HETATM    8  C   UNL     1      15.761  52.108  49.030  1.00  0.00     0.031 A 
HETATM    9  C   UNL     1      15.179  52.712  47.915  1.00  0.00     0.021 A 
HETATM   10  C   UNL     1      15.781  52.582  46.665  1.00  0.00     0.011 A 
HETATM   11 BR   UNL     1      14.986  53.386  45.151  1.00  0.00    -0.051 Br
HETATM   12  C   UNL     1      16.960  51.852  46.522  1.00  0.00     0.034 A 
HETATM   13  H   UNL     1      17.117  50.898  50.907  1.00  0.00     0.170 HD
ENDROOT
BRANCH   1  14
HETATM   14  C   UNL     1      18.335  48.947  47.011  1.00  0.00     0.279 C 
HETATM   15  N   UNL     1      19.122  48.353  46.030  1.00  0.00    -0.356 N 
HETATM   16  H   UNL     1      19.539  49.015  45.379  1.00  0.00     0.162 HD
HETATM   17  O   UNL     1      17.389  48.343  47.523  1.00  0.00    -0.268 OA
BRANCH  15  18
HETATM   18  C   UNL     1      18.782  47.041  45.524  1.00  0.00     0.124 C 
BRANCH  18  19
HETATM   19  C   UNL     1      18.423  47.091  44.040  1.00  0.00     0.047 C 
BRANCH  19  20
HETATM   20  C   UNL     1      16.963  47.503  43.872  1.00  0.00     0.236 C 
BRANCH  20  21
HETATM   21  N   UNL     1      16.785  48.819  43.127  1.00  0.00    -0.072 N 
HETATM   22  H   UNL     1      16.244  48.578  42.284  1.00  0.00     0.279 HD
BRANCH  21  23
HETATM   23  C   UNL     1      18.071  49.442  42.604  1.00  0.00     0.230 C 
HETATM   24  C   UNL     1      18.373  50.759  43.296  1.00  0.00     0.034 C 
ENDBRANCH  21  23
BRANCH  21  25
HETATM   25  C   UNL     1      15.947  49.863  43.847  1.00  0.00     0.230 C 
HETATM   26  C   UNL     1      14.966  49.223  44.813  1.00  0.00     0.034 C 
ENDBRANCH  21  25
ENDBRANCH  20  21
ENDBRANCH  19  20
ENDBRANCH  18  19
ENDBRANCH  15  18
ENDBRANCH   1  14
BRANCH   1  27
HETATM   27  O   UNL     1      19.638  51.006  46.573  1.00  0.00    -0.359 OA
HETATM   28  H   UNL     1      20.182  50.295  46.192  1.00  0.00     0.213 HD
ENDBRANCH   1  27
BRANCH   2  29
HETATM   29  C   UNL     1      20.872  49.877  48.811  1.00  0.00     0.076 A 
HETATM   30  C   UNL     1      21.281  48.539  48.943  1.00  0.00     0.098 A 
HETATM   31  C   UNL     1      22.650  48.221  48.954  1.00  0.00     0.075 A 
HETATM   32  C   UNL     1      23.610  49.234  48.881  1.00  0.00     0.070 A 
HETATM   33  C   UNL     1      23.200  50.561  48.763  1.00  0.00     0.039 A 
HETATM   34  C   UNL     1      21.843  50.882  48.728  1.00  0.00     0.035 A 
BRANCH  30  35
HETATM   35  O   UNL     1      20.309  47.564  48.952  1.00  0.00    -0.354 OA
HETATM   36  C   UNL     1      20.788  46.303  48.478  1.00  0.00     0.210 C 
ENDBRANCH  30  35
BRANCH  32  37
HETATM   37  O   UNL     1      24.966  49.063  48.895  1.00  0.00    -0.356 OA
HETATM   38  C   UNL     1      25.740  49.928  48.076  1.00  0.00     0.210 C 
ENDBRANCH  32  37
ENDBRANCH   2  29
TORSDOF 11
ENDMDL
MODEL 8
REMARK VINA RESULT:      -6.5     15.032     16.934
REMARK  11 active torsions:
REMARK  status: ('A' for Active; 'I' for Inactive)
REMARK    1  A    between atoms: C_2  and  N_3 
REMARK    2  A    between atoms: N_3  and  C_5 
REMARK    3  A    between atoms: N_3  and  C_34 
REMARK    4  A    between atoms: C_5  and  C_6 
REMARK    5  A    between atoms: C_6  and  C_7 
REMARK    6  A    between atoms: C_7  and  N_8 
REMARK       I    between atoms: N_8  and  C_9 
REMARK    7  A    between atoms: C_9  and  C_10 
REMARK    8  A    between atoms: C_10  and  O_11 
REMARK    9  A    between atoms: N_12  and  C_13 
REMARK   10  A    between atoms: C_14  and  O_15 
REMARK   11  A    between atoms: C_18  and  O_19 
ROOT
HETATM    1  C   UNL     1      34.826  50.658  41.011  1.00  0.00     0.256 C 
HETATM    2  N   UNL     1      33.440  50.488  41.461  1.00  0.00    -0.251 N 
HETATM    3  C   UNL     1      32.908  51.312  42.439  1.00  0.00     0.330 C 
HETATM    4  O   UNL     1      31.709  51.467  42.667  1.00  0.00    -0.246 OA
HETATM    5  N   UNL     1      33.798  51.972  43.241  1.00  0.00    -0.308 N 
HETATM    6  C   UNL     1      35.179  51.809  43.197  1.00  0.00     0.048 A 
HETATM    7  C   UNL     1      35.740  51.119  42.129  1.00  0.00     0.035 A 
HETATM    8  C   UNL     1      35.975  52.330  44.219  1.00  0.00     0.031 A 
HETATM    9  C   UNL     1      37.358  52.151  44.176  1.00  0.00     0.021 A 
HETATM   10  C   UNL     1      37.933  51.463  43.109  1.00  0.00     0.011 A 
HETATM   11 BR   UNL     1      39.807  51.234  43.040  1.00  0.00    -0.051 Br
HETATM   12  C   UNL     1      37.136  50.953  42.086  1.00  0.00     0.034 A 
HETATM   13  H   UNL     1      33.373  52.455  44.021  1.00  0.00     0.170 HD
ENDROOT
BRANCH   1  14
HETATM   14  C   UNL     1      34.924  51.731  39.834  1.00  0.00     0.279 C 
HETATM   15  N   UNL     1      34.650  53.055  40.158  1.00  0.00    -0.356 N 
HETATM   16  H   UNL     1      33.934  53.164  40.874  1.00  0.00     0.162 HD
HETATM   17  O   UNL     1      35.330  51.420  38.710  1.00  0.00    -0.268 OA
BRANCH  15  18
HETATM   18  C   UNL     1      34.749  54.085  39.147  1.00  0.00     0.124 C 
BRANCH  18  19
HETATM   19  C   UNL     1      36.125  54.750  39.161  1.00  0.00     0.047 C 
BRANCH  19  20
HETATM   20  C   UNL     1      36.033  56.120  39.829  1.00  0.00     0.236 C 
BRANCH  20  21
HETATM   21  N   UNL     1      36.036  57.279  38.841  1.00  0.00    -0.072 N 
HETATM   22  H   UNL     1      36.694  57.966  39.235  1.00  0.00     0.279 HD
BRANCH  21  23
HETATM   23  C   UNL     1      34.714  58.025  38.720  1.00  0.00     0.230 C 
HETATM   24  C   UNL     1      33.788  57.709  39.881  1.00  0.00     0.034 C 
ENDBRANCH  21  23
BRANCH  21  25
HETATM   25  C   UNL     1      36.586  56.954  37.462  1.00  0.00     0.230 C 
HETATM   26  C   UNL     1      37.920  57.637  37.219  1.00  0.00     0.034 C 
ENDBRANCH  21  25
ENDBRANCH  20  21
ENDBRANCH  19  20
ENDBRANCH  18  19
ENDBRANCH  15  18
ENDBRANCH   1  14
BRANCH   1  27
HETATM   27  O   UNL     1      35.350  49.406  40.566  1.00  0.00    -0.359 OA
HETATM   28  H   UNL     1      35.358  49.448  39.594  1.00  0.00     0.213 HD
ENDBRANCH   1  27
BRANCH   2  29
HETATM   29  C   UNL     1      32.572  49.664  40.689  1.00  0.00     0.076 A 
HETATM   30  C   UNL     1      31.784  50.163  39.638  1.00  0.00     0.098 A 
HETATM   31  C   UNL     1      30.924  49.302  38.935  1.00  0.00     0.075 A 
HETATM   32  C   UNL     1      30.812  47.960  39.306  1.00  0.00     0.070 A 
HETATM   33  C   UNL     1      31.585  47.471  40.358  1.00  0.00     0.039 A 
HETATM   34  C   UNL     1      32.458  48.314  41.046  1.00  0.00     0.035 A 
BRANCH  30  35
HETATM   35  O   UNL     1      31.966  51.475  39.261  1.00  0.00    -0.354 OA
HETATM   36  C   UNL     1      30.778  52.258  39.397  1.00  0.00     0.210 C 
ENDBRANCH  30  35
BRANCH  32  37
HETATM   37  O   UNL     1      30.007  47.024  38.718  1.00  0.00    -0.356 OA
HETATM   38  C   UNL     1      29.258  46.177  39.578  1.00  0.00     0.210 C 
ENDBRANCH  32  37
ENDBRANCH   2  29
TORSDOF 11
ENDMDL
MODEL 9
REMARK VINA RESULT:      -6.5     11.171     13.888
REMARK  11 active torsions:
REMARK  status: ('A' for Active; 'I' for Inactive)
REMARK    1  A    between atoms: C_2  and  N_3 
REMARK    2  A    between atoms: N_3  and  C_5 
REMARK    3  A    between atoms: N_3  and  C_34 
REMARK    4  A    between atoms: C_5  and  C_6 
REMARK    5  A    between atoms: C_6  and  C_7 
REMARK    6  A    between atoms: C_7  and  N_8 
REMARK       I    between atoms: N_8  and  C_9 
REMARK    7  A    between atoms: C_9  and  C_10 
REMARK    8  A    between atoms: C_10  and  O_11 
REMARK    9  A    between atoms: N_12  and  C_13 
REMARK   10  A    between atoms: C_14  and  O_15 
REMARK   11  A    between atoms: C_18  and  O_19 
ROOT
HETATM    1  C   UNL     1      27.231  48.357  40.330  1.00  0.00     0.256 C 
HETATM    2  N   UNL     1      28.562  48.792  39.892  1.00  0.00    -0.251 N 
HETATM    3  C   UNL     1      29.354  47.970  39.109  1.00  0.00     0.330 C 
HETATM    4  O   UNL     1      30.322  48.333  38.442  1.00  0.00    -0.246 OA
HETATM    5  N   UNL     1      29.053  46.635  39.117  1.00  0.00    -0.308 N 
HETATM    6  C   UNL     1      28.076  46.046  39.912  1.00  0.00     0.048 A 
HETATM    7  C   UNL     1      27.170  46.863  40.579  1.00  0.00     0.035 A 
HETATM    8  C   UNL     1      28.021  44.657  40.034  1.00  0.00     0.031 A 
HETATM    9  C   UNL     1      27.046  44.073  40.845  1.00  0.00     0.021 A 
HETATM   10  C   UNL     1      26.130  44.881  41.516  1.00  0.00     0.011 A 
HETATM   11 BR   UNL     1      24.800  44.092  42.600  1.00  0.00    -0.051 Br
HETATM   12  C   UNL     1      26.182  46.267  41.383  1.00  0.00     0.034 A 
HETATM   13  H   UNL     1      29.732  46.055  38.641  1.00  0.00     0.170 HD
ENDROOT
BRANCH   1  14
HETATM   14  C   UNL     1      26.121  48.713  39.241  1.00  0.00     0.279 C 
HETATM   15  N   UNL     1      25.208  49.709  39.569  1.00  0.00    -0.356 N 
HETATM   16  H   UNL     1      24.963  49.735  40.557  1.00  0.00     0.162 HD
HETATM   17  O   UNL     1      26.136  48.207  38.115  1.00  0.00    -0.268 OA
BRANCH  15  18
HETATM   18  C   UNL     1      24.192  50.105  38.618  1.00  0.00     0.124 C 
BRANCH  18  19
HETATM   19  C   UNL     1      22.818  49.566  39.013  1.00  0.00     0.047 C 
BRANCH  19  20
HETATM   20  C   UNL     1      22.464  48.360  38.148  1.00  0.00     0.236 C 
BRANCH  20  21
HETATM   21  N   UNL     1      23.035  47.049  38.670  1.00  0.00    -0.072 N 
HETATM   22  H   UNL     1      23.871  47.316  39.209  1.00  0.00     0.279 HD
BRANCH  21  23
HETATM   23  C   UNL     1      23.547  46.096  37.598  1.00  0.00     0.230 C 
HETATM   24  C   UNL     1      24.474  45.047  38.183  1.00  0.00     0.034 C 
ENDBRANCH  21  23
BRANCH  21  25
HETATM   25  C   UNL     1      22.152  46.305  39.659  1.00  0.00     0.230 C 
HETATM   26  C   UNL     1      22.477  46.684  41.093  1.00  0.00     0.034 C 
ENDBRANCH  21  25
ENDBRANCH  20  21
ENDBRANCH  19  20
ENDBRANCH  18  19
ENDBRANCH  15  18
ENDBRANCH   1  14
BRANCH   1  27
HETATM   27  O   UNL     1      26.902  48.976  41.574  1.00  0.00    -0.359 OA
HETATM   28  H   UNL     1      26.375  49.763  41.351  1.00  0.00     0.213 HD
ENDBRANCH   1  27
BRANCH   2  29
HETATM   29  C   UNL     1      28.911  50.166  40.041  1.00  0.00     0.076 A 
HETATM   30  C   UNL     1      29.507  50.679  41.206  1.00  0.00     0.098 A 
HETATM   31  C   UNL     1      29.798  52.050  41.302  1.00  0.00     0.075 A 
HETATM   32  C   UNL     1      29.455  52.917  40.261  1.00  0.00     0.070 A 
HETATM   33  C   UNL     1      28.852  52.408  39.112  1.00  0.00     0.039 A 
HETATM   34  C   UNL     1      28.581  51.044  39.001  1.00  0.00     0.035 A 
BRANCH  30  35
HETATM   35  O   UNL     1      29.885  49.786  42.184  1.00  0.00    -0.354 OA
HETATM   36  C   UNL     1      31.297  49.776  42.406  1.00  0.00     0.210 C 
ENDBRANCH  30  35
BRANCH  32  37
HETATM   37  O   UNL     1      29.668  54.267  40.233  1.00  0.00    -0.356 OA
HETATM   38  C   UNL     1      30.941  54.735  40.661  1.00  0.00     0.210 C 
ENDBRANCH  32  37
ENDBRANCH   2  29
TORSDOF 11
ENDMDL
MODEL 10
REMARK VINA RESULT:      -6.5     17.499     20.154
REMARK  11 active torsions:
REMARK  status: ('A' for Active; 'I' for Inactive)
REMARK    1  A    between atoms: C_2  and  N_3 
REMARK    2  A    between atoms: N_3  and  C_5 
REMARK    3  A    between atoms: N_3  and  C_34 
REMARK    4  A    between atoms: C_5  and  C_6 
REMARK    5  A    between atoms: C_6  and  C_7 
REMARK    6  A    between atoms: C_7  and  N_8 
REMARK       I    between atoms: N_8  and  C_9 
REMARK    7  A    between atoms: C_9  and  C_10 
REMARK    8  A    between atoms: C_10  and  O_11 
REMARK    9  A    between atoms: N_12  and  C_13 
REMARK   10  A    between atoms: C_14  and  O_15 
REMARK   11  A    between atoms: C_18  and  O_19 
ROOT
HETATM    1  C   UNL     1      38.483  44.280  65.930  1.00  0.00     0.256 C 
HETATM    2  N   UNL     1      38.709  43.551  64.677  1.00  0.00    -0.251 N 
HETATM    3  C   UNL     1      38.751  44.220  63.466  1.00  0.00     0.330 C 
HETATM    4  O   UNL     1      39.229  43.779  62.422  1.00  0.00    -0.246 OA
HETATM    5  N   UNL     1      38.174  45.460  63.426  1.00  0.00    -0.308 N 
HETATM    6  C   UNL     1      37.482  46.048  64.480  1.00  0.00     0.048 A 
HETATM    7  C   UNL     1      37.564  45.471  65.742  1.00  0.00     0.035 A 
HETATM    8  C   UNL     1      36.718  47.195  64.259  1.00  0.00     0.031 A 
HETATM    9  C   UNL     1      36.015  47.771  65.318  1.00  0.00     0.021 A 
HETATM   10  C   UNL     1      36.091  47.204  66.588  1.00  0.00     0.011 A 
HETATM   11 BR   UNL     1      35.155  47.993  68.027  1.00  0.00    -0.051 Br
HETATM   12  C   UNL     1      36.864  46.065  66.807  1.00  0.00     0.034 A 
HETATM   13  H   UNL     1      38.108  45.857  62.498  1.00  0.00     0.170 HD
ENDROOT
BRANCH   1  14
HETATM   14  C   UNL     1      39.855  44.819  66.540  1.00  0.00     0.279 C 
HETATM   15  N   UNL     1      40.568  45.740  65.781  1.00  0.00    -0.356 N 
HETATM   16  H   UNL     1      40.494  45.592  64.776  1.00  0.00     0.162 HD
HETATM   17  O   UNL     1      40.215  44.518  67.682  1.00  0.00    -0.268 OA
BRANCH  15  18
HETATM   18  C   UNL     1      41.805  46.294  66.286  1.00  0.00     0.124 C 
BRANCH  18  19
HETATM   19  C   UNL     1      41.681  47.796  66.542  1.00  0.00     0.047 C 
BRANCH  19  20
HETATM   20  C   UNL     1      40.569  48.381  65.675  1.00  0.00     0.236 C 
BRANCH  20  21
HETATM   21  N   UNL     1      39.425  48.982  66.479  1.00  0.00    -0.072 N 
HETATM   22  H   UNL     1      38.569  48.586  66.064  1.00  0.00     0.279 HD
BRANCH  21  23
HETATM   23  C   UNL     1      39.265  50.490  66.342  1.00  0.00     0.230 C 
HETATM   24  C   UNL     1      37.822  50.875  66.073  1.00  0.00     0.034 C 
ENDBRANCH  21  23
BRANCH  21  25
HETATM   25  C   UNL     1      39.376  48.577  67.943  1.00  0.00     0.230 C 
HETATM   26  C   UNL     1      39.690  49.747  68.857  1.00  0.00     0.034 C 
ENDBRANCH  21  25
ENDBRANCH  20  21
ENDBRANCH  19  20
ENDBRANCH  18  19
ENDBRANCH  15  18
ENDBRANCH   1  14
BRANCH   1  27
HETATM   27  O   UNL     1      37.835  43.430  66.878  1.00  0.00    -0.359 OA
HETATM   28  H   UNL     1      38.490  43.259  67.577  1.00  0.00     0.213 HD
ENDBRANCH   1  27
BRANCH   2  29
HETATM   29  C   UNL     1      39.162  42.202  64.749  1.00  0.00     0.076 A 
HETATM   30  C   UNL     1      40.524  41.859  64.814  1.00  0.00     0.098 A 
HETATM   31  C   UNL     1      40.907  40.508  64.851  1.00  0.00     0.075 A 
HETATM   32  C   UNL     1      39.943  39.499  64.778  1.00  0.00     0.070 A 
HETATM   33  C   UNL     1      38.594  39.843  64.701  1.00  0.00     0.039 A 
HETATM   34  C   UNL     1      38.205  41.182  64.686  1.00  0.00     0.035 A 
BRANCH  30  35
HETATM   35  O   UNL     1      41.441  42.878  64.945  1.00  0.00    -0.354 OA
HETATM   36  C   UNL     1      42.550  42.519  65.773  1.00  0.00     0.210 C 
ENDBRANCH  30  35
BRANCH  32  37
HETATM   37  O   UNL     1      40.181  38.153  64.791  1.00  0.00    -0.356 OA
HETATM   38  C   UNL     1      41.536  37.732  64.864  1.00  0.00     0.210 C 
ENDBRANCH  32  37
ENDBRANCH   2  29
TORSDOF 11
ENDMDL
