MODEL 1
REMARK VINA RESULT:     -10.0      0.000      0.000
REMARK  3 active torsions:
REMARK  status: ('A' for Active; 'I' for Inactive)
REMARK    1  A    between atoms: C_2  and  O_3 
REMARK    2  A    between atoms: O_3  and  C_4 
REMARK    3  A    between atoms: C_5  and  N_6 
REMARK       I    between atoms: N_6  and  C_7 
REMARK       I    between atoms: C_7  and  N_8 
ROOT
HETATM    1  N   UNL     1      25.224  45.593  51.416  1.00  0.00    -0.306 N 
HETATM    2  C   UNL     1      25.815  46.373  52.380  1.00  0.00     0.323 C 
HETATM    3  N   UNL     1      26.717  45.711  53.210  1.00  0.00    -0.328 N 
HETATM    4  C   UNL     1      27.006  46.400  54.476  1.00  0.00     0.185 C 
HETATM    5  C   UNL     1      28.151  45.766  55.176  1.00  0.00     0.035 A 
HETATM    6  C   UNL     1      28.894  44.687  54.753  1.00  0.00    -0.020 A 
HETATM    7  C   UNL     1      28.595  44.028  53.459  1.00  0.00     0.061 C 
HETATM    8  C   UNL     1      27.127  44.295  53.063  1.00  0.00     0.132 C 
HETATM    9  N   UNL     1      28.642  46.173  56.384  1.00  0.00    -0.357 N 
HETATM   10  H   UNL     1      28.293  46.948  56.932  1.00  0.00     0.166 HD
HETATM   11  C   UNL     1      29.701  45.372  56.753  1.00  0.00     0.043 A 
HETATM   12  C   UNL     1      29.885  44.429  55.737  1.00  0.00    -0.001 A 
HETATM   13  C   UNL     1      30.504  45.413  57.899  1.00  0.00     0.030 A 
HETATM   14  C   UNL     1      31.529  44.470  58.007  1.00  0.00     0.002 A 
HETATM   15  C   UNL     1      31.740  43.521  57.009  1.00  0.00     0.001 A 
HETATM   16  C   UNL     1      30.927  43.490  55.869  1.00  0.00     0.014 A 
HETATM   17  O   UNL     1      25.554  47.563  52.548  1.00  0.00    -0.247 OA
HETATM   18  H   UNL     1      25.099  44.615  51.640  1.00  0.00     0.171 HD
ENDROOT
BRANCH   1  19
HETATM   19  C   UNL     1      24.361  46.045  50.387  1.00  0.00     0.072 A 
HETATM   20  C   UNL     1      23.527  45.086  49.768  1.00  0.00     0.096 A 
HETATM   21  C   UNL     1      22.643  45.490  48.763  1.00  0.00     0.042 A 
HETATM   22  C   UNL     1      22.609  46.825  48.356  1.00  0.00     0.045 A 
HETATM   23  C   UNL     1      23.454  47.751  48.953  1.00  0.00     0.118 A 
HETATM   24  C   UNL     1      24.330  47.375  49.964  1.00  0.00     0.074 A 
HETATM   25  F   UNL     1      23.425  49.026  48.542  1.00  0.00    -0.206 F 
BRANCH  20  26
HETATM   26  O   UNL     1      23.657  43.805  50.249  1.00  0.00    -0.344 OA
BRANCH  26  27
HETATM   27  C   UNL     1      24.290  42.807  49.441  1.00  0.00     0.121 C 
HETATM   28  C   UNL     1      23.239  41.861  48.866  1.00  0.00     0.040 C 
HETATM   29  C   UNL     1      25.239  42.038  50.357  1.00  0.00     0.040 C 
ENDBRANCH  26  27
ENDBRANCH  20  26
ENDBRANCH   1  19
TORSDOF 3
ENDMDL
MODEL 2
REMARK VINA RESULT:      -9.5      3.328      4.522
REMARK  3 active torsions:
REMARK  status: ('A' for Active; 'I' for Inactive)
REMARK    1  A    between atoms: C_2  and  O_3 
REMARK    2  A    between atoms: O_3  and  C_4 
REMARK    3  A    between atoms: C_5  and  N_6 
REMARK       I    between atoms: N_6  and  C_7 
REMARK       I    between atoms: C_7  and  N_8 
ROOT
HETATM    1  N   UNL     1      27.598  41.533  49.731  1.00  0.00    -0.306 N 
HETATM    2  C   UNL     1      27.642  42.789  50.286  1.00  0.00     0.323 C 
HETATM    3  N   UNL     1      28.157  42.849  51.579  1.00  0.00    -0.328 N 
HETATM    4  C   UNL     1      27.809  44.070  52.322  1.00  0.00     0.185 C 
HETATM    5  C   UNL     1      28.596  44.169  53.576  1.00  0.00     0.035 A 
HETATM    6  C   UNL     1      29.545  43.286  54.039  1.00  0.00    -0.020 A 
HETATM    7  C   UNL     1      29.893  42.077  53.255  1.00  0.00     0.061 C 
HETATM    8  C   UNL     1      28.719  41.700  52.326  1.00  0.00     0.132 C 
HETATM    9  N   UNL     1      28.480  45.184  54.484  1.00  0.00    -0.357 N 
HETATM   10  H   UNL     1      27.859  45.979  54.406  1.00  0.00     0.166 HD
HETATM   11  C   UNL     1      29.348  44.972  55.534  1.00  0.00     0.043 A 
HETATM   12  C   UNL     1      30.037  43.784  55.275  1.00  0.00    -0.001 A 
HETATM   13  C   UNL     1      29.572  45.741  56.684  1.00  0.00     0.030 A 
HETATM   14  C   UNL     1      30.534  45.285  57.589  1.00  0.00     0.002 A 
HETATM   15  C   UNL     1      31.240  44.107  57.355  1.00  0.00     0.001 A 
HETATM   16  C   UNL     1      31.002  43.348  56.203  1.00  0.00     0.014 A 
HETATM   17  O   UNL     1      27.225  43.799  49.720  1.00  0.00    -0.247 OA
HETATM   18  H   UNL     1      27.480  40.760  50.371  1.00  0.00     0.171 HD
ENDROOT
BRANCH   1  19
HETATM   19  C   UNL     1      27.223  41.219  48.401  1.00  0.00     0.072 A 
HETATM   20  C   UNL     1      25.845  41.041  48.138  1.00  0.00     0.096 A 
HETATM   21  C   UNL     1      25.425  40.751  46.836  1.00  0.00     0.042 A 
HETATM   22  C   UNL     1      26.365  40.612  45.812  1.00  0.00     0.045 A 
HETATM   23  C   UNL     1      27.716  40.762  46.091  1.00  0.00     0.118 A 
HETATM   24  C   UNL     1      28.155  41.064  47.374  1.00  0.00     0.074 A 
HETATM   25  F   UNL     1      28.610  40.609  45.104  1.00  0.00    -0.206 F 
BRANCH  20  26
HETATM   26  O   UNL     1      25.020  41.196  49.226  1.00  0.00    -0.344 OA
BRANCH  26  27
HETATM   27  C   UNL     1      24.093  42.287  49.262  1.00  0.00     0.121 C 
HETATM   28  C   UNL     1      23.969  42.815  50.689  1.00  0.00     0.040 C 
HETATM   29  C   UNL     1      22.750  41.737  48.790  1.00  0.00     0.040 C 
ENDBRANCH  26  27
ENDBRANCH  20  26
ENDBRANCH   1  19
TORSDOF 3
ENDMDL
MODEL 3
REMARK VINA RESULT:      -9.4      3.728      5.000
REMARK  3 active torsions:
REMARK  status: ('A' for Active; 'I' for Inactive)
REMARK    1  A    between atoms: C_2  and  O_3 
REMARK    2  A    between atoms: O_3  and  C_4 
REMARK    3  A    between atoms: C_5  and  N_6 
REMARK       I    between atoms: N_6  and  C_7 
REMARK       I    between atoms: C_7  and  N_8 
ROOT
HETATM    1  N   UNL     1      27.269  41.298  49.816  1.00  0.00    -0.306 N 
HETATM    2  C   UNL     1      27.402  42.579  50.292  1.00  0.00     0.323 C 
HETATM    3  N   UNL     1      27.951  42.685  51.568  1.00  0.00    -0.328 N 
HETATM    4  C   UNL     1      27.696  43.966  52.242  1.00  0.00     0.185 C 
HETATM    5  C   UNL     1      28.517  44.092  53.471  1.00  0.00     0.035 A 
HETATM    6  C   UNL     1      29.423  43.181  53.967  1.00  0.00    -0.020 A 
HETATM    7  C   UNL     1      29.679  41.909  53.251  1.00  0.00     0.061 C 
HETATM    8  C   UNL     1      28.462  41.550  52.371  1.00  0.00     0.132 C 
HETATM    9  N   UNL     1      28.485  45.164  54.318  1.00  0.00    -0.357 N 
HETATM   10  H   UNL     1      27.911  45.989  54.205  1.00  0.00     0.166 HD
HETATM   11  C   UNL     1      29.364  44.962  55.361  1.00  0.00     0.043 A 
HETATM   12  C   UNL     1      29.974  43.721  55.160  1.00  0.00    -0.001 A 
HETATM   13  C   UNL     1      29.663  45.782  56.456  1.00  0.00     0.030 A 
HETATM   14  C   UNL     1      30.617  45.323  57.368  1.00  0.00     0.002 A 
HETATM   15  C   UNL     1      31.245  44.093  57.191  1.00  0.00     0.001 A 
HETATM   16  C   UNL     1      30.934  43.282  56.092  1.00  0.00     0.014 A 
HETATM   17  O   UNL     1      27.033  43.578  49.675  1.00  0.00    -0.247 OA
HETATM   18  H   UNL     1      27.120  40.573  50.504  1.00  0.00     0.171 HD
ENDROOT
BRANCH   1  19
HETATM   19  C   UNL     1      26.843  40.929  48.516  1.00  0.00     0.072 A 
HETATM   20  C   UNL     1      27.681  40.063  47.777  1.00  0.00     0.096 A 
HETATM   21  C   UNL     1      27.292  39.654  46.498  1.00  0.00     0.042 A 
HETATM   22  C   UNL     1      26.098  40.123  45.946  1.00  0.00     0.045 A 
HETATM   23  C   UNL     1      25.299  40.996  46.671  1.00  0.00     0.118 A 
HETATM   24  C   UNL     1      25.658  41.404  47.949  1.00  0.00     0.074 A 
HETATM   25  F   UNL     1      24.164  41.454  46.125  1.00  0.00    -0.206 F 
BRANCH  20  26
HETATM   26  O   UNL     1      28.831  39.675  48.423  1.00  0.00    -0.344 OA
BRANCH  26  27
HETATM   27  C   UNL     1      29.096  38.282  48.621  1.00  0.00     0.121 C 
HETATM   28  C   UNL     1      27.937  37.636  49.375  1.00  0.00     0.040 C 
HETATM   29  C   UNL     1      30.374  38.193  49.451  1.00  0.00     0.040 C 
ENDBRANCH  26  27
ENDBRANCH  20  26
ENDBRANCH   1  19
TORSDOF 3
ENDMDL
MODEL 4
REMARK VINA RESULT:      -9.3      3.110      4.532
REMARK  3 active torsions:
REMARK  status: ('A' for Active; 'I' for Inactive)
REMARK    1  A    between atoms: C_2  and  O_3 
REMARK    2  A    between atoms: O_3  and  C_4 
REMARK    3  A    between atoms: C_5  and  N_6 
REMARK       I    between atoms: N_6  and  C_7 
REMARK       I    between atoms: C_7  and  N_8 
ROOT
HETATM    1  N   UNL     1      27.281  42.451  50.319  1.00  0.00    -0.306 N 
HETATM    2  C   UNL     1      28.036  41.882  51.316  1.00  0.00     0.323 C 
HETATM    3  N   UNL     1      28.438  42.752  52.327  1.00  0.00    -0.328 N 
HETATM    4  C   UNL     1      29.572  42.275  53.132  1.00  0.00     0.185 C 
HETATM    5  C   UNL     1      29.770  43.130  54.328  1.00  0.00     0.035 A 
HETATM    6  C   UNL     1      29.027  44.226  54.704  1.00  0.00    -0.020 A 
HETATM    7  C   UNL     1      27.872  44.668  53.886  1.00  0.00     0.061 C 
HETATM    8  C   UNL     1      28.042  44.176  52.432  1.00  0.00     0.132 C 
HETATM    9  N   UNL     1      30.757  42.947  55.256  1.00  0.00    -0.357 N 
HETATM   10  H   UNL     1      31.454  42.215  55.240  1.00  0.00     0.166 HD
HETATM   11  C   UNL     1      30.663  43.913  56.235  1.00  0.00     0.043 A 
HETATM   12  C   UNL     1      29.574  44.729  55.914  1.00  0.00    -0.001 A 
HETATM   13  C   UNL     1      31.453  44.120  57.373  1.00  0.00     0.030 A 
HETATM   14  C   UNL     1      31.116  45.187  58.210  1.00  0.00     0.002 A 
HETATM   15  C   UNL     1      30.034  46.014  57.918  1.00  0.00     0.001 A 
HETATM   16  C   UNL     1      29.255  45.797  56.775  1.00  0.00     0.014 A 
HETATM   17  O   UNL     1      28.380  40.701  51.320  1.00  0.00    -0.247 OA
HETATM   18  H   UNL     1      27.455  43.427  50.122  1.00  0.00     0.171 HD
ENDROOT
BRANCH   1  19
HETATM   19  C   UNL     1      26.662  41.766  49.244  1.00  0.00     0.072 A 
HETATM   20  C   UNL     1      25.250  41.708  49.236  1.00  0.00     0.096 A 
HETATM   21  C   UNL     1      24.594  41.061  48.184  1.00  0.00     0.042 A 
HETATM   22  C   UNL     1      25.333  40.454  47.166  1.00  0.00     0.045 A 
HETATM   23  C   UNL     1      26.720  40.495  47.202  1.00  0.00     0.118 A 
HETATM   24  C   UNL     1      27.393  41.144  48.229  1.00  0.00     0.074 A 
HETATM   25  F   UNL     1      27.419  39.894  46.229  1.00  0.00    -0.206 F 
BRANCH  20  26
HETATM   26  O   UNL     1      24.636  42.334  50.294  1.00  0.00    -0.344 OA
BRANCH  26  27
HETATM   27  C   UNL     1      24.157  43.676  50.141  1.00  0.00     0.121 C 
HETATM   28  C   UNL     1      24.518  44.499  51.375  1.00  0.00     0.040 C 
HETATM   29  C   UNL     1      22.640  43.586  49.999  1.00  0.00     0.040 C 
ENDBRANCH  26  27
ENDBRANCH  20  26
ENDBRANCH   1  19
TORSDOF 3
ENDMDL
MODEL 5
REMARK VINA RESULT:      -9.2      2.063      2.529
REMARK  3 active torsions:
REMARK  status: ('A' for Active; 'I' for Inactive)
REMARK    1  A    between atoms: C_2  and  O_3 
REMARK    2  A    between atoms: O_3  and  C_4 
REMARK    3  A    between atoms: C_5  and  N_6 
REMARK       I    between atoms: N_6  and  C_7 
REMARK       I    between atoms: C_7  and  N_8 
ROOT
HETATM    1  N   UNL     1      25.489  43.385  51.341  1.00  0.00    -0.306 N 
HETATM    2  C   UNL     1      25.993  44.473  52.013  1.00  0.00     0.323 C 
HETATM    3  N   UNL     1      26.911  44.177  53.017  1.00  0.00    -0.328 N 
HETATM    4  C   UNL     1      27.111  45.251  54.001  1.00  0.00     0.185 C 
HETATM    5  C   UNL     1      28.273  44.960  54.876  1.00  0.00     0.035 A 
HETATM    6  C   UNL     1      29.104  43.862  54.824  1.00  0.00    -0.020 A 
HETATM    7  C   UNL     1      28.893  42.808  53.803  1.00  0.00     0.061 C 
HETATM    8  C   UNL     1      27.423  42.823  53.331  1.00  0.00     0.132 C 
HETATM    9  N   UNL     1      28.696  45.764  55.897  1.00  0.00    -0.357 N 
HETATM   10  H   UNL     1      28.276  46.644  56.168  1.00  0.00     0.166 HD
HETATM   11  C   UNL     1      29.796  45.203  56.510  1.00  0.00     0.043 A 
HETATM   12  C   UNL     1      30.078  44.005  55.847  1.00  0.00    -0.001 A 
HETATM   13  C   UNL     1      30.557  45.666  57.590  1.00  0.00     0.030 A 
HETATM   14  C   UNL     1      31.640  44.886  58.001  1.00  0.00     0.002 A 
HETATM   15  C   UNL     1      31.949  43.690  57.357  1.00  0.00     0.001 A 
HETATM   16  C   UNL     1      31.177  43.238  56.280  1.00  0.00     0.014 A 
HETATM   17  O   UNL     1      25.644  45.632  51.791  1.00  0.00    -0.247 OA
HETATM   18  H   UNL     1      25.425  42.522  51.862  1.00  0.00     0.171 HD
ENDROOT
BRANCH   1  19
HETATM   19  C   UNL     1      24.630  43.423  50.214  1.00  0.00     0.072 A 
HETATM   20  C   UNL     1      25.156  42.979  48.979  1.00  0.00     0.096 A 
HETATM   21  C   UNL     1      24.340  42.976  47.844  1.00  0.00     0.042 A 
HETATM   22  C   UNL     1      23.024  43.438  47.928  1.00  0.00     0.045 A 
HETATM   23  C   UNL     1      22.530  43.897  49.141  1.00  0.00     0.118 A 
HETATM   24  C   UNL     1      23.318  43.895  50.284  1.00  0.00     0.074 A 
HETATM   25  F   UNL     1      21.271  44.354  49.205  1.00  0.00    -0.206 F 
BRANCH  20  26
HETATM   26  O   UNL     1      26.464  42.557  49.022  1.00  0.00    -0.344 OA
BRANCH  26  27
HETATM   27  C   UNL     1      26.766  41.168  48.840  1.00  0.00     0.121 C 
HETATM   28  C   UNL     1      27.590  40.658  50.019  1.00  0.00     0.040 C 
HETATM   29  C   UNL     1      27.576  41.062  47.550  1.00  0.00     0.040 C 
ENDBRANCH  26  27
ENDBRANCH  20  26
ENDBRANCH   1  19
TORSDOF 3
ENDMDL
MODEL 6
REMARK VINA RESULT:      -9.1      2.184      4.204
REMARK  3 active torsions:
REMARK  status: ('A' for Active; 'I' for Inactive)
REMARK    1  A    between atoms: C_2  and  O_3 
REMARK    2  A    between atoms: O_3  and  C_4 
REMARK    3  A    between atoms: C_5  and  N_6 
REMARK       I    between atoms: N_6  and  C_7 
REMARK       I    between atoms: C_7  and  N_8 
ROOT
HETATM    1  N   UNL     1      23.943  46.466  49.975  1.00  0.00    -0.306 N 
HETATM    2  C   UNL     1      24.578  45.309  50.357  1.00  0.00     0.323 C 
HETATM    3  N   UNL     1      25.584  45.470  51.307  1.00  0.00    -0.328 N 
HETATM    4  C   UNL     1      26.534  44.351  51.390  1.00  0.00     0.185 C 
HETATM    5  C   UNL     1      27.408  44.484  52.582  1.00  0.00     0.035 A 
HETATM    6  C   UNL     1      27.382  45.483  53.529  1.00  0.00    -0.020 A 
HETATM    7  C   UNL     1      26.395  46.585  53.433  1.00  0.00     0.061 C 
HETATM    8  C   UNL     1      25.934  46.748  51.968  1.00  0.00     0.132 C 
HETATM    9  N   UNL     1      28.401  43.606  52.916  1.00  0.00    -0.357 N 
HETATM   10  H   UNL     1      28.649  42.772  52.402  1.00  0.00     0.166 HD
HETATM   11  C   UNL     1      29.022  44.023  54.074  1.00  0.00     0.043 A 
HETATM   12  C   UNL     1      28.393  45.202  54.486  1.00  0.00    -0.001 A 
HETATM   13  C   UNL     1      30.083  43.445  54.783  1.00  0.00     0.030 A 
HETATM   14  C   UNL     1      30.508  44.087  55.949  1.00  0.00     0.002 A 
HETATM   15  C   UNL     1      29.898  45.260  56.386  1.00  0.00     0.001 A 
HETATM   16  C   UNL     1      28.840  45.828  55.665  1.00  0.00     0.014 A 
HETATM   17  O   UNL     1      24.325  44.203  49.880  1.00  0.00    -0.247 OA
HETATM   18  H   UNL     1      24.490  47.314  50.010  1.00  0.00     0.171 HD
ENDROOT
BRANCH   1  19
HETATM   19  C   UNL     1      22.822  46.559  49.113  1.00  0.00     0.072 A 
HETATM   20  C   UNL     1      22.498  47.836  48.602  1.00  0.00     0.096 A 
HETATM   21  C   UNL     1      21.414  47.974  47.730  1.00  0.00     0.042 A 
HETATM   22  C   UNL     1      20.642  46.860  47.392  1.00  0.00     0.045 A 
HETATM   23  C   UNL     1      20.954  45.617  47.924  1.00  0.00     0.118 A 
HETATM   24  C   UNL     1      22.036  45.454  48.780  1.00  0.00     0.074 A 
HETATM   25  F   UNL     1      20.196  44.558  47.606  1.00  0.00    -0.206 F 
BRANCH  20  26
HETATM   26  O   UNL     1      23.326  48.854  49.012  1.00  0.00    -0.344 OA
BRANCH  26  27
HETATM   27  C   UNL     1      23.645  49.916  48.105  1.00  0.00     0.121 C 
HETATM   28  C   UNL     1      25.155  50.134  48.074  1.00  0.00     0.040 C 
HETATM   29  C   UNL     1      22.946  51.167  48.632  1.00  0.00     0.040 C 
ENDBRANCH  26  27
ENDBRANCH  20  26
ENDBRANCH   1  19
TORSDOF 3
ENDMDL
MODEL 7
REMARK VINA RESULT:      -9.1      3.181      8.648
REMARK  3 active torsions:
REMARK  status: ('A' for Active; 'I' for Inactive)
REMARK    1  A    between atoms: C_2  and  O_3 
REMARK    2  A    between atoms: O_3  and  C_4 
REMARK    3  A    between atoms: C_5  and  N_6 
REMARK       I    between atoms: N_6  and  C_7 
REMARK       I    between atoms: C_7  and  N_8 
ROOT
HETATM    1  N   UNL     1      26.833  43.823  51.471  1.00  0.00    -0.306 N 
HETATM    2  C   UNL     1      25.714  43.945  50.684  1.00  0.00     0.323 C 
HETATM    3  N   UNL     1      25.285  45.250  50.459  1.00  0.00    -0.328 N 
HETATM    4  C   UNL     1      23.890  45.370  50.010  1.00  0.00     0.185 C 
HETATM    5  C   UNL     1      23.596  46.751  49.554  1.00  0.00     0.035 A 
HETATM    6  C   UNL     1      24.462  47.820  49.516  1.00  0.00    -0.020 A 
HETATM    7  C   UNL     1      25.870  47.663  49.951  1.00  0.00     0.061 C 
HETATM    8  C   UNL     1      25.987  46.469  50.923  1.00  0.00     0.132 C 
HETATM    9  N   UNL     1      22.378  47.173  49.097  1.00  0.00    -0.357 N 
HETATM   10  H   UNL     1      21.549  46.599  49.011  1.00  0.00     0.166 HD
HETATM   11  C   UNL     1      22.443  48.507  48.759  1.00  0.00     0.043 A 
HETATM   12  C   UNL     1      23.750  48.939  49.008  1.00  0.00    -0.001 A 
HETATM   13  C   UNL     1      21.451  49.355  48.252  1.00  0.00     0.030 A 
HETATM   14  C   UNL     1      21.805  50.680  47.987  1.00  0.00     0.002 A 
HETATM   15  C   UNL     1      23.100  51.138  48.220  1.00  0.00     0.001 A 
HETATM   16  C   UNL     1      24.081  50.279  48.729  1.00  0.00     0.014 A 
HETATM   17  O   UNL     1      25.091  42.984  50.233  1.00  0.00    -0.247 OA
HETATM   18  H   UNL     1      26.977  44.542  52.167  1.00  0.00     0.171 HD
ENDROOT
BRANCH   1  19
HETATM   19  C   UNL     1      27.528  42.622  51.758  1.00  0.00     0.072 A 
HETATM   20  C   UNL     1      27.984  42.433  53.083  1.00  0.00     0.096 A 
HETATM   21  C   UNL     1      28.655  41.254  53.418  1.00  0.00     0.042 A 
HETATM   22  C   UNL     1      28.897  40.284  52.442  1.00  0.00     0.045 A 
HETATM   23  C   UNL     1      28.468  40.495  51.139  1.00  0.00     0.118 A 
HETATM   24  C   UNL     1      27.787  41.653  50.786  1.00  0.00     0.074 A 
HETATM   25  F   UNL     1      28.721  39.565  50.207  1.00  0.00    -0.206 F 
BRANCH  20  26
HETATM   26  O   UNL     1      27.693  43.460  53.950  1.00  0.00    -0.344 OA
BRANCH  26  27
HETATM   27  C   UNL     1      28.633  44.526  54.124  1.00  0.00     0.121 C 
HETATM   28  C   UNL     1      29.667  44.139  55.178  1.00  0.00     0.040 C 
HETATM   29  C   UNL     1      27.835  45.740  54.595  1.00  0.00     0.040 C 
ENDBRANCH  26  27
ENDBRANCH  20  26
ENDBRANCH   1  19
TORSDOF 3
ENDMDL
MODEL 8
REMARK VINA RESULT:      -8.6      3.396      9.026
REMARK  3 active torsions:
REMARK  status: ('A' for Active; 'I' for Inactive)
REMARK    1  A    between atoms: C_2  and  O_3 
REMARK    2  A    between atoms: O_3  and  C_4 
REMARK    3  A    between atoms: C_5  and  N_6 
REMARK       I    between atoms: N_6  and  C_7 
REMARK       I    between atoms: C_7  and  N_8 
ROOT
HETATM    1  N   UNL     1      27.419  43.711  53.543  1.00  0.00    -0.306 N 
HETATM    2  C   UNL     1      27.556  42.806  52.519  1.00  0.00     0.323 C 
HETATM    3  N   UNL     1      26.454  42.695  51.673  1.00  0.00    -0.328 N 
HETATM    4  C   UNL     1      26.415  41.461  50.875  1.00  0.00     0.185 C 
HETATM    5  C   UNL     1      25.362  41.538  49.832  1.00  0.00     0.035 A 
HETATM    6  C   UNL     1      24.511  42.590  49.579  1.00  0.00    -0.020 A 
HETATM    7  C   UNL     1      24.592  43.832  50.385  1.00  0.00     0.061 C 
HETATM    8  C   UNL     1      25.230  43.526  51.757  1.00  0.00     0.132 C 
HETATM    9  N   UNL     1      25.074  40.536  48.947  1.00  0.00    -0.357 N 
HETATM   10  H   UNL     1      25.543  39.642  48.895  1.00  0.00     0.166 HD
HETATM   11  C   UNL     1      24.045  40.927  48.118  1.00  0.00     0.043 A 
HETATM   12  C   UNL     1      23.675  42.223  48.492  1.00  0.00    -0.001 A 
HETATM   13  C   UNL     1      23.421  40.236  47.071  1.00  0.00     0.030 A 
HETATM   14  C   UNL     1      22.396  40.890  46.384  1.00  0.00     0.002 A 
HETATM   15  C   UNL     1      22.010  42.183  46.730  1.00  0.00     0.001 A 
HETATM   16  C   UNL     1      22.640  42.860  47.780  1.00  0.00     0.014 A 
HETATM   17  O   UNL     1      28.551  42.101  52.360  1.00  0.00    -0.247 OA
HETATM   18  H   UNL     1      26.483  43.861  53.892  1.00  0.00     0.171 HD
ENDROOT
BRANCH   1  19
HETATM   19  C   UNL     1      28.426  44.087  54.466  1.00  0.00     0.072 A 
HETATM   20  C   UNL     1      28.224  45.276  55.203  1.00  0.00     0.096 A 
HETATM   21  C   UNL     1      29.180  45.676  56.142  1.00  0.00     0.042 A 
HETATM   22  C   UNL     1      30.339  44.918  56.326  1.00  0.00     0.045 A 
HETATM   23  C   UNL     1      30.538  43.767  55.576  1.00  0.00     0.118 A 
HETATM   24  C   UNL     1      29.595  43.343  54.648  1.00  0.00     0.074 A 
HETATM   25  F   UNL     1      31.661  43.058  55.749  1.00  0.00    -0.206 F 
BRANCH  20  26
HETATM   26  O   UNL     1      27.051  45.938  54.928  1.00  0.00    -0.344 OA
BRANCH  26  27
HETATM   27  C   UNL     1      27.097  47.253  54.363  1.00  0.00     0.121 C 
HETATM   28  C   UNL     1      26.508  48.261  55.348  1.00  0.00     0.040 C 
HETATM   29  C   UNL     1      26.254  47.213  53.091  1.00  0.00     0.040 C 
ENDBRANCH  26  27
ENDBRANCH  20  26
ENDBRANCH   1  19
TORSDOF 3
ENDMDL
MODEL 9
REMARK VINA RESULT:      -8.6      2.916      8.250
REMARK  3 active torsions:
REMARK  status: ('A' for Active; 'I' for Inactive)
REMARK    1  A    between atoms: C_2  and  O_3 
REMARK    2  A    between atoms: O_3  and  C_4 
REMARK    3  A    between atoms: C_5  and  N_6 
REMARK       I    between atoms: N_6  and  C_7 
REMARK       I    between atoms: C_7  and  N_8 
ROOT
HETATM    1  N   UNL     1      26.820  44.940  52.655  1.00  0.00    -0.306 N 
HETATM    2  C   UNL     1      25.619  44.333  52.380  1.00  0.00     0.323 C 
HETATM    3  N   UNL     1      25.597  43.559  51.222  1.00  0.00    -0.328 N 
HETATM    4  C   UNL     1      24.252  43.279  50.697  1.00  0.00     0.185 C 
HETATM    5  C   UNL     1      24.304  42.253  49.627  1.00  0.00     0.035 A 
HETATM    6  C   UNL     1      25.418  41.600  49.148  1.00  0.00    -0.020 A 
HETATM    7  C   UNL     1      26.758  41.885  49.715  1.00  0.00     0.061 C 
HETATM    8  C   UNL     1      26.767  43.290  50.355  1.00  0.00     0.132 C 
HETATM    9  N   UNL     1      23.215  41.798  48.936  1.00  0.00    -0.357 N 
HETATM   10  H   UNL     1      22.260  42.098  49.076  1.00  0.00     0.166 HD
HETATM   11  C   UNL     1      23.609  40.853  48.013  1.00  0.00     0.043 A 
HETATM   12  C   UNL     1      24.994  40.705  48.130  1.00  0.00    -0.001 A 
HETATM   13  C   UNL     1      22.846  40.123  47.092  1.00  0.00     0.030 A 
HETATM   14  C   UNL     1      23.517  39.211  46.274  1.00  0.00     0.002 A 
HETATM   15  C   UNL     1      24.896  39.038  46.372  1.00  0.00     0.001 A 
HETATM   16  C   UNL     1      25.646  39.777  47.295  1.00  0.00     0.014 A 
HETATM   17  O   UNL     1      24.609  44.479  53.066  1.00  0.00    -0.247 OA
HETATM   18  H   UNL     1      27.398  45.180  51.861  1.00  0.00     0.171 HD
ENDROOT
BRANCH   1  19
HETATM   19  C   UNL     1      27.133  45.685  53.819  1.00  0.00     0.072 A 
HETATM   20  C   UNL     1      27.989  45.082  54.768  1.00  0.00     0.096 A 
HETATM   21  C   UNL     1      28.344  45.787  55.922  1.00  0.00     0.042 A 
HETATM   22  C   UNL     1      27.830  47.067  56.145  1.00  0.00     0.045 A 
HETATM   23  C   UNL     1      26.969  47.636  55.218  1.00  0.00     0.118 A 
HETATM   24  C   UNL     1      26.615  46.960  54.058  1.00  0.00     0.074 A 
HETATM   25  F   UNL     1      26.469  48.858  55.451  1.00  0.00    -0.206 F 
BRANCH  20  26
HETATM   26  O   UNL     1      28.422  43.819  54.441  1.00  0.00    -0.344 OA
BRANCH  26  27
HETATM   27  C   UNL     1      29.788  43.615  54.062  1.00  0.00     0.121 C 
HETATM   28  C   UNL     1      29.864  42.610  52.916  1.00  0.00     0.040 C 
HETATM   29  C   UNL     1      30.506  43.062  55.290  1.00  0.00     0.040 C 
ENDBRANCH  26  27
ENDBRANCH  20  26
ENDBRANCH   1  19
TORSDOF 3
ENDMDL
MODEL 10
REMARK VINA RESULT:      -8.5      3.855      8.907
REMARK  3 active torsions:
REMARK  status: ('A' for Active; 'I' for Inactive)
REMARK    1  A    between atoms: C_2  and  O_3 
REMARK    2  A    between atoms: O_3  and  C_4 
REMARK    3  A    between atoms: C_5  and  N_6 
REMARK       I    between atoms: N_6  and  C_7 
REMARK       I    between atoms: C_7  and  N_8 
ROOT
HETATM    1  N   UNL     1      28.251  43.499  53.926  1.00  0.00    -0.306 N 
HETATM    2  C   UNL     1      28.700  42.617  52.972  1.00  0.00     0.323 C 
HETATM    3  N   UNL     1      27.740  42.194  52.056  1.00  0.00    -0.328 N 
HETATM    4  C   UNL     1      28.082  40.959  51.335  1.00  0.00     0.185 C 
HETATM    5  C   UNL     1      27.140  40.720  50.214  1.00  0.00     0.035 A 
HETATM    6  C   UNL     1      26.077  41.509  49.834  1.00  0.00    -0.020 A 
HETATM    7  C   UNL     1      25.773  42.763  50.565  1.00  0.00     0.061 C 
HETATM    8  C   UNL     1      26.344  42.686  51.997  1.00  0.00     0.132 C 
HETATM    9  N   UNL     1      27.192  39.643  49.374  1.00  0.00    -0.357 N 
HETATM   10  H   UNL     1      27.873  38.897  49.413  1.00  0.00     0.166 HD
HETATM   11  C   UNL     1      26.174  39.724  48.448  1.00  0.00     0.043 A 
HETATM   12  C   UNL     1      25.459  40.896  48.712  1.00  0.00    -0.001 A 
HETATM   13  C   UNL     1      25.839  38.853  47.403  1.00  0.00     0.030 A 
HETATM   14  C   UNL     1      24.746  39.194  46.602  1.00  0.00     0.002 A 
HETATM   15  C   UNL     1      24.018  40.359  46.838  1.00  0.00     0.001 A 
HETATM   16  C   UNL     1      24.364  41.218  47.888  1.00  0.00     0.014 A 
HETATM   17  O   UNL     1      29.851  42.184  52.933  1.00  0.00    -0.247 OA
HETATM   18  H   UNL     1      27.281  43.419  54.194  1.00  0.00     0.171 HD
ENDROOT
BRANCH   1  19
HETATM   19  C   UNL     1      29.047  44.157  54.896  1.00  0.00     0.072 A 
HETATM   20  C   UNL     1      28.570  45.387  55.404  1.00  0.00     0.096 A 
HETATM   21  C   UNL     1      29.309  46.062  56.379  1.00  0.00     0.042 A 
HETATM   22  C   UNL     1      30.524  45.537  56.825  1.00  0.00     0.045 A 
HETATM   23  C   UNL     1      30.994  44.342  56.297  1.00  0.00     0.118 A 
HETATM   24  C   UNL     1      30.269  43.646  55.338  1.00  0.00     0.074 A 
HETATM   25  F   UNL     1      32.170  43.856  56.720  1.00  0.00    -0.206 F 
BRANCH  20  26
HETATM   26  O   UNL     1      27.368  45.805  54.883  1.00  0.00    -0.344 OA
BRANCH  26  27
HETATM   27  C   UNL     1      27.245  47.134  54.365  1.00  0.00     0.121 C 
HETATM   28  C   UNL     1      26.539  48.024  55.385  1.00  0.00     0.040 C 
HETATM   29  C   UNL     1      26.408  47.033  53.092  1.00  0.00     0.040 C 
ENDBRANCH  26  27
ENDBRANCH  20  26
ENDBRANCH   1  19
TORSDOF 3
ENDMDL
