MODEL 1
REMARK VINA RESULT:      -9.2      0.000      0.000
REMARK  6 active torsions:
REMARK  status: ('A' for Active; 'I' for Inactive)
REMARK    1  A    between atoms: C_3  and  N_4 
REMARK       I    between atoms: N_4  and  C_5 
REMARK       I    between atoms: C_5  and  N_6 
REMARK    2  A    between atoms: N_6  and  C_7 
REMARK    3  A    between atoms: C_7  and  C_8 
REMARK    4  A    between atoms: C_8  and  C_9 
REMARK    5  A    between atoms: C_21  and  O_22 
REMARK    6  A    between atoms: O_22  and  C_23 
ROOT
HETATM    1  N   UNL     1      26.225  43.560  53.171  1.00  0.00    -0.308 N 
HETATM    2  C   UNL     1      25.569  44.340  52.267  1.00  0.00     0.322 C 
HETATM    3  N   UNL     1      26.270  44.904  51.222  1.00  0.00    -0.338 N 
HETATM    4  C   UNL     1      27.519  44.361  50.692  1.00  0.00     0.154 C 
HETATM    5  O   UNL     1      24.345  44.441  52.366  1.00  0.00    -0.247 OA
HETATM    6  H   UNL     1      25.590  42.935  53.652  1.00  0.00     0.170 HD
ENDROOT
BRANCH   1   7
HETATM    7  C   UNL     1      27.460  43.775  53.821  1.00  0.00     0.042 A 
HETATM    8  C   UNL     1      28.370  42.702  53.923  1.00  0.00    -0.033 A 
HETATM    9  C   UNL     1      28.084  41.355  53.313  1.00  0.00     0.050 C 
HETATM   10  C   UNL     1      29.581  42.889  54.612  1.00  0.00     0.045 A 
HETATM   11  C   UNL     1      29.893  44.128  55.171  1.00  0.00     0.075 A 
HETATM   12  C   UNL     1      28.978  45.173  55.103  1.00  0.00     0.039 A 
HETATM   13  C   UNL     1      27.769  44.999  54.427  1.00  0.00     0.033 A 
BRANCH  11  14
HETATM   14  O   UNL     1      31.040  44.346  55.879  1.00  0.00    -0.290 OA
BRANCH  14  15
HETATM   15  C   UNL     1      31.169  43.449  56.975  1.00  0.00     0.505 C 
HETATM   16  F   UNL     1      32.424  42.934  56.987  1.00  0.00    -0.184 F 
HETATM   17  F   UNL     1      31.039  44.180  58.112  1.00  0.00    -0.184 F 
ENDBRANCH  14  15
ENDBRANCH  11  14
ENDBRANCH   1   7
BRANCH   3  18
HETATM   18  C   UNL     1      25.545  45.808  50.324  1.00  0.00     0.132 C 
BRANCH  18  19
HETATM   19  C   UNL     1      25.594  47.275  50.782  1.00  0.00     0.062 C 
BRANCH  19  20
HETATM   20  C   UNL     1      25.457  48.242  49.650  1.00  0.00    -0.007 A 
HETATM   21  C   UNL     1      24.260  48.646  48.992  1.00  0.00     0.059 A 
HETATM   22  C   UNL     1      22.864  48.227  49.276  1.00  0.00     0.073 C 
HETATM   23  N   UNL     1      24.502  49.529  48.018  1.00  0.00    -0.179 NA
HETATM   24  N   UNL     1      25.829  49.704  48.056  1.00  0.00    -0.282 N 
HETATM   25  H   UNL     1      26.244  50.354  47.396  1.00  0.00     0.189 HD
HETATM   26  C   UNL     1      26.456  48.957  49.013  1.00  0.00     0.032 A 
HETATM   27  C   UNL     1      27.921  49.007  49.220  1.00  0.00     0.070 C 
ENDBRANCH  19  20
ENDBRANCH  18  19
ENDBRANCH   3  18
TORSDOF 6
ENDMDL
MODEL 2
REMARK VINA RESULT:      -9.1      0.102      1.625
REMARK  6 active torsions:
REMARK  status: ('A' for Active; 'I' for Inactive)
REMARK    1  A    between atoms: C_3  and  N_4 
REMARK       I    between atoms: N_4  and  C_5 
REMARK       I    between atoms: C_5  and  N_6 
REMARK    2  A    between atoms: N_6  and  C_7 
REMARK    3  A    between atoms: C_7  and  C_8 
REMARK    4  A    between atoms: C_8  and  C_9 
REMARK    5  A    between atoms: C_21  and  O_22 
REMARK    6  A    between atoms: O_22  and  C_23 
ROOT
HETATM    1  N   UNL     1      26.315  43.504  53.165  1.00  0.00    -0.308 N 
HETATM    2  C   UNL     1      25.645  44.285  52.273  1.00  0.00     0.322 C 
HETATM    3  N   UNL     1      26.339  44.893  51.247  1.00  0.00    -0.338 N 
HETATM    4  C   UNL     1      27.606  44.397  50.717  1.00  0.00     0.154 C 
HETATM    5  O   UNL     1      24.417  44.350  52.363  1.00  0.00    -0.247 OA
HETATM    6  H   UNL     1      25.693  42.850  53.626  1.00  0.00     0.170 HD
ENDROOT
BRANCH   1   7
HETATM    7  C   UNL     1      27.537  43.739  53.832  1.00  0.00     0.042 A 
HETATM    8  C   UNL     1      28.483  42.695  53.904  1.00  0.00    -0.033 A 
HETATM    9  C   UNL     1      28.246  41.360  53.248  1.00  0.00     0.050 C 
HETATM   10  C   UNL     1      29.682  42.899  54.609  1.00  0.00     0.045 A 
HETATM   11  C   UNL     1      29.948  44.128  55.211  1.00  0.00     0.075 A 
HETATM   12  C   UNL     1      28.998  45.144  55.171  1.00  0.00     0.039 A 
HETATM   13  C   UNL     1      27.800  44.952  54.480  1.00  0.00     0.033 A 
BRANCH  11  14
HETATM   14  O   UNL     1      31.083  44.361  55.935  1.00  0.00    -0.290 OA
BRANCH  14  15
HETATM   15  C   UNL     1      31.181  43.502  57.064  1.00  0.00     0.505 C 
HETATM   16  F   UNL     1      32.373  42.856  57.031  1.00  0.00    -0.184 F 
HETATM   17  F   UNL     1      31.197  44.290  58.169  1.00  0.00    -0.184 F 
ENDBRANCH  14  15
ENDBRANCH  11  14
ENDBRANCH   1   7
BRANCH   3  18
HETATM   18  C   UNL     1      25.596  45.796  50.363  1.00  0.00     0.132 C 
BRANCH  18  19
HETATM   19  C   UNL     1      25.651  47.263  50.821  1.00  0.00     0.062 C 
BRANCH  19  20
HETATM   20  C   UNL     1      25.458  48.229  49.697  1.00  0.00    -0.007 A 
HETATM   21  C   UNL     1      26.462  48.964  49.002  1.00  0.00     0.059 A 
HETATM   22  C   UNL     1      27.931  48.941  49.206  1.00  0.00     0.073 C 
HETATM   23  N   UNL     1      25.937  49.740  48.047  1.00  0.00    -0.179 NA
HETATM   24  N   UNL     1      24.621  49.499  48.114  1.00  0.00    -0.282 N 
HETATM   25  H   UNL     1      24.013  49.982  47.461  1.00  0.00     0.189 HD
HETATM   26  C   UNL     1      24.275  48.602  49.085  1.00  0.00     0.032 A 
HETATM   27  C   UNL     1      22.870  48.198  49.321  1.00  0.00     0.070 C 
ENDBRANCH  19  20
ENDBRANCH  18  19
ENDBRANCH   3  18
TORSDOF 6
ENDMDL
MODEL 3
REMARK VINA RESULT:      -8.1      2.057      3.142
REMARK  6 active torsions:
REMARK  status: ('A' for Active; 'I' for Inactive)
REMARK    1  A    between atoms: C_3  and  N_4 
REMARK       I    between atoms: N_4  and  C_5 
REMARK       I    between atoms: C_5  and  N_6 
REMARK    2  A    between atoms: N_6  and  C_7 
REMARK    3  A    between atoms: C_7  and  C_8 
REMARK    4  A    between atoms: C_8  and  C_9 
REMARK    5  A    between atoms: C_21  and  O_22 
REMARK    6  A    between atoms: O_22  and  C_23 
ROOT
HETATM    1  N   UNL     1      26.179  43.520  53.358  1.00  0.00    -0.308 N 
HETATM    2  C   UNL     1      25.576  44.361  52.473  1.00  0.00     0.322 C 
HETATM    3  N   UNL     1      26.298  44.858  51.408  1.00  0.00    -0.338 N 
HETATM    4  C   UNL     1      27.473  44.199  50.844  1.00  0.00     0.154 C 
HETATM    5  O   UNL     1      24.370  44.581  52.607  1.00  0.00    -0.247 OA
HETATM    6  H   UNL     1      25.500  42.958  53.857  1.00  0.00     0.170 HD
ENDROOT
BRANCH   1   7
HETATM    7  C   UNL     1      27.446  43.613  53.973  1.00  0.00     0.042 A 
HETATM    8  C   UNL     1      27.798  44.815  54.623  1.00  0.00    -0.033 A 
HETATM    9  C   UNL     1      26.843  45.975  54.722  1.00  0.00     0.050 C 
HETATM   10  C   UNL     1      29.076  44.940  55.195  1.00  0.00     0.045 A 
HETATM   11  C   UNL     1      29.981  43.880  55.144  1.00  0.00     0.075 A 
HETATM   12  C   UNL     1      29.646  42.710  54.470  1.00  0.00     0.039 A 
HETATM   13  C   UNL     1      28.382  42.576  53.892  1.00  0.00     0.033 A 
BRANCH  11  14
HETATM   14  O   UNL     1      31.244  43.968  55.655  1.00  0.00    -0.290 OA
BRANCH  14  15
HETATM   15  C   UNL     1      31.310  43.504  56.997  1.00  0.00     0.505 C 
HETATM   16  F   UNL     1      32.513  42.913  57.208  1.00  0.00    -0.184 F 
HETATM   17  F   UNL     1      31.267  44.595  57.803  1.00  0.00    -0.184 F 
ENDBRANCH  14  15
ENDBRANCH  11  14
ENDBRANCH   1   7
BRANCH   3  18
HETATM   18  C   UNL     1      25.639  45.829  50.530  1.00  0.00     0.132 C 
BRANCH  18  19
HETATM   19  C   UNL     1      25.127  45.205  49.221  1.00  0.00     0.062 C 
BRANCH  19  20
HETATM   20  C   UNL     1      23.635  45.148  49.150  1.00  0.00    -0.007 A 
HETATM   21  C   UNL     1      22.795  44.027  49.412  1.00  0.00     0.059 A 
HETATM   22  C   UNL     1      23.186  42.659  49.832  1.00  0.00     0.073 C 
HETATM   23  N   UNL     1      21.502  44.329  49.253  1.00  0.00    -0.179 NA
HETATM   24  N   UNL     1      21.506  45.623  48.911  1.00  0.00    -0.282 N 
HETATM   25  H   UNL     1      20.613  46.077  48.747  1.00  0.00     0.189 HD
HETATM   26  C   UNL     1      22.756  46.168  48.833  1.00  0.00     0.032 A 
HETATM   27  C   UNL     1      22.978  47.587  48.471  1.00  0.00     0.070 C 
ENDBRANCH  19  20
ENDBRANCH  18  19
ENDBRANCH   3  18
TORSDOF 6
ENDMDL
MODEL 4
REMARK VINA RESULT:      -7.8     12.307     13.854
REMARK  6 active torsions:
REMARK  status: ('A' for Active; 'I' for Inactive)
REMARK    1  A    between atoms: C_3  and  N_4 
REMARK       I    between atoms: N_4  and  C_5 
REMARK       I    between atoms: C_5  and  N_6 
REMARK    2  A    between atoms: N_6  and  C_7 
REMARK    3  A    between atoms: C_7  and  C_8 
REMARK    4  A    between atoms: C_8  and  C_9 
REMARK    5  A    between atoms: C_21  and  O_22 
REMARK    6  A    between atoms: O_22  and  C_23 
ROOT
HETATM    1  N   UNL     1      32.430  49.140  40.172  1.00  0.00    -0.308 N 
HETATM    2  C   UNL     1      31.394  49.440  39.340  1.00  0.00     0.322 C 
HETATM    3  N   UNL     1      31.371  50.660  38.697  1.00  0.00    -0.338 N 
HETATM    4  C   UNL     1      32.564  51.454  38.416  1.00  0.00     0.154 C 
HETATM    5  O   UNL     1      30.552  48.567  39.121  1.00  0.00    -0.247 OA
HETATM    6  H   UNL     1      32.531  48.139  40.294  1.00  0.00     0.170 HD
ENDROOT
BRANCH   1   7
HETATM    7  C   UNL     1      33.045  49.928  41.169  1.00  0.00     0.042 A 
HETATM    8  C   UNL     1      32.327  50.213  42.349  1.00  0.00    -0.033 A 
HETATM    9  C   UNL     1      30.949  49.657  42.595  1.00  0.00     0.050 C 
HETATM   10  C   UNL     1      32.907  51.039  43.327  1.00  0.00     0.045 A 
HETATM   11  C   UNL     1      34.191  51.555  43.146  1.00  0.00     0.075 A 
HETATM   12  C   UNL     1      34.882  51.305  41.966  1.00  0.00     0.039 A 
HETATM   13  C   UNL     1      34.314  50.491  40.983  1.00  0.00     0.033 A 
BRANCH  11  14
HETATM   14  O   UNL     1      34.781  52.389  44.052  1.00  0.00    -0.290 OA
BRANCH  14  15
HETATM   15  C   UNL     1      36.195  52.427  43.900  1.00  0.00     0.505 C 
HETATM   16  F   UNL     1      36.577  53.691  43.590  1.00  0.00    -0.184 F 
HETATM   17  F   UNL     1      36.738  52.143  45.112  1.00  0.00    -0.184 F 
ENDBRANCH  14  15
ENDBRANCH  11  14
ENDBRANCH   1   7
BRANCH   3  18
HETATM   18  C   UNL     1      30.195  50.979  37.882  1.00  0.00     0.132 C 
BRANCH  18  19
HETATM   19  C   UNL     1      29.465  52.248  38.352  1.00  0.00     0.062 C 
BRANCH  19  20
HETATM   20  C   UNL     1      29.104  52.207  39.802  1.00  0.00    -0.007 A 
HETATM   21  C   UNL     1      28.060  51.456  40.415  1.00  0.00     0.059 A 
HETATM   22  C   UNL     1      27.094  50.526  39.779  1.00  0.00     0.073 C 
HETATM   23  N   UNL     1      28.017  51.653  41.737  1.00  0.00    -0.179 NA
HETATM   24  N   UNL     1      29.024  52.503  41.975  1.00  0.00    -0.282 N 
HETATM   25  H   UNL     1      29.190  52.791  42.934  1.00  0.00     0.189 HD
HETATM   26  C   UNL     1      29.711  52.871  40.852  1.00  0.00     0.032 A 
HETATM   27  C   UNL     1      30.861  53.802  40.900  1.00  0.00     0.070 C 
ENDBRANCH  19  20
ENDBRANCH  18  19
ENDBRANCH   3  18
TORSDOF 6
ENDMDL
MODEL 5
REMARK VINA RESULT:      -7.6      4.716      8.394
REMARK  6 active torsions:
REMARK  status: ('A' for Active; 'I' for Inactive)
REMARK    1  A    between atoms: C_3  and  N_4 
REMARK       I    between atoms: N_4  and  C_5 
REMARK       I    between atoms: C_5  and  N_6 
REMARK    2  A    between atoms: N_6  and  C_7 
REMARK    3  A    between atoms: C_7  and  C_8 
REMARK    4  A    between atoms: C_8  and  C_9 
REMARK    5  A    between atoms: C_21  and  O_22 
REMARK    6  A    between atoms: O_22  and  C_23 
ROOT
HETATM    1  N   UNL     1      25.723  44.930  49.485  1.00  0.00    -0.308 N 
HETATM    2  C   UNL     1      26.625  44.339  50.317  1.00  0.00     0.322 C 
HETATM    3  N   UNL     1      26.571  44.598  51.671  1.00  0.00    -0.338 N 
HETATM    4  C   UNL     1      25.363  45.030  52.369  1.00  0.00     0.154 C 
HETATM    5  O   UNL     1      27.408  43.518  49.837  1.00  0.00    -0.247 OA
HETATM    6  H   UNL     1      25.625  44.416  48.618  1.00  0.00     0.170 HD
ENDROOT
BRANCH   1   7
HETATM    7  C   UNL     1      25.281  46.271  49.438  1.00  0.00     0.042 A 
HETATM    8  C   UNL     1      23.910  46.526  49.223  1.00  0.00    -0.033 A 
HETATM    9  C   UNL     1      22.904  45.413  49.095  1.00  0.00     0.050 C 
HETATM   10  C   UNL     1      23.464  47.856  49.123  1.00  0.00     0.045 A 
HETATM   11  C   UNL     1      24.362  48.914  49.259  1.00  0.00     0.075 A 
HETATM   12  C   UNL     1      25.718  48.660  49.432  1.00  0.00     0.039 A 
HETATM   13  C   UNL     1      26.175  47.344  49.526  1.00  0.00     0.033 A 
BRANCH  11  14
HETATM   14  O   UNL     1      23.981  50.220  49.134  1.00  0.00    -0.290 OA
BRANCH  14  15
HETATM   15  C   UNL     1      22.573  50.379  49.258  1.00  0.00     0.505 C 
HETATM   16  F   UNL     1      22.295  51.010  50.426  1.00  0.00    -0.184 F 
HETATM   17  F   UNL     1      22.173  51.211  48.262  1.00  0.00    -0.184 F 
ENDBRANCH  14  15
ENDBRANCH  11  14
ENDBRANCH   1   7
BRANCH   3  18
HETATM   18  C   UNL     1      27.613  44.013  52.519  1.00  0.00     0.132 C 
BRANCH  18  19
HETATM   19  C   UNL     1      27.306  44.139  54.021  1.00  0.00     0.062 C 
BRANCH  19  20
HETATM   20  C   UNL     1      28.424  44.763  54.792  1.00  0.00    -0.007 A 
HETATM   21  C   UNL     1      28.480  46.082  55.327  1.00  0.00     0.059 A 
HETATM   22  C   UNL     1      27.448  47.147  55.267  1.00  0.00     0.073 C 
HETATM   23  N   UNL     1      29.633  46.311  55.963  1.00  0.00    -0.179 NA
HETATM   24  N   UNL     1      30.302  45.156  55.857  1.00  0.00    -0.282 N 
HETATM   25  H   UNL     1      31.220  45.094  56.285  1.00  0.00     0.189 HD
HETATM   26  C   UNL     1      29.627  44.191  55.164  1.00  0.00     0.032 A 
HETATM   27  C   UNL     1      30.193  42.842  54.935  1.00  0.00     0.070 C 
ENDBRANCH  19  20
ENDBRANCH  18  19
ENDBRANCH   3  18
TORSDOF 6
ENDMDL
MODEL 6
REMARK VINA RESULT:      -7.5     12.311     14.163
REMARK  6 active torsions:
REMARK  status: ('A' for Active; 'I' for Inactive)
REMARK    1  A    between atoms: C_3  and  N_4 
REMARK       I    between atoms: N_4  and  C_5 
REMARK       I    between atoms: C_5  and  N_6 
REMARK    2  A    between atoms: N_6  and  C_7 
REMARK    3  A    between atoms: C_7  and  C_8 
REMARK    4  A    between atoms: C_8  and  C_9 
REMARK    5  A    between atoms: C_21  and  O_22 
REMARK    6  A    between atoms: O_22  and  C_23 
ROOT
HETATM    1  N   UNL     1      30.630  52.488  42.496  1.00  0.00    -0.308 N 
HETATM    2  C   UNL     1      29.448  52.211  41.878  1.00  0.00     0.322 C 
HETATM    3  N   UNL     1      29.150  50.908  41.535  1.00  0.00    -0.338 N 
HETATM    4  C   UNL     1      29.723  49.741  42.200  1.00  0.00     0.154 C 
HETATM    5  O   UNL     1      28.641  53.130  41.726  1.00  0.00    -0.247 OA
HETATM    6  H   UNL     1      30.587  53.363  43.004  1.00  0.00     0.170 HD
ENDROOT
BRANCH   1   7
HETATM    7  C   UNL     1      31.933  52.033  42.199  1.00  0.00     0.042 A 
HETATM    8  C   UNL     1      32.808  51.736  43.265  1.00  0.00    -0.033 A 
HETATM    9  C   UNL     1      32.374  51.841  44.703  1.00  0.00     0.050 C 
HETATM   10  C   UNL     1      34.125  51.331  42.984  1.00  0.00     0.045 A 
HETATM   11  C   UNL     1      34.557  51.199  41.664  1.00  0.00     0.075 A 
HETATM   12  C   UNL     1      33.705  51.529  40.615  1.00  0.00     0.039 A 
HETATM   13  C   UNL     1      32.397  51.939  40.882  1.00  0.00     0.033 A 
BRANCH  11  14
HETATM   14  O   UNL     1      35.835  50.843  41.343  1.00  0.00    -0.290 OA
BRANCH  14  15
HETATM   15  C   UNL     1      36.757  51.180  42.372  1.00  0.00     0.505 C 
HETATM   16  F   UNL     1      37.267  50.042  42.906  1.00  0.00    -0.184 F 
HETATM   17  F   UNL     1      37.795  51.831  41.786  1.00  0.00    -0.184 F 
ENDBRANCH  14  15
ENDBRANCH  11  14
ENDBRANCH   1   7
BRANCH   3  18
HETATM   18  C   UNL     1      27.910  50.665  40.793  1.00  0.00     0.132 C 
BRANCH  18  19
HETATM   19  C   UNL     1      28.148  49.987  39.432  1.00  0.00     0.062 C 
BRANCH  19  20
HETATM   20  C   UNL     1      29.368  50.498  38.735  1.00  0.00    -0.007 A 
HETATM   21  C   UNL     1      30.599  49.813  38.526  1.00  0.00     0.059 A 
HETATM   22  C   UNL     1      30.968  48.432  38.926  1.00  0.00     0.073 C 
HETATM   23  N   UNL     1      31.481  50.568  37.862  1.00  0.00    -0.179 NA
HETATM   24  N   UNL     1      30.826  51.713  37.633  1.00  0.00    -0.282 N 
HETATM   25  H   UNL     1      31.308  52.446  37.124  1.00  0.00     0.189 HD
HETATM   26  C   UNL     1      29.555  51.730  38.135  1.00  0.00     0.032 A 
HETATM   27  C   UNL     1      28.664  52.903  37.987  1.00  0.00     0.070 C 
ENDBRANCH  19  20
ENDBRANCH  18  19
ENDBRANCH   3  18
TORSDOF 6
ENDMDL
MODEL 7
REMARK VINA RESULT:      -7.4      2.024      2.709
REMARK  6 active torsions:
REMARK  status: ('A' for Active; 'I' for Inactive)
REMARK    1  A    between atoms: C_3  and  N_4 
REMARK       I    between atoms: N_4  and  C_5 
REMARK       I    between atoms: C_5  and  N_6 
REMARK    2  A    between atoms: N_6  and  C_7 
REMARK    3  A    between atoms: C_7  and  C_8 
REMARK    4  A    between atoms: C_8  and  C_9 
REMARK    5  A    between atoms: C_21  and  O_22 
REMARK    6  A    between atoms: O_22  and  C_23 
ROOT
HETATM    1  N   UNL     1      25.903  43.314  52.112  1.00  0.00    -0.308 N 
HETATM    2  C   UNL     1      25.162  44.388  51.723  1.00  0.00     0.322 C 
HETATM    3  N   UNL     1      25.771  45.423  51.043  1.00  0.00    -0.338 N 
HETATM    4  C   UNL     1      26.995  45.273  50.261  1.00  0.00     0.154 C 
HETATM    5  O   UNL     1      23.945  44.357  51.917  1.00  0.00    -0.247 OA
HETATM    6  H   UNL     1      25.323  42.498  52.265  1.00  0.00     0.170 HD
ENDROOT
BRANCH   1   7
HETATM    7  C   UNL     1      27.173  43.268  52.728  1.00  0.00     0.042 A 
HETATM    8  C   UNL     1      28.127  42.345  52.249  1.00  0.00    -0.033 A 
HETATM    9  C   UNL     1      27.846  41.449  51.072  1.00  0.00     0.050 C 
HETATM   10  C   UNL     1      29.377  42.253  52.886  1.00  0.00     0.045 A 
HETATM   11  C   UNL     1      29.683  43.082  53.965  1.00  0.00     0.075 A 
HETATM   12  C   UNL     1      28.728  43.964  54.459  1.00  0.00     0.039 A 
HETATM   13  C   UNL     1      27.480  44.060  53.840  1.00  0.00     0.033 A 
BRANCH  11  14
HETATM   14  O   UNL     1      30.870  43.005  54.636  1.00  0.00    -0.290 OA
BRANCH  14  15
HETATM   15  C   UNL     1      30.798  43.613  55.920  1.00  0.00     0.505 C 
HETATM   16  F   UNL     1      31.291  42.756  56.849  1.00  0.00    -0.184 F 
HETATM   17  F   UNL     1      31.627  44.687  55.904  1.00  0.00    -0.184 F 
ENDBRANCH  14  15
ENDBRANCH  11  14
ENDBRANCH   1   7
BRANCH   3  18
HETATM   18  C   UNL     1      24.957  46.599  50.722  1.00  0.00     0.132 C 
BRANCH  18  19
HETATM   19  C   UNL     1      24.613  46.700  49.226  1.00  0.00     0.062 C 
BRANCH  19  20
HETATM   20  C   UNL     1      23.142  46.661  48.965  1.00  0.00    -0.007 A 
HETATM   21  C   UNL     1      22.339  45.517  48.688  1.00  0.00     0.059 A 
HETATM   22  C   UNL     1      22.754  44.095  48.609  1.00  0.00     0.073 C 
HETATM   23  N   UNL     1      21.055  45.845  48.504  1.00  0.00    -0.179 NA
HETATM   24  N   UNL     1      21.027  47.173  48.675  1.00  0.00    -0.282 N 
HETATM   25  H   UNL     1      20.134  47.647  48.590  1.00  0.00     0.189 HD
HETATM   26  C   UNL     1      22.249  47.718  48.952  1.00  0.00     0.032 A 
HETATM   27  C   UNL     1      22.433  49.170  49.176  1.00  0.00     0.070 C 
ENDBRANCH  19  20
ENDBRANCH  18  19
ENDBRANCH   3  18
TORSDOF 6
ENDMDL
MODEL 8
REMARK VINA RESULT:      -7.4     12.147     13.943
REMARK  6 active torsions:
REMARK  status: ('A' for Active; 'I' for Inactive)
REMARK    1  A    between atoms: C_3  and  N_4 
REMARK       I    between atoms: N_4  and  C_5 
REMARK       I    between atoms: C_5  and  N_6 
REMARK    2  A    between atoms: N_6  and  C_7 
REMARK    3  A    between atoms: C_7  and  C_8 
REMARK    4  A    between atoms: C_8  and  C_9 
REMARK    5  A    between atoms: C_21  and  O_22 
REMARK    6  A    between atoms: O_22  and  C_23 
ROOT
HETATM    1  N   UNL     1      28.912  52.099  38.992  1.00  0.00    -0.308 N 
HETATM    2  C   UNL     1      27.956  51.146  38.811  1.00  0.00     0.322 C 
HETATM    3  N   UNL     1      27.339  50.585  39.910  1.00  0.00    -0.338 N 
HETATM    4  C   UNL     1      27.235  51.245  41.209  1.00  0.00     0.154 C 
HETATM    5  O   UNL     1      27.610  50.881  37.658  1.00  0.00    -0.247 OA
HETATM    6  H   UNL     1      29.027  52.672  38.165  1.00  0.00     0.170 HD
ENDROOT
BRANCH   1   7
HETATM    7  C   UNL     1      29.997  52.129  39.896  1.00  0.00     0.042 A 
HETATM    8  C   UNL     1      31.078  51.248  39.688  1.00  0.00    -0.033 A 
HETATM    9  C   UNL     1      31.130  50.317  38.505  1.00  0.00     0.050 C 
HETATM   10  C   UNL     1      32.141  51.231  40.608  1.00  0.00     0.045 A 
HETATM   11  C   UNL     1      32.140  52.094  41.704  1.00  0.00     0.075 A 
HETATM   12  C   UNL     1      31.056  52.935  41.928  1.00  0.00     0.039 A 
HETATM   13  C   UNL     1      29.991  52.956  41.026  1.00  0.00     0.033 A 
BRANCH  11  14
HETATM   14  O   UNL     1      33.133  52.089  42.643  1.00  0.00    -0.290 OA
BRANCH  14  15
HETATM   15  C   UNL     1      32.643  51.755  43.935  1.00  0.00     0.505 C 
HETATM   16  F   UNL     1      32.209  50.470  43.931  1.00  0.00    -0.184 F 
HETATM   17  F   UNL     1      33.696  51.806  44.791  1.00  0.00    -0.184 F 
ENDBRANCH  14  15
ENDBRANCH  11  14
ENDBRANCH   1   7
BRANCH   3  18
HETATM   18  C   UNL     1      26.381  49.501  39.675  1.00  0.00     0.132 C 
BRANCH  18  19
HETATM   19  C   UNL     1      26.757  48.199  40.403  1.00  0.00     0.062 C 
BRANCH  19  20
HETATM   20  C   UNL     1      28.134  47.724  40.067  1.00  0.00    -0.007 A 
HETATM   21  C   UNL     1      28.549  47.015  38.902  1.00  0.00     0.059 A 
HETATM   22  C   UNL     1      27.730  46.593  37.739  1.00  0.00     0.073 C 
HETATM   23  N   UNL     1      29.858  46.746  38.925  1.00  0.00    -0.179 NA
HETATM   24  N   UNL     1      30.285  47.284  40.075  1.00  0.00    -0.282 N 
HETATM   25  H   UNL     1      31.271  47.208  40.302  1.00  0.00     0.189 HD
HETATM   26  C   UNL     1      29.295  47.884  40.802  1.00  0.00     0.032 A 
HETATM   27  C   UNL     1      29.559  48.539  42.103  1.00  0.00     0.070 C 
ENDBRANCH  19  20
ENDBRANCH  18  19
ENDBRANCH   3  18
TORSDOF 6
ENDMDL
MODEL 9
REMARK VINA RESULT:      -7.4      7.794     10.750
REMARK  6 active torsions:
REMARK  status: ('A' for Active; 'I' for Inactive)
REMARK    1  A    between atoms: C_3  and  N_4 
REMARK       I    between atoms: N_4  and  C_5 
REMARK       I    between atoms: C_5  and  N_6 
REMARK    2  A    between atoms: N_6  and  C_7 
REMARK    3  A    between atoms: C_7  and  C_8 
REMARK    4  A    between atoms: C_8  and  C_9 
REMARK    5  A    between atoms: C_21  and  O_22 
REMARK    6  A    between atoms: O_22  and  C_23 
ROOT
HETATM    1  N   UNL     1      20.053  49.043  49.899  1.00  0.00    -0.308 N 
HETATM    2  C   UNL     1      19.012  49.861  50.215  1.00  0.00     0.322 C 
HETATM    3  N   UNL     1      18.572  50.788  49.292  1.00  0.00    -0.338 N 
HETATM    4  C   UNL     1      18.762  50.654  47.851  1.00  0.00     0.154 C 
HETATM    5  O   UNL     1      18.437  49.683  51.290  1.00  0.00    -0.247 OA
HETATM    6  H   UNL     1      20.054  48.205  50.468  1.00  0.00     0.170 HD
ENDROOT
BRANCH   1   7
HETATM    7  C   UNL     1      21.288  49.348  49.284  1.00  0.00     0.042 A 
HETATM    8  C   UNL     1      21.866  48.400  48.415  1.00  0.00    -0.033 A 
HETATM    9  C   UNL     1      21.181  47.100  48.086  1.00  0.00     0.050 C 
HETATM   10  C   UNL     1      23.119  48.670  47.836  1.00  0.00     0.045 A 
HETATM   11  C   UNL     1      23.775  49.872  48.098  1.00  0.00     0.075 A 
HETATM   12  C   UNL     1      23.221  50.789  48.985  1.00  0.00     0.039 A 
HETATM   13  C   UNL     1      21.980  50.530  49.572  1.00  0.00     0.033 A 
BRANCH  11  14
HETATM   14  O   UNL     1      25.007  50.163  47.587  1.00  0.00    -0.290 OA
BRANCH  14  15
HETATM   15  C   UNL     1      26.045  49.932  48.533  1.00  0.00     0.505 C 
HETATM   16  F   UNL     1      26.373  48.616  48.524  1.00  0.00    -0.184 F 
HETATM   17  F   UNL     1      27.140  50.608  48.101  1.00  0.00    -0.184 F 
ENDBRANCH  14  15
ENDBRANCH  11  14
ENDBRANCH   1   7
BRANCH   3  18
HETATM   18  C   UNL     1      17.508  51.708  49.705  1.00  0.00     0.132 C 
BRANCH  18  19
HETATM   19  C   UNL     1      16.129  51.322  49.143  1.00  0.00     0.062 C 
BRANCH  19  20
HETATM   20  C   UNL     1      15.381  52.490  48.587  1.00  0.00    -0.007 A 
HETATM   21  C   UNL     1      14.591  53.435  49.302  1.00  0.00     0.059 A 
HETATM   22  C   UNL     1      14.330  53.505  50.762  1.00  0.00     0.073 C 
HETATM   23  N   UNL     1      14.061  54.356  48.489  1.00  0.00    -0.179 NA
HETATM   24  N   UNL     1      14.514  54.021  47.274  1.00  0.00    -0.282 N 
HETATM   25  H   UNL     1      14.242  54.600  46.487  1.00  0.00     0.189 HD
HETATM   26  C   UNL     1      15.310  52.910  47.271  1.00  0.00     0.032 A 
HETATM   27  C   UNL     1      15.912  52.375  46.029  1.00  0.00     0.070 C 
ENDBRANCH  19  20
ENDBRANCH  18  19
ENDBRANCH   3  18
TORSDOF 6
ENDMDL
MODEL 10
REMARK VINA RESULT:      -7.2     12.409     14.669
REMARK  6 active torsions:
REMARK  status: ('A' for Active; 'I' for Inactive)
REMARK    1  A    between atoms: C_3  and  N_4 
REMARK       I    between atoms: N_4  and  C_5 
REMARK       I    between atoms: C_5  and  N_6 
REMARK    2  A    between atoms: N_6  and  C_7 
REMARK    3  A    between atoms: C_7  and  C_8 
REMARK    4  A    between atoms: C_8  and  C_9 
REMARK    5  A    between atoms: C_21  and  O_22 
REMARK    6  A    between atoms: O_22  and  C_23 
ROOT
HETATM    1  N   UNL     1      29.998  52.731  40.236  1.00  0.00    -0.308 N 
HETATM    2  C   UNL     1      31.353  52.743  40.364  1.00  0.00     0.322 C 
HETATM    3  N   UNL     1      32.104  51.771  39.735  1.00  0.00    -0.338 N 
HETATM    4  C   UNL     1      31.659  51.038  38.553  1.00  0.00     0.154 C 
HETATM    5  O   UNL     1      31.872  53.683  40.970  1.00  0.00    -0.247 OA
HETATM    6  H   UNL     1      29.599  53.643  40.418  1.00  0.00     0.170 HD
ENDROOT
BRANCH   1   7
HETATM    7  C   UNL     1      29.091  51.652  40.332  1.00  0.00     0.042 A 
HETATM    8  C   UNL     1      28.175  51.438  39.281  1.00  0.00    -0.033 A 
HETATM    9  C   UNL     1      28.174  52.293  38.041  1.00  0.00     0.050 C 
HETATM   10  C   UNL     1      27.234  50.400  39.387  1.00  0.00     0.045 A 
HETATM   11  C   UNL     1      27.218  49.572  40.510  1.00  0.00     0.075 A 
HETATM   12  C   UNL     1      28.097  49.808  41.562  1.00  0.00     0.039 A 
HETATM   13  C   UNL     1      29.032  50.841  41.472  1.00  0.00     0.033 A 
BRANCH  11  14
HETATM   14  O   UNL     1      26.301  48.574  40.673  1.00  0.00    -0.290 OA
BRANCH  14  15
HETATM   15  C   UNL     1      26.834  47.299  40.336  1.00  0.00     0.505 C 
HETATM   16  F   UNL     1      27.122  46.619  41.474  1.00  0.00    -0.184 F 
HETATM   17  F   UNL     1      25.851  46.604  39.708  1.00  0.00    -0.184 F 
ENDBRANCH  14  15
ENDBRANCH  11  14
ENDBRANCH   1   7
BRANCH   3  18
HETATM   18  C   UNL     1      33.551  51.768  39.971  1.00  0.00     0.132 C 
BRANCH  18  19
HETATM   19  C   UNL     1      34.035  50.510  40.712  1.00  0.00     0.062 C 
BRANCH  19  20
HETATM   20  C   UNL     1      33.049  50.013  41.719  1.00  0.00    -0.007 A 
HETATM   21  C   UNL     1      32.741  50.584  42.988  1.00  0.00     0.059 A 
HETATM   22  C   UNL     1      33.303  51.809  43.610  1.00  0.00     0.073 C 
HETATM   23  N   UNL     1      31.806  49.881  43.635  1.00  0.00    -0.179 NA
HETATM   24  N   UNL     1      31.504  48.883  42.794  1.00  0.00    -0.282 N 
HETATM   25  H   UNL     1      30.795  48.216  43.079  1.00  0.00     0.189 HD
HETATM   26  C   UNL     1      32.218  48.911  41.629  1.00  0.00     0.032 A 
HETATM   27  C   UNL     1      32.033  47.897  40.566  1.00  0.00     0.070 C 
ENDBRANCH  19  20
ENDBRANCH  18  19
ENDBRANCH   3  18
TORSDOF 6
ENDMDL
