MODEL 1
REMARK VINA RESULT:      -9.6      0.000      0.000
REMARK  5 active torsions:
REMARK  status: ('A' for Active; 'I' for Inactive)
REMARK    1  A    between atoms: C_2  and  C_3 
REMARK    2  A    between atoms: C_7  and  C_8 
REMARK    3  A    between atoms: C_8  and  N_9 
REMARK       I    between atoms: N_9  and  C_10 
REMARK       I    between atoms: C_10  and  N_11 
REMARK    4  A    between atoms: N_11  and  C_12 
REMARK    5  A    between atoms: N_18  and  C_19 
ROOT
HETATM    1  N   UNL     1      24.809  44.593  50.307  1.00  0.00    -0.337 N 
HETATM    2  C   UNL     1      24.771  43.277  50.649  1.00  0.00     0.321 C 
HETATM    3  N   UNL     1      25.316  42.901  51.836  1.00  0.00    -0.309 N 
HETATM    4  O   UNL     1      24.221  42.422  49.956  1.00  0.00    -0.247 OA
HETATM    5  H   UNL     1      24.812  45.209  51.104  1.00  0.00     0.164 HD
HETATM    6  H   UNL     1      25.055  41.943  52.046  1.00  0.00     0.170 HD
ENDROOT
BRANCH   3   7
HETATM    7  C   UNL     1      26.145  43.538  52.777  1.00  0.00     0.037 A 
HETATM    8  C   UNL     1      27.416  43.088  53.145  1.00  0.00     0.047 A 
HETATM    9  C   UNL     1      28.110  43.832  54.087  1.00  0.00     0.050 A 
HETATM   10  C   UNL     1      27.580  44.966  54.671  1.00  0.00     0.048 A 
HETATM   11  C   UNL     1      29.448  43.637  54.644  1.00  0.00     0.262 A 
HETATM   12  C   UNL     1      28.572  45.500  55.601  1.00  0.00     0.262 A 
HETATM   13  C   UNL     1      26.321  45.424  54.351  1.00  0.00     0.020 A 
HETATM   14  O   UNL     1      28.417  46.531  56.228  1.00  0.00    -0.267 OA
HETATM   15  N   UNL     1      29.639  44.637  55.567  1.00  0.00    -0.275 N 
HETATM   16  C   UNL     1      25.602  44.691  53.400  1.00  0.00     0.030 A 
HETATM   17  O   UNL     1      30.202  42.754  54.277  1.00  0.00    -0.267 OA
BRANCH  15  18
HETATM   18  C   UNL     1      30.851  44.846  56.293  1.00  0.00     0.096 A 
HETATM   19  C   UNL     1      30.887  44.763  57.798  1.00  0.00     0.028 A 
HETATM   20  C   UNL     1      31.577  43.716  56.977  1.00  0.00     0.028 A 
ENDBRANCH  15  18
ENDBRANCH   3   7
BRANCH   1  21
HETATM   21  C   UNL     1      24.030  45.091  49.190  1.00  0.00     0.183 C 
BRANCH  21  22
HETATM   22  C   UNL     1      23.738  46.537  49.315  1.00  0.00     0.047 A 
HETATM   23  N   UNL     1      24.554  47.387  50.011  1.00  0.00    -0.280 N 
HETATM   24  N   UNL     1      24.200  48.677  49.917  1.00  0.00    -0.178 NA
HETATM   25  H   UNL     1      25.380  47.135  50.555  1.00  0.00     0.189 HD
HETATM   26  C   UNL     1      23.107  48.669  49.141  1.00  0.00     0.064 A 
HETATM   27  C   UNL     1      22.770  47.342  48.757  1.00  0.00     0.058 A 
BRANCH  26  28
HETATM   28  C   UNL     1      22.424  49.963  48.722  1.00  0.00    -0.005 C 
HETATM   29  C   UNL     1      21.900  50.765  49.933  1.00  0.00     0.021 C 
HETATM   30  C   UNL     1      21.224  49.667  47.800  1.00  0.00     0.021 C 
HETATM   31  C   UNL     1      23.431  50.850  47.960  1.00  0.00     0.021 C 
ENDBRANCH  26  28
ENDBRANCH  21  22
ENDBRANCH   1  21
TORSDOF 5
ENDMDL
MODEL 2
REMARK VINA RESULT:      -9.4      0.914      2.083
REMARK  5 active torsions:
REMARK  status: ('A' for Active; 'I' for Inactive)
REMARK    1  A    between atoms: C_2  and  C_3 
REMARK    2  A    between atoms: C_7  and  C_8 
REMARK    3  A    between atoms: C_8  and  N_9 
REMARK       I    between atoms: N_9  and  C_10 
REMARK       I    between atoms: C_10  and  N_11 
REMARK    4  A    between atoms: N_11  and  C_12 
REMARK    5  A    between atoms: N_18  and  C_19 
ROOT
HETATM    1  N   UNL     1      25.515  44.792  50.530  1.00  0.00    -0.337 N 
HETATM    2  C   UNL     1      24.644  44.132  51.340  1.00  0.00     0.321 C 
HETATM    3  N   UNL     1      25.026  43.861  52.616  1.00  0.00    -0.309 N 
HETATM    4  O   UNL     1      23.509  43.817  50.984  1.00  0.00    -0.247 OA
HETATM    5  H   UNL     1      26.141  45.400  51.033  1.00  0.00     0.164 HD
HETATM    6  H   UNL     1      24.227  43.541  53.153  1.00  0.00     0.170 HD
ENDROOT
BRANCH   3   7
HETATM    7  C   UNL     1      26.252  43.913  53.302  1.00  0.00     0.037 A 
HETATM    8  C   UNL     1      26.620  44.927  54.191  1.00  0.00     0.047 A 
HETATM    9  C   UNL     1      27.868  44.831  54.790  1.00  0.00     0.050 A 
HETATM   10  C   UNL     1      28.741  43.795  54.519  1.00  0.00     0.048 A 
HETATM   11  C   UNL     1      28.513  45.703  55.769  1.00  0.00     0.262 A 
HETATM   12  C   UNL     1      29.944  44.000  55.320  1.00  0.00     0.262 A 
HETATM   13  C   UNL     1      28.421  42.793  53.630  1.00  0.00     0.020 A 
HETATM   14  O   UNL     1      30.878  43.219  55.341  1.00  0.00    -0.267 OA
HETATM   15  N   UNL     1      29.759  45.175  56.005  1.00  0.00    -0.275 N 
HETATM   16  C   UNL     1      27.166  42.866  53.014  1.00  0.00     0.030 A 
HETATM   17  O   UNL     1      27.967  46.674  56.261  1.00  0.00    -0.267 OA
BRANCH  15  18
HETATM   18  C   UNL     1      30.690  45.694  56.957  1.00  0.00     0.096 A 
HETATM   19  C   UNL     1      30.289  45.945  58.388  1.00  0.00     0.028 A 
HETATM   20  C   UNL     1      31.255  44.845  58.066  1.00  0.00     0.028 A 
ENDBRANCH  15  18
ENDBRANCH   3   7
BRANCH   1  21
HETATM   21  C   UNL     1      25.080  45.331  49.257  1.00  0.00     0.183 C 
BRANCH  21  22
HETATM   22  C   UNL     1      24.445  46.661  49.403  1.00  0.00     0.047 A 
HETATM   23  N   UNL     1      25.130  47.747  49.874  1.00  0.00    -0.280 N 
HETATM   24  N   UNL     1      24.432  48.892  49.825  1.00  0.00    -0.178 NA
HETATM   25  H   UNL     1      26.087  47.761  50.227  1.00  0.00     0.189 HD
HETATM   26  C   UNL     1      23.245  48.538  49.313  1.00  0.00     0.064 A 
HETATM   27  C   UNL     1      23.202  47.141  49.052  1.00  0.00     0.058 A 
BRANCH  26  28
HETATM   28  C   UNL     1      22.169  49.574  49.020  1.00  0.00    -0.005 C 
HETATM   29  C   UNL     1      22.364  50.242  47.640  1.00  0.00     0.021 C 
HETATM   30  C   UNL     1      22.185  50.687  50.086  1.00  0.00     0.021 C 
HETATM   31  C   UNL     1      20.785  48.893  49.030  1.00  0.00     0.021 C 
ENDBRANCH  26  28
ENDBRANCH  21  22
ENDBRANCH   1  21
TORSDOF 5
ENDMDL
MODEL 3
REMARK VINA RESULT:      -9.1      3.443      6.614
REMARK  5 active torsions:
REMARK  status: ('A' for Active; 'I' for Inactive)
REMARK    1  A    between atoms: C_2  and  C_3 
REMARK    2  A    between atoms: C_7  and  C_8 
REMARK    3  A    between atoms: C_8  and  N_9 
REMARK       I    between atoms: N_9  and  C_10 
REMARK       I    between atoms: C_10  and  N_11 
REMARK    4  A    between atoms: N_11  and  C_12 
REMARK    5  A    between atoms: N_18  and  C_19 
ROOT
HETATM    1  N   UNL     1      25.448  42.863  51.355  1.00  0.00    -0.337 N 
HETATM    2  C   UNL     1      24.822  44.068  51.280  1.00  0.00     0.321 C 
HETATM    3  N   UNL     1      25.342  45.111  51.978  1.00  0.00    -0.309 N 
HETATM    4  O   UNL     1      23.839  44.265  50.568  1.00  0.00    -0.247 OA
HETATM    5  H   UNL     1      26.438  42.941  51.528  1.00  0.00     0.164 HD
HETATM    6  H   UNL     1      24.896  45.975  51.688  1.00  0.00     0.170 HD
ENDROOT
BRANCH   3   7
HETATM    7  C   UNL     1      26.313  45.225  52.989  1.00  0.00     0.037 A 
HETATM    8  C   UNL     1      27.436  44.401  53.104  1.00  0.00     0.047 A 
HETATM    9  C   UNL     1      28.303  44.645  54.159  1.00  0.00     0.050 A 
HETATM   10  C   UNL     1      28.077  45.644  55.086  1.00  0.00     0.048 A 
HETATM   11  C   UNL     1      29.556  43.986  54.522  1.00  0.00     0.262 A 
HETATM   12  C   UNL     1      29.180  45.628  56.044  1.00  0.00     0.262 A 
HETATM   13  C   UNL     1      26.969  46.458  55.018  1.00  0.00     0.020 A 
HETATM   14  O   UNL     1      29.293  46.430  56.952  1.00  0.00    -0.267 OA
HETATM   15  N   UNL     1      29.999  44.590  55.674  1.00  0.00    -0.275 N 
HETATM   16  C   UNL     1      26.080  46.232  53.961  1.00  0.00     0.030 A 
HETATM   17  O   UNL     1      30.063  43.102  53.855  1.00  0.00    -0.267 OA
BRANCH  15  18
HETATM   18  C   UNL     1      31.233  44.282  56.325  1.00  0.00     0.096 A 
HETATM   19  C   UNL     1      31.321  44.175  57.826  1.00  0.00     0.028 A 
HETATM   20  C   UNL     1      31.479  42.948  56.980  1.00  0.00     0.028 A 
ENDBRANCH  15  18
ENDBRANCH   3   7
BRANCH   1  21
HETATM   21  C   UNL     1      25.100  41.789  50.446  1.00  0.00     0.183 C 
BRANCH  21  22
HETATM   22  C   UNL     1      26.256  40.909  50.154  1.00  0.00     0.047 A 
HETATM   23  N   UNL     1      27.545  41.294  50.403  1.00  0.00    -0.280 N 
HETATM   24  N   UNL     1      28.450  40.327  50.189  1.00  0.00    -0.178 NA
HETATM   25  H   UNL     1      27.858  42.205  50.737  1.00  0.00     0.189 HD
HETATM   26  C   UNL     1      27.727  39.277  49.776  1.00  0.00     0.064 A 
HETATM   27  C   UNL     1      26.345  39.605  49.720  1.00  0.00     0.058 A 
BRANCH  26  28
HETATM   28  C   UNL     1      28.378  37.930  49.494  1.00  0.00    -0.005 C 
HETATM   29  C   UNL     1      29.550  37.636  50.456  1.00  0.00     0.021 C 
HETATM   30  C   UNL     1      28.930  37.887  48.055  1.00  0.00     0.021 C 
HETATM   31  C   UNL     1      27.330  36.810  49.660  1.00  0.00     0.021 C 
ENDBRANCH  26  28
ENDBRANCH  21  22
ENDBRANCH   1  21
TORSDOF 5
ENDMDL
MODEL 4
REMARK VINA RESULT:      -8.9      4.037     10.314
REMARK  5 active torsions:
REMARK  status: ('A' for Active; 'I' for Inactive)
REMARK    1  A    between atoms: C_2  and  C_3 
REMARK    2  A    between atoms: C_7  and  C_8 
REMARK    3  A    between atoms: C_8  and  N_9 
REMARK       I    between atoms: N_9  and  C_10 
REMARK       I    between atoms: C_10  and  N_11 
REMARK    4  A    between atoms: N_11  and  C_12 
REMARK    5  A    between atoms: N_18  and  C_19 
ROOT
HETATM    1  N   UNL     1      25.182  48.886  49.007  1.00  0.00    -0.337 N 
HETATM    2  C   UNL     1      25.121  49.867  48.066  1.00  0.00     0.321 C 
HETATM    3  N   UNL     1      23.943  50.522  47.891  1.00  0.00    -0.309 N 
HETATM    4  O   UNL     1      26.096  50.219  47.404  1.00  0.00    -0.247 OA
HETATM    5  H   UNL     1      24.540  49.028  49.770  1.00  0.00     0.164 HD
HETATM    6  H   UNL     1      24.087  51.337  47.305  1.00  0.00     0.170 HD
ENDROOT
BRANCH   3   7
HETATM    7  C   UNL     1      22.624  50.295  48.324  1.00  0.00     0.037 A 
HETATM    8  C   UNL     1      21.711  49.458  47.676  1.00  0.00     0.047 A 
HETATM    9  C   UNL     1      20.446  49.340  48.232  1.00  0.00     0.050 A 
HETATM   10  C   UNL     1      20.071  50.027  49.370  1.00  0.00     0.048 A 
HETATM   11  C   UNL     1      19.302  48.533  47.811  1.00  0.00     0.262 A 
HETATM   12  C   UNL     1      18.690  49.666  49.680  1.00  0.00     0.262 A 
HETATM   13  C   UNL     1      20.936  50.879  50.020  1.00  0.00     0.020 A 
HETATM   14  O   UNL     1      18.095  50.069  50.661  1.00  0.00    -0.267 OA
HETATM   15  N   UNL     1      18.282  48.808  48.688  1.00  0.00    -0.275 N 
HETATM   16  C   UNL     1      22.220  51.014  49.478  1.00  0.00     0.030 A 
HETATM   17  O   UNL     1      19.341  47.759  46.871  1.00  0.00    -0.267 OA
BRANCH  15  18
HETATM   18  C   UNL     1      17.003  48.172  48.667  1.00  0.00     0.096 A 
HETATM   19  C   UNL     1      15.776  48.897  48.175  1.00  0.00     0.028 A 
HETATM   20  C   UNL     1      16.338  47.760  47.379  1.00  0.00     0.028 A 
ENDBRANCH  15  18
ENDBRANCH   3   7
BRANCH   1  21
HETATM   21  C   UNL     1      26.457  48.331  49.416  1.00  0.00     0.183 C 
BRANCH  21  22
HETATM   22  C   UNL     1      26.303  47.285  50.453  1.00  0.00     0.047 A 
HETATM   23  N   UNL     1      26.217  45.956  50.140  1.00  0.00    -0.280 N 
HETATM   24  N   UNL     1      26.202  45.147  51.210  1.00  0.00    -0.178 NA
HETATM   25  H   UNL     1      26.183  45.549  49.206  1.00  0.00     0.189 HD
HETATM   26  C   UNL     1      26.269  45.977  52.260  1.00  0.00     0.064 A 
HETATM   27  C   UNL     1      26.313  47.332  51.830  1.00  0.00     0.058 A 
BRANCH  26  28
HETATM   28  C   UNL     1      26.352  45.448  53.684  1.00  0.00    -0.005 C 
HETATM   29  C   UNL     1      25.150  44.546  54.041  1.00  0.00     0.021 C 
HETATM   30  C   UNL     1      26.381  46.613  54.693  1.00  0.00     0.021 C 
HETATM   31  C   UNL     1      27.640  44.615  53.847  1.00  0.00     0.021 C 
ENDBRANCH  26  28
ENDBRANCH  21  22
ENDBRANCH   1  21
TORSDOF 5
ENDMDL
MODEL 5
REMARK VINA RESULT:      -8.9      2.768      4.165
REMARK  5 active torsions:
REMARK  status: ('A' for Active; 'I' for Inactive)
REMARK    1  A    between atoms: C_2  and  C_3 
REMARK    2  A    between atoms: C_7  and  C_8 
REMARK    3  A    between atoms: C_8  and  N_9 
REMARK       I    between atoms: N_9  and  C_10 
REMARK       I    between atoms: C_10  and  N_11 
REMARK    4  A    between atoms: N_11  and  C_12 
REMARK    5  A    between atoms: N_18  and  C_19 
ROOT
HETATM    1  N   UNL     1      21.579  45.484  48.989  1.00  0.00    -0.337 N 
HETATM    2  C   UNL     1      22.480  45.158  48.023  1.00  0.00     0.321 C 
HETATM    3  N   UNL     1      23.695  44.686  48.405  1.00  0.00    -0.309 N 
HETATM    4  O   UNL     1      22.223  45.224  46.822  1.00  0.00    -0.247 OA
HETATM    5  H   UNL     1      21.694  44.949  49.834  1.00  0.00     0.164 HD
HETATM    6  H   UNL     1      24.187  44.312  47.601  1.00  0.00     0.170 HD
ENDROOT
BRANCH   3   7
HETATM    7  C   UNL     1      24.382  44.632  49.631  1.00  0.00     0.037 A 
HETATM    8  C   UNL     1      24.690  45.747  50.417  1.00  0.00     0.047 A 
HETATM    9  C   UNL     1      25.372  45.525  51.603  1.00  0.00     0.050 A 
HETATM   10  C   UNL     1      25.762  44.263  52.008  1.00  0.00     0.048 A 
HETATM   11  C   UNL     1      25.802  46.468  52.634  1.00  0.00     0.262 A 
HETATM   12  C   UNL     1      26.442  44.392  53.294  1.00  0.00     0.262 A 
HETATM   13  C   UNL     1      25.497  43.145  51.248  1.00  0.00     0.020 A 
HETATM   14  O   UNL     1      26.853  43.443  53.934  1.00  0.00    -0.267 OA
HETATM   15  N   UNL     1      26.468  45.733  53.586  1.00  0.00    -0.275 N 
HETATM   16  C   UNL     1      24.808  43.344  50.046  1.00  0.00     0.030 A 
HETATM   17  O   UNL     1      25.545  47.657  52.601  1.00  0.00    -0.267 OA
BRANCH  15  18
HETATM   18  C   UNL     1      26.993  46.271  54.801  1.00  0.00     0.096 A 
HETATM   19  C   UNL     1      28.473  46.258  55.088  1.00  0.00     0.028 A 
HETATM   20  C   UNL     1      27.774  47.559  54.833  1.00  0.00     0.028 A 
ENDBRANCH  15  18
ENDBRANCH   3   7
BRANCH   1  21
HETATM   21  C   UNL     1      20.194  45.747  48.652  1.00  0.00     0.183 C 
BRANCH  21  22
HETATM   22  C   UNL     1      19.820  47.160  48.891  1.00  0.00     0.047 A 
HETATM   23  N   UNL     1      19.200  47.565  50.041  1.00  0.00    -0.280 N 
HETATM   24  N   UNL     1      19.047  48.894  50.136  1.00  0.00    -0.178 NA
HETATM   25  H   UNL     1      18.875  46.969  50.803  1.00  0.00     0.189 HD
HETATM   26  C   UNL     1      19.577  49.374  49.002  1.00  0.00     0.064 A 
HETATM   27  C   UNL     1      20.056  48.317  48.181  1.00  0.00     0.058 A 
BRANCH  26  28
HETATM   28  C   UNL     1      19.672  50.871  48.745  1.00  0.00    -0.005 C 
HETATM   29  C   UNL     1      19.104  51.701  49.917  1.00  0.00     0.021 C 
HETATM   30  C   UNL     1      18.885  51.252  47.475  1.00  0.00     0.021 C 
HETATM   31  C   UNL     1      21.151  51.265  48.552  1.00  0.00     0.021 C 
ENDBRANCH  26  28
ENDBRANCH  21  22
ENDBRANCH   1  21
TORSDOF 5
ENDMDL
MODEL 6
REMARK VINA RESULT:      -8.7      2.549      4.317
REMARK  5 active torsions:
REMARK  status: ('A' for Active; 'I' for Inactive)
REMARK    1  A    between atoms: C_2  and  C_3 
REMARK    2  A    between atoms: C_7  and  C_8 
REMARK    3  A    between atoms: C_8  and  N_9 
REMARK       I    between atoms: N_9  and  C_10 
REMARK       I    between atoms: C_10  and  N_11 
REMARK    4  A    between atoms: N_11  and  C_12 
REMARK    5  A    between atoms: N_18  and  C_19 
ROOT
HETATM    1  N   UNL     1      24.217  48.917  49.177  1.00  0.00    -0.337 N 
HETATM    2  C   UNL     1      23.571  47.833  48.668  1.00  0.00     0.321 C 
HETATM    3  N   UNL     1      23.793  46.620  49.240  1.00  0.00    -0.309 N 
HETATM    4  O   UNL     1      22.760  47.911  47.747  1.00  0.00    -0.247 OA
HETATM    5  H   UNL     1      24.426  48.827  50.158  1.00  0.00     0.164 HD
HETATM    6  H   UNL     1      23.119  45.947  48.891  1.00  0.00     0.170 HD
ENDROOT
BRANCH   3   7
HETATM    7  C   UNL     1      24.738  46.131  50.160  1.00  0.00     0.037 A 
HETATM    8  C   UNL     1      24.876  46.591  51.473  1.00  0.00     0.047 A 
HETATM    9  C   UNL     1      25.857  46.002  52.257  1.00  0.00     0.050 A 
HETATM   10  C   UNL     1      26.692  45.011  51.777  1.00  0.00     0.048 A 
HETATM   11  C   UNL     1      26.219  46.242  53.653  1.00  0.00     0.262 A 
HETATM   12  C   UNL     1      27.589  44.615  52.859  1.00  0.00     0.262 A 
HETATM   13  C   UNL     1      26.600  44.551  50.482  1.00  0.00     0.020 A 
HETATM   14  O   UNL     1      28.407  43.720  52.759  1.00  0.00    -0.267 OA
HETATM   15  N   UNL     1      27.282  45.416  53.930  1.00  0.00    -0.275 N 
HETATM   16  C   UNL     1      25.616  45.129  49.671  1.00  0.00     0.030 A 
HETATM   17  O   UNL     1      25.617  47.015  54.375  1.00  0.00    -0.267 OA
BRANCH  15  18
HETATM   18  C   UNL     1      27.897  45.295  55.214  1.00  0.00     0.096 A 
HETATM   19  C   UNL     1      29.335  45.690  55.434  1.00  0.00     0.028 A 
HETATM   20  C   UNL     1      28.237  46.499  56.054  1.00  0.00     0.028 A 
ENDBRANCH  15  18
ENDBRANCH   3   7
BRANCH   1  21
HETATM   21  C   UNL     1      23.835  50.258  48.784  1.00  0.00     0.183 C 
BRANCH  21  22
HETATM   22  C   UNL     1      22.412  50.542  49.082  1.00  0.00     0.047 A 
HETATM   23  N   UNL     1      21.954  50.705  50.360  1.00  0.00    -0.280 N 
HETATM   24  N   UNL     1      20.666  51.074  50.432  1.00  0.00    -0.178 NA
HETATM   25  H   UNL     1      22.489  50.591  51.221  1.00  0.00     0.189 HD
HETATM   26  C   UNL     1      20.266  51.145  49.155  1.00  0.00     0.064 A 
HETATM   27  C   UNL     1      21.326  50.799  48.273  1.00  0.00     0.058 A 
BRANCH  26  28
HETATM   28  C   UNL     1      18.864  51.611  48.790  1.00  0.00    -0.005 C 
HETATM   29  C   UNL     1      18.009  50.472  48.192  1.00  0.00     0.021 C 
HETATM   30  C   UNL     1      18.925  52.747  47.749  1.00  0.00     0.021 C 
HETATM   31  C   UNL     1      18.151  52.131  50.055  1.00  0.00     0.021 C 
ENDBRANCH  26  28
ENDBRANCH  21  22
ENDBRANCH   1  21
TORSDOF 5
ENDMDL
MODEL 7
REMARK VINA RESULT:      -8.5      1.785      2.833
REMARK  5 active torsions:
REMARK  status: ('A' for Active; 'I' for Inactive)
REMARK    1  A    between atoms: C_2  and  C_3 
REMARK    2  A    between atoms: C_7  and  C_8 
REMARK    3  A    between atoms: C_8  and  N_9 
REMARK       I    between atoms: N_9  and  C_10 
REMARK       I    between atoms: C_10  and  N_11 
REMARK    4  A    between atoms: N_11  and  C_12 
REMARK    5  A    between atoms: N_18  and  C_19 
ROOT
HETATM    1  N   UNL     1      23.604  45.260  49.065  1.00  0.00    -0.337 N 
HETATM    2  C   UNL     1      22.919  44.303  49.747  1.00  0.00     0.321 C 
HETATM    3  N   UNL     1      23.392  43.908  50.958  1.00  0.00    -0.309 N 
HETATM    4  O   UNL     1      21.865  43.817  49.338  1.00  0.00    -0.247 OA
HETATM    5  H   UNL     1      24.104  45.894  49.668  1.00  0.00     0.164 HD
HETATM    6  H   UNL     1      22.697  43.339  51.430  1.00  0.00     0.170 HD
ENDROOT
BRANCH   3   7
HETATM    7  C   UNL     1      24.602  44.104  51.647  1.00  0.00     0.037 A 
HETATM    8  C   UNL     1      24.835  45.137  52.560  1.00  0.00     0.047 A 
HETATM    9  C   UNL     1      26.085  45.192  53.158  1.00  0.00     0.050 A 
HETATM   10  C   UNL     1      27.086  44.285  52.866  1.00  0.00     0.048 A 
HETATM   11  C   UNL     1      26.612  46.119  54.158  1.00  0.00     0.262 A 
HETATM   12  C   UNL     1      28.254  44.627  53.674  1.00  0.00     0.262 A 
HETATM   13  C   UNL     1      26.899  43.270  51.954  1.00  0.00     0.020 A 
HETATM   14  O   UNL     1      29.281  43.975  53.678  1.00  0.00    -0.267 OA
HETATM   15  N   UNL     1      27.917  45.752  54.385  1.00  0.00    -0.275 N 
HETATM   16  C   UNL     1      25.645  43.193  51.338  1.00  0.00     0.030 A 
HETATM   17  O   UNL     1      25.944  46.998  54.671  1.00  0.00    -0.267 OA
BRANCH  15  18
HETATM   18  C   UNL     1      28.773  46.367  55.349  1.00  0.00     0.096 A 
HETATM   19  C   UNL     1      28.593  46.122  56.826  1.00  0.00     0.028 A 
HETATM   20  C   UNL     1      29.799  45.580  56.122  1.00  0.00     0.028 A 
ENDBRANCH  15  18
ENDBRANCH   3   7
BRANCH   1  21
HETATM   21  C   UNL     1      23.023  45.901  47.903  1.00  0.00     0.183 C 
BRANCH  21  22
HETATM   22  C   UNL     1      22.310  47.151  48.253  1.00  0.00     0.047 A 
HETATM   23  N   UNL     1      21.097  47.145  48.886  1.00  0.00    -0.280 N 
HETATM   24  N   UNL     1      20.659  48.365  49.231  1.00  0.00    -0.178 NA
HETATM   25  H   UNL     1      20.534  46.328  49.122  1.00  0.00     0.189 HD
HETATM   26  C   UNL     1      21.615  49.199  48.798  1.00  0.00     0.064 A 
HETATM   27  C   UNL     1      22.662  48.480  48.159  1.00  0.00     0.058 A 
BRANCH  26  28
HETATM   28  C   UNL     1      21.538  50.696  49.061  1.00  0.00    -0.005 C 
HETATM   29  C   UNL     1      20.370  51.362  48.302  1.00  0.00     0.021 C 
HETATM   30  C   UNL     1      22.842  51.390  48.620  1.00  0.00     0.021 C 
HETATM   31  C   UNL     1      21.329  50.941  50.570  1.00  0.00     0.021 C 
ENDBRANCH  26  28
ENDBRANCH  21  22
ENDBRANCH   1  21
TORSDOF 5
ENDMDL
MODEL 8
REMARK VINA RESULT:      -8.4      4.966      5.617
REMARK  5 active torsions:
REMARK  status: ('A' for Active; 'I' for Inactive)
REMARK    1  A    between atoms: C_2  and  C_3 
REMARK    2  A    between atoms: C_7  and  C_8 
REMARK    3  A    between atoms: C_8  and  N_9 
REMARK       I    between atoms: N_9  and  C_10 
REMARK       I    between atoms: C_10  and  N_11 
REMARK    4  A    between atoms: N_11  and  C_12 
REMARK    5  A    between atoms: N_18  and  C_19 
ROOT
HETATM    1  N   UNL     1      28.608  40.765  49.617  1.00  0.00    -0.337 N 
HETATM    2  C   UNL     1      28.651  39.784  50.559  1.00  0.00     0.321 C 
HETATM    3  N   UNL     1      28.461  40.127  51.859  1.00  0.00    -0.309 N 
HETATM    4  O   UNL     1      28.806  38.596  50.278  1.00  0.00    -0.247 OA
HETATM    5  H   UNL     1      28.015  41.536  49.876  1.00  0.00     0.164 HD
HETATM    6  H   UNL     1      28.333  39.291  52.420  1.00  0.00     0.170 HD
ENDROOT
BRANCH   3   7
HETATM    7  C   UNL     1      28.425  41.350  52.553  1.00  0.00     0.037 A 
HETATM    8  C   UNL     1      29.334  41.723  53.547  1.00  0.00     0.047 A 
HETATM    9  C   UNL     1      29.164  42.967  54.135  1.00  0.00     0.050 A 
HETATM   10  C   UNL     1      28.132  43.816  53.786  1.00  0.00     0.048 A 
HETATM   11  C   UNL     1      29.955  43.641  55.164  1.00  0.00     0.262 A 
HETATM   12  C   UNL     1      28.256  45.031  54.586  1.00  0.00     0.262 A 
HETATM   13  C   UNL     1      27.203  43.471  52.829  1.00  0.00     0.020 A 
HETATM   14  O   UNL     1      27.522  45.993  54.465  1.00  0.00    -0.267 OA
HETATM   15  N   UNL     1      29.335  44.841  55.414  1.00  0.00    -0.275 N 
HETATM   16  C   UNL     1      27.356  42.220  52.219  1.00  0.00     0.030 A 
HETATM   17  O   UNL     1      30.979  43.175  55.630  1.00  0.00    -0.267 OA
BRANCH  15  18
HETATM   18  C   UNL     1      29.830  45.835  56.313  1.00  0.00     0.096 A 
HETATM   19  C   UNL     1      29.114  46.153  57.601  1.00  0.00     0.028 A 
HETATM   20  C   UNL     1      30.450  45.475  57.638  1.00  0.00     0.028 A 
ENDBRANCH  15  18
ENDBRANCH   3   7
BRANCH   1  21
HETATM   21  C   UNL     1      28.549  40.436  48.207  1.00  0.00     0.183 C 
BRANCH  21  22
HETATM   22  C   UNL     1      27.224  40.739  47.618  1.00  0.00     0.047 A 
HETATM   23  N   UNL     1      27.060  40.982  46.282  1.00  0.00    -0.280 N 
HETATM   24  N   UNL     1      25.779  41.119  45.909  1.00  0.00    -0.178 NA
HETATM   25  H   UNL     1      27.794  41.049  45.577  1.00  0.00     0.189 HD
HETATM   26  C   UNL     1      25.082  40.970  47.044  1.00  0.00     0.064 A 
HETATM   27  C   UNL     1      25.952  40.750  48.146  1.00  0.00     0.058 A 
BRANCH  26  28
HETATM   28  C   UNL     1      23.560  40.982  47.046  1.00  0.00    -0.005 C 
HETATM   29  C   UNL     1      22.982  41.429  48.407  1.00  0.00     0.021 C 
HETATM   30  C   UNL     1      23.008  39.575  46.742  1.00  0.00     0.021 C 
HETATM   31  C   UNL     1      23.054  41.960  45.966  1.00  0.00     0.021 C 
ENDBRANCH  26  28
ENDBRANCH  21  22
ENDBRANCH   1  21
TORSDOF 5
ENDMDL
MODEL 9
REMARK VINA RESULT:      -8.2      5.344      6.679
REMARK  5 active torsions:
REMARK  status: ('A' for Active; 'I' for Inactive)
REMARK    1  A    between atoms: C_2  and  C_3 
REMARK    2  A    between atoms: C_7  and  C_8 
REMARK    3  A    between atoms: C_8  and  N_9 
REMARK       I    between atoms: N_9  and  C_10 
REMARK       I    between atoms: C_10  and  N_11 
REMARK    4  A    between atoms: N_11  and  C_12 
REMARK    5  A    between atoms: N_18  and  C_19 
ROOT
HETATM    1  N   UNL     1      27.473  40.136  50.005  1.00  0.00    -0.337 N 
HETATM    2  C   UNL     1      28.520  39.529  50.626  1.00  0.00     0.321 C 
HETATM    3  N   UNL     1      28.963  40.046  51.801  1.00  0.00    -0.309 N 
HETATM    4  O   UNL     1      29.048  38.505  50.194  1.00  0.00    -0.247 OA
HETATM    5  H   UNL     1      26.849  40.601  50.645  1.00  0.00     0.164 HD
HETATM    6  H   UNL     1      29.610  39.399  52.239  1.00  0.00     0.170 HD
ENDROOT
BRANCH   3   7
HETATM    7  C   UNL     1      28.732  41.251  52.489  1.00  0.00     0.037 A 
HETATM    8  C   UNL     1      29.594  41.795  53.445  1.00  0.00     0.047 A 
HETATM    9  C   UNL     1      29.221  42.995  54.033  1.00  0.00     0.050 A 
HETATM   10  C   UNL     1      28.039  43.637  53.719  1.00  0.00     0.048 A 
HETATM   11  C   UNL     1      29.914  43.813  55.027  1.00  0.00     0.262 A 
HETATM   12  C   UNL     1      27.970  44.864  54.507  1.00  0.00     0.262 A 
HETATM   13  C   UNL     1      27.155  43.117  52.800  1.00  0.00     0.020 A 
HETATM   14  O   UNL     1      27.069  45.675  54.410  1.00  0.00    -0.267 OA
HETATM   15  N   UNL     1      29.095  44.884  55.294  1.00  0.00    -0.275 N 
HETATM   16  C   UNL     1      27.510  41.908  52.191  1.00  0.00     0.030 A 
HETATM   17  O   UNL     1      31.022  43.547  55.456  1.00  0.00    -0.267 OA
BRANCH  15  18
HETATM   18  C   UNL     1      29.434  45.962  56.168  1.00  0.00     0.096 A 
HETATM   19  C   UNL     1      28.723  46.157  57.483  1.00  0.00     0.028 A 
HETATM   20  C   UNL     1      30.161  45.738  57.468  1.00  0.00     0.028 A 
ENDBRANCH  15  18
ENDBRANCH   3   7
BRANCH   1  21
HETATM   21  C   UNL     1      26.795  39.495  48.896  1.00  0.00     0.183 C 
BRANCH  21  22
HETATM   22  C   UNL     1      27.223  40.044  47.588  1.00  0.00     0.047 A 
HETATM   23  N   UNL     1      28.181  41.015  47.485  1.00  0.00    -0.280 N 
HETATM   24  N   UNL     1      28.525  41.305  46.221  1.00  0.00    -0.178 NA
HETATM   25  H   UNL     1      28.644  41.502  48.252  1.00  0.00     0.189 HD
HETATM   26  C   UNL     1      27.757  40.501  45.472  1.00  0.00     0.064 A 
HETATM   27  C   UNL     1      26.909  39.706  46.290  1.00  0.00     0.058 A 
BRANCH  26  28
HETATM   28  C   UNL     1      27.893  40.463  43.957  1.00  0.00    -0.005 C 
HETATM   29  C   UNL     1      29.309  40.865  43.489  1.00  0.00     0.021 C 
HETATM   30  C   UNL     1      26.890  41.431  43.299  1.00  0.00     0.021 C 
HETATM   31  C   UNL     1      27.611  39.033  43.453  1.00  0.00     0.021 C 
ENDBRANCH  26  28
ENDBRANCH  21  22
ENDBRANCH   1  21
TORSDOF 5
ENDMDL
MODEL 10
REMARK VINA RESULT:      -8.2      1.660      2.170
REMARK  5 active torsions:
REMARK  status: ('A' for Active; 'I' for Inactive)
REMARK    1  A    between atoms: C_2  and  C_3 
REMARK    2  A    between atoms: C_7  and  C_8 
REMARK    3  A    between atoms: C_8  and  N_9 
REMARK       I    between atoms: N_9  and  C_10 
REMARK       I    between atoms: C_10  and  N_11 
REMARK    4  A    between atoms: N_11  and  C_12 
REMARK    5  A    between atoms: N_18  and  C_19 
ROOT
HETATM    1  N   UNL     1      24.777  44.292  49.687  1.00  0.00    -0.337 N 
HETATM    2  C   UNL     1      24.410  43.219  50.438  1.00  0.00     0.321 C 
HETATM    3  N   UNL     1      24.734  43.213  51.758  1.00  0.00    -0.309 N 
HETATM    4  O   UNL     1      23.755  42.281  49.987  1.00  0.00    -0.247 OA
HETATM    5  H   UNL     1      24.838  45.146  50.218  1.00  0.00     0.164 HD
HETATM    6  H   UNL     1      24.245  42.458  52.228  1.00  0.00     0.170 HD
ENDROOT
BRANCH   3   7
HETATM    7  C   UNL     1      25.586  43.994  52.560  1.00  0.00     0.037 A 
HETATM    8  C   UNL     1      26.740  43.517  53.187  1.00  0.00     0.047 A 
HETATM    9  C   UNL     1      27.475  44.417  53.944  1.00  0.00     0.050 A 
HETATM   10  C   UNL     1      27.092  45.734  54.105  1.00  0.00     0.048 A 
HETATM   11  C   UNL     1      28.722  44.229  54.683  1.00  0.00     0.262 A 
HETATM   12  C   UNL     1      28.088  46.393  54.945  1.00  0.00     0.262 A 
HETATM   13  C   UNL     1      25.948  46.232  53.522  1.00  0.00     0.020 A 
HETATM   14  O   UNL     1      28.056  47.578  55.221  1.00  0.00    -0.267 OA
HETATM   15  N   UNL     1      29.004  45.430  55.288  1.00  0.00    -0.275 N 
HETATM   16  C   UNL     1      25.190  45.343  52.751  1.00  0.00     0.030 A 
HETATM   17  O   UNL     1      29.350  43.186  54.680  1.00  0.00    -0.267 OA
BRANCH  15  18
HETATM   18  C   UNL     1      30.181  45.692  56.056  1.00  0.00     0.096 A 
HETATM   19  C   UNL     1      30.116  45.872  57.552  1.00  0.00     0.028 A 
HETATM   20  C   UNL     1      30.780  44.659  56.976  1.00  0.00     0.028 A 
ENDBRANCH  15  18
ENDBRANCH   3   7
BRANCH   1  21
HETATM   21  C   UNL     1      24.247  44.477  48.350  1.00  0.00     0.183 C 
BRANCH  21  22
HETATM   22  C   UNL     1      22.960  45.211  48.357  1.00  0.00     0.047 A 
HETATM   23  N   UNL     1      21.769  44.590  48.617  1.00  0.00    -0.280 N 
HETATM   24  N   UNL     1      20.726  45.430  48.699  1.00  0.00    -0.178 NA
HETATM   25  H   UNL     1      21.618  43.591  48.762  1.00  0.00     0.189 HD
HETATM   26  C   UNL     1      21.253  46.641  48.476  1.00  0.00     0.064 A 
HETATM   27  C   UNL     1      22.652  46.548  48.236  1.00  0.00     0.058 A 
BRANCH  26  28
HETATM   28  C   UNL     1      20.404  47.901  48.557  1.00  0.00    -0.005 C 
HETATM   29  C   UNL     1      19.837  48.311  47.179  1.00  0.00     0.021 C 
HETATM   30  C   UNL     1      21.237  49.082  49.092  1.00  0.00     0.021 C 
HETATM   31  C   UNL     1      19.215  47.657  49.509  1.00  0.00     0.021 C 
ENDBRANCH  26  28
ENDBRANCH  21  22
ENDBRANCH   1  21
TORSDOF 5
ENDMDL
