MODEL 1
REMARK VINA RESULT:      -8.1      0.000      0.000
REMARK  9 active torsions:
REMARK  status: ('A' for Active; 'I' for Inactive)
REMARK    1  A    between atoms: C_6  and  C_7 
REMARK    2  A    between atoms: C_7  and  C_8 
REMARK       I    between atoms: C_8  and  N_9 
REMARK    3  A    between atoms: N_9  and  C_10 
REMARK    4  A    between atoms: C_10  and  C_11 
REMARK    5  A    between atoms: C_11  and  N_12 
REMARK    6  A    between atoms: C_17  and  C_18 
REMARK    7  A    between atoms: C_21  and  C_22 
REMARK    8  A    between atoms: C_29  and  C_30 
REMARK       I    between atoms: C_30  and  N_31 
REMARK    9  A    between atoms: N_31  and  C_32 
ROOT
HETATM    1  C   UNL     1      16.392  48.317  44.958  1.00  0.00     0.071 C 
HETATM    2  C   UNL     1      17.410  48.966  45.868  1.00  0.00     0.047 C 
HETATM    3  N   UNL     1      17.731  48.177  46.963  1.00  0.00    -0.229 NA
HETATM    4  C   UNL     1      18.750  48.530  47.667  1.00  0.00     0.170 C 
HETATM    5  N   UNL     1      19.507  49.877  47.509  1.00  0.00    -0.319 N 
HETATM    6  C   UNL     1      20.646  49.864  48.119  1.00  0.00     0.011 C 
HETATM    7  C   UNL     1      18.672  50.889  46.824  1.00  0.00     0.165 C 
HETATM    8  S   UNL     1      19.515  47.512  48.838  1.00  0.00    -0.086 SA
HETATM    9  C   UNL     1      21.006  48.558  48.793  1.00  0.00     0.135 C 
HETATM   10  C   UNL     1      17.977  50.181  45.670  1.00  0.00     0.062 C 
ENDROOT
BRANCH   6  11
HETATM   11  C   UNL     1      21.532  51.073  48.204  1.00  0.00     0.156 C 
BRANCH  11  12
HETATM   12  C   UNL     1      22.868  50.843  48.880  1.00  0.00     0.223 C 
HETATM   13  N   UNL     1      23.825  50.294  48.065  1.00  0.00    -0.359 N 
HETATM   14  H   UNL     1      23.542  50.023  47.126  1.00  0.00     0.162 HD
HETATM   15  O   UNL     1      23.047  51.099  50.067  1.00  0.00    -0.273 OA
BRANCH  13  16
HETATM   16  C   UNL     1      25.111  49.717  48.471  1.00  0.00     0.150 C 
BRANCH  16  17
HETATM   17  C   UNL     1      25.118  48.426  49.317  1.00  0.00     0.253 C 
BRANCH  17  18
HETATM   18  N   UNL     1      26.500  48.010  49.776  1.00  0.00    -0.077 N 
HETATM   19  H   UNL     1      26.577  48.320  50.765  1.00  0.00     0.279 HD
HETATM   20  C   UNL     1      26.751  46.527  49.740  1.00  0.00     0.269 C 
HETATM   21  C   UNL     1      27.574  48.749  49.018  1.00  0.00     0.269 C 
ENDBRANCH  17  18
ENDBRANCH  16  17
ENDBRANCH  13  16
ENDBRANCH  11  12
ENDBRANCH   6  11
BRANCH   7  22
HETATM   22  C   UNL     1      17.729  51.518  47.875  1.00  0.00    -0.030 A 
HETATM   23  C   UNL     1      16.374  51.747  47.567  1.00  0.00     0.010 A 
HETATM   24  C   UNL     1      15.553  52.517  48.401  1.00  0.00     0.008 A 
HETATM   25  C   UNL     1      16.048  53.057  49.590  1.00  0.00    -0.055 A 
HETATM   26  C   UNL     1      17.357  52.740  49.963  1.00  0.00     0.008 A 
HETATM   27  C   UNL     1      18.181  51.981  49.124  1.00  0.00     0.010 A 
BRANCH  25  28
HETATM   28  C   UNL     1      15.175  53.972  50.435  1.00  0.00     0.010 C 
HETATM   29  C   UNL     1      14.981  55.340  49.782  1.00  0.00     0.015 C 
HETATM   30  C   UNL     1      13.824  53.320  50.749  1.00  0.00     0.015 C 
ENDBRANCH  25  28
ENDBRANCH   7  22
BRANCH  10  31
HETATM   31  C   UNL     1      18.161  50.880  44.353  1.00  0.00     0.256 C 
HETATM   32  N   UNL     1      17.159  51.774  44.046  1.00  0.00    -0.323 N 
HETATM   33  H   UNL     1      16.582  52.141  44.787  1.00  0.00     0.169 HD
HETATM   34  O   UNL     1      19.015  50.448  43.590  1.00  0.00    -0.267 OA
BRANCH  32  35
HETATM   35  C   UNL     1      16.731  52.199  42.771  1.00  0.00     0.035 A 
HETATM   36  C   UNL     1      15.561  51.763  42.151  1.00  0.00     0.029 A 
HETATM   37  C   UNL     1      15.154  52.337  40.941  1.00  0.00     0.002 A 
HETATM   38  C   UNL     1      15.920  53.334  40.338  1.00  0.00     0.000 A 
HETATM   39  C   UNL     1      17.103  53.754  40.936  1.00  0.00     0.002 A 
HETATM   40  C   UNL     1      17.504  53.192  42.149  1.00  0.00     0.029 A 
ENDBRANCH  32  35
ENDBRANCH  10  31
TORSDOF 9
ENDMDL
MODEL 2
REMARK VINA RESULT:      -7.5     10.003     12.528
REMARK  9 active torsions:
REMARK  status: ('A' for Active; 'I' for Inactive)
REMARK    1  A    between atoms: C_6  and  C_7 
REMARK    2  A    between atoms: C_7  and  C_8 
REMARK       I    between atoms: C_8  and  N_9 
REMARK    3  A    between atoms: N_9  and  C_10 
REMARK    4  A    between atoms: C_10  and  C_11 
REMARK    5  A    between atoms: C_11  and  N_12 
REMARK    6  A    between atoms: C_17  and  C_18 
REMARK    7  A    between atoms: C_21  and  C_22 
REMARK    8  A    between atoms: C_29  and  C_30 
REMARK       I    between atoms: C_30  and  N_31 
REMARK    9  A    between atoms: N_31  and  C_32 
ROOT
HETATM    1  C   UNL     1      24.196  47.995  36.512  1.00  0.00     0.071 C 
HETATM    2  C   UNL     1      25.373  47.428  37.272  1.00  0.00     0.047 C 
HETATM    3  N   UNL     1      25.758  46.178  36.809  1.00  0.00    -0.229 NA
HETATM    4  C   UNL     1      26.885  45.715  37.228  1.00  0.00     0.170 C 
HETATM    5  N   UNL     1      27.730  46.348  38.365  1.00  0.00    -0.319 N 
HETATM    6  C   UNL     1      28.931  45.873  38.395  1.00  0.00     0.011 C 
HETATM    7  C   UNL     1      26.909  47.231  39.224  1.00  0.00     0.165 C 
HETATM    8  S   UNL     1      27.698  44.364  36.516  1.00  0.00    -0.086 SA
HETATM    9  C   UNL     1      29.257  44.867  37.312  1.00  0.00     0.135 C 
HETATM   10  C   UNL     1      26.015  48.042  38.296  1.00  0.00     0.062 C 
ENDROOT
BRANCH   6  11
HETATM   11  C   UNL     1      29.924  46.246  39.457  1.00  0.00     0.156 C 
BRANCH  11  12
HETATM   12  C   UNL     1      30.528  47.628  39.315  1.00  0.00     0.223 C 
HETATM   13  N   UNL     1      31.459  47.938  40.273  1.00  0.00    -0.359 N 
HETATM   14  H   UNL     1      31.602  47.264  41.023  1.00  0.00     0.162 HD
HETATM   15  O   UNL     1      30.174  48.402  38.431  1.00  0.00    -0.273 OA
BRANCH  13  16
HETATM   16  C   UNL     1      32.023  49.260  40.568  1.00  0.00     0.150 C 
BRANCH  16  17
HETATM   17  C   UNL     1      33.286  49.355  41.449  1.00  0.00     0.253 C 
BRANCH  17  18
HETATM   18  N   UNL     1      33.096  50.197  42.693  1.00  0.00    -0.077 N 
HETATM   19  H   UNL     1      33.237  49.553  43.497  1.00  0.00     0.279 HD
HETATM   20  C   UNL     1      34.074  51.332  42.836  1.00  0.00     0.269 C 
HETATM   21  C   UNL     1      31.679  50.701  42.800  1.00  0.00     0.269 C 
ENDBRANCH  17  18
ENDBRANCH  16  17
ENDBRANCH  13  16
ENDBRANCH  11  12
ENDBRANCH   6  11
BRANCH   7  22
HETATM   22  C   UNL     1      26.164  46.340  40.244  1.00  0.00    -0.030 A 
HETATM   23  C   UNL     1      24.814  46.596  40.559  1.00  0.00     0.010 A 
HETATM   24  C   UNL     1      24.181  45.963  41.636  1.00  0.00     0.008 A 
HETATM   25  C   UNL     1      24.863  45.028  42.418  1.00  0.00    -0.055 A 
HETATM   26  C   UNL     1      26.164  44.682  42.045  1.00  0.00     0.008 A 
HETATM   27  C   UNL     1      26.802  45.322  40.975  1.00  0.00     0.010 A 
BRANCH  25  28
HETATM   28  C   UNL     1      24.194  44.423  43.643  1.00  0.00     0.010 C 
HETATM   29  C   UNL     1      22.752  44.904  43.801  1.00  0.00     0.015 C 
HETATM   30  C   UNL     1      24.261  42.892  43.616  1.00  0.00     0.015 C 
ENDBRANCH  25  28
ENDBRANCH   7  22
BRANCH  10  31
HETATM   31  C   UNL     1      26.092  49.521  38.547  1.00  0.00     0.256 C 
HETATM   32  N   UNL     1      27.374  50.025  38.542  1.00  0.00    -0.323 N 
HETATM   33  H   UNL     1      28.106  49.507  38.082  1.00  0.00     0.169 HD
HETATM   34  O   UNL     1      25.085  50.087  38.950  1.00  0.00    -0.267 OA
BRANCH  32  35
HETATM   35  C   UNL     1      27.862  51.170  39.207  1.00  0.00     0.035 A 
HETATM   36  C   UNL     1      27.834  51.346  40.589  1.00  0.00     0.029 A 
HETATM   37  C   UNL     1      28.458  52.459  41.166  1.00  0.00     0.002 A 
HETATM   38  C   UNL     1      29.095  53.407  40.366  1.00  0.00     0.000 A 
HETATM   39  C   UNL     1      29.103  53.252  38.984  1.00  0.00     0.002 A 
HETATM   40  C   UNL     1      28.493  52.137  38.408  1.00  0.00     0.029 A 
ENDBRANCH  32  35
ENDBRANCH  10  31
TORSDOF 9
ENDMDL
MODEL 3
REMARK VINA RESULT:      -7.4     14.958     19.043
REMARK  9 active torsions:
REMARK  status: ('A' for Active; 'I' for Inactive)
REMARK    1  A    between atoms: C_6  and  C_7 
REMARK    2  A    between atoms: C_7  and  C_8 
REMARK       I    between atoms: C_8  and  N_9 
REMARK    3  A    between atoms: N_9  and  C_10 
REMARK    4  A    between atoms: C_10  and  C_11 
REMARK    5  A    between atoms: C_11  and  N_12 
REMARK    6  A    between atoms: C_17  and  C_18 
REMARK    7  A    between atoms: C_21  and  C_22 
REMARK    8  A    between atoms: C_29  and  C_30 
REMARK       I    between atoms: C_30  and  N_31 
REMARK    9  A    between atoms: N_31  and  C_32 
ROOT
HETATM    1  C   UNL     1      38.017  52.396  39.227  1.00  0.00     0.071 C 
HETATM    2  C   UNL     1      37.884  52.351  40.732  1.00  0.00     0.047 C 
HETATM    3  N   UNL     1      38.412  51.192  41.283  1.00  0.00    -0.229 NA
HETATM    4  C   UNL     1      38.559  51.159  42.562  1.00  0.00     0.170 C 
HETATM    5  N   UNL     1      37.996  52.224  43.541  1.00  0.00    -0.319 N 
HETATM    6  C   UNL     1      38.519  52.121  44.718  1.00  0.00     0.011 C 
HETATM    7  C   UNL     1      36.894  52.997  42.925  1.00  0.00     0.165 C 
HETATM    8  S   UNL     1      39.505  49.974  43.396  1.00  0.00    -0.086 SA
HETATM    9  C   UNL     1      39.574  51.046  44.866  1.00  0.00     0.135 C 
HETATM   10  C   UNL     1      37.322  53.317  41.500  1.00  0.00     0.062 C 
ENDROOT
BRANCH   6  11
HETATM   11  C   UNL     1      38.079  52.967  45.877  1.00  0.00     0.156 C 
BRANCH  11  12
HETATM   12  C   UNL     1      38.302  54.456  45.706  1.00  0.00     0.223 C 
HETATM   13  N   UNL     1      39.449  54.780  45.028  1.00  0.00    -0.359 N 
HETATM   14  H   UNL     1      40.075  54.018  44.775  1.00  0.00     0.162 HD
HETATM   15  O   UNL     1      37.529  55.286  46.174  1.00  0.00    -0.273 OA
BRANCH  13  16
HETATM   16  C   UNL     1      40.078  56.102  44.927  1.00  0.00     0.150 C 
BRANCH  16  17
HETATM   17  C   UNL     1      40.541  56.810  46.218  1.00  0.00     0.253 C 
BRANCH  17  18
HETATM   18  N   UNL     1      41.936  56.416  46.658  1.00  0.00    -0.077 N 
HETATM   19  H   UNL     1      42.340  57.259  47.113  1.00  0.00     0.279 HD
HETATM   20  C   UNL     1      41.982  55.290  47.656  1.00  0.00     0.269 C 
HETATM   21  C   UNL     1      42.818  56.112  45.474  1.00  0.00     0.269 C 
ENDBRANCH  17  18
ENDBRANCH  16  17
ENDBRANCH  13  16
ENDBRANCH  11  12
ENDBRANCH   6  11
BRANCH   7  22
HETATM   22  C   UNL     1      35.599  52.164  43.054  1.00  0.00    -0.030 A 
HETATM   23  C   UNL     1      35.175  51.341  41.991  1.00  0.00     0.010 A 
HETATM   24  C   UNL     1      33.903  50.757  41.980  1.00  0.00     0.008 A 
HETATM   25  C   UNL     1      33.019  50.945  43.045  1.00  0.00    -0.055 A 
HETATM   26  C   UNL     1      33.472  51.663  44.156  1.00  0.00     0.008 A 
HETATM   27  C   UNL     1      34.739  52.257  44.163  1.00  0.00     0.010 A 
BRANCH  25  28
HETATM   28  C   UNL     1      31.606  50.387  42.975  1.00  0.00     0.010 C 
HETATM   29  C   UNL     1      30.722  51.192  42.023  1.00  0.00     0.015 C 
HETATM   30  C   UNL     1      31.612  48.903  42.593  1.00  0.00     0.015 C 
ENDBRANCH  25  28
ENDBRANCH   7  22
BRANCH  10  31
HETATM   31  C   UNL     1      37.213  54.777  41.164  1.00  0.00     0.256 C 
HETATM   32  N   UNL     1      36.120  55.095  40.389  1.00  0.00    -0.323 N 
HETATM   33  H   UNL     1      35.333  54.465  40.363  1.00  0.00     0.169 HD
HETATM   34  O   UNL     1      38.179  55.491  41.394  1.00  0.00    -0.267 OA
BRANCH  32  35
HETATM   35  C   UNL     1      35.969  56.179  39.499  1.00  0.00     0.035 A 
HETATM   36  C   UNL     1      36.840  56.456  38.446  1.00  0.00     0.029 A 
HETATM   37  C   UNL     1      36.538  57.478  37.538  1.00  0.00     0.002 A 
HETATM   38  C   UNL     1      35.377  58.236  37.687  1.00  0.00     0.000 A 
HETATM   39  C   UNL     1      34.518  57.984  38.750  1.00  0.00     0.002 A 
HETATM   40  C   UNL     1      34.810  56.957  39.649  1.00  0.00     0.029 A 
ENDBRANCH  32  35
ENDBRANCH  10  31
TORSDOF 9
ENDMDL
MODEL 4
REMARK VINA RESULT:      -7.4      1.938      2.488
REMARK  9 active torsions:
REMARK  status: ('A' for Active; 'I' for Inactive)
REMARK    1  A    between atoms: C_6  and  C_7 
REMARK    2  A    between atoms: C_7  and  C_8 
REMARK       I    between atoms: C_8  and  N_9 
REMARK    3  A    between atoms: N_9  and  C_10 
REMARK    4  A    between atoms: C_10  and  C_11 
REMARK    5  A    between atoms: C_11  and  N_12 
REMARK    6  A    between atoms: C_17  and  C_18 
REMARK    7  A    between atoms: C_21  and  C_22 
REMARK    8  A    between atoms: C_29  and  C_30 
REMARK       I    between atoms: C_30  and  N_31 
REMARK    9  A    between atoms: N_31  and  C_32 
ROOT
HETATM    1  C   UNL     1      13.373  48.757  45.387  1.00  0.00     0.071 C 
HETATM    2  C   UNL     1      14.705  49.080  46.025  1.00  0.00     0.047 C 
HETATM    3  N   UNL     1      14.946  48.333  47.170  1.00  0.00    -0.229 NA
HETATM    4  C   UNL     1      16.140  48.361  47.653  1.00  0.00     0.170 C 
HETATM    5  N   UNL     1      17.260  49.326  47.179  1.00  0.00    -0.319 N 
HETATM    6  C   UNL     1      18.423  48.962  47.609  1.00  0.00     0.011 C 
HETATM    7  C   UNL     1      16.700  50.502  46.476  1.00  0.00     0.165 C 
HETATM    8  S   UNL     1      16.727  47.250  48.842  1.00  0.00    -0.086 SA
HETATM    9  C   UNL     1      18.444  47.682  48.417  1.00  0.00     0.135 C 
HETATM   10  C   UNL     1      15.599  49.986  45.560  1.00  0.00     0.062 C 
ENDROOT
BRANCH   6  11
HETATM   11  C   UNL     1      19.663  49.775  47.375  1.00  0.00     0.156 C 
BRANCH  11  12
HETATM   12  C   UNL     1      20.578  49.910  48.575  1.00  0.00     0.223 C 
HETATM   13  N   UNL     1      21.800  49.305  48.423  1.00  0.00    -0.359 N 
HETATM   14  H   UNL     1      21.953  48.765  47.574  1.00  0.00     0.162 HD
HETATM   15  O   UNL     1      20.224  50.484  49.600  1.00  0.00    -0.273 OA
BRANCH  13  16
HETATM   16  C   UNL     1      22.791  49.031  49.470  1.00  0.00     0.150 C 
BRANCH  16  17
HETATM   17  C   UNL     1      24.105  48.318  49.088  1.00  0.00     0.253 C 
BRANCH  17  18
HETATM   18  N   UNL     1      25.314  49.231  49.095  1.00  0.00    -0.077 N 
HETATM   19  H   UNL     1      25.165  49.893  49.883  1.00  0.00     0.279 HD
HETATM   20  C   UNL     1      26.625  48.531  49.326  1.00  0.00     0.269 C 
HETATM   21  C   UNL     1      25.372  50.071  47.845  1.00  0.00     0.269 C 
ENDBRANCH  17  18
ENDBRANCH  16  17
ENDBRANCH  13  16
ENDBRANCH  11  12
ENDBRANCH   6  11
BRANCH   7  22
HETATM   22  C   UNL     1      16.245  51.521  47.545  1.00  0.00    -0.030 A 
HETATM   23  C   UNL     1      16.658  51.380  48.884  1.00  0.00     0.010 A 
HETATM   24  C   UNL     1      16.087  52.141  49.911  1.00  0.00     0.008 A 
HETATM   25  C   UNL     1      15.105  53.095  49.634  1.00  0.00    -0.055 A 
HETATM   26  C   UNL     1      14.770  53.324  48.297  1.00  0.00     0.008 A 
HETATM   27  C   UNL     1      15.333  52.557  47.270  1.00  0.00     0.010 A 
BRANCH  25  28
HETATM   28  C   UNL     1      14.423  53.843  50.769  1.00  0.00     0.010 C 
HETATM   29  C   UNL     1      15.130  55.160  51.090  1.00  0.00     0.015 C 
HETATM   30  C   UNL     1      12.938  54.077  50.471  1.00  0.00     0.015 C 
ENDBRANCH  25  28
ENDBRANCH   7  22
BRANCH  10  31
HETATM   31  C   UNL     1      15.750  50.447  44.139  1.00  0.00     0.256 C 
HETATM   32  N   UNL     1      16.858  49.938  43.498  1.00  0.00    -0.323 N 
HETATM   33  H   UNL     1      17.292  49.100  43.853  1.00  0.00     0.169 HD
HETATM   34  O   UNL     1      15.047  51.374  43.759  1.00  0.00    -0.267 OA
BRANCH  32  35
HETATM   35  C   UNL     1      17.577  50.500  42.421  1.00  0.00     0.035 A 
HETATM   36  C   UNL     1      16.986  51.140  41.333  1.00  0.00     0.029 A 
HETATM   37  C   UNL     1      17.786  51.779  40.378  1.00  0.00     0.002 A 
HETATM   38  C   UNL     1      19.176  51.766  40.496  1.00  0.00     0.000 A 
HETATM   39  C   UNL     1      19.773  51.105  41.564  1.00  0.00     0.002 A 
HETATM   40  C   UNL     1      18.977  50.480  42.524  1.00  0.00     0.029 A 
ENDBRANCH  32  35
ENDBRANCH  10  31
TORSDOF 9
ENDMDL
MODEL 5
REMARK VINA RESULT:      -7.3      3.844      8.596
REMARK  9 active torsions:
REMARK  status: ('A' for Active; 'I' for Inactive)
REMARK    1  A    between atoms: C_6  and  C_7 
REMARK    2  A    between atoms: C_7  and  C_8 
REMARK       I    between atoms: C_8  and  N_9 
REMARK    3  A    between atoms: N_9  and  C_10 
REMARK    4  A    between atoms: C_10  and  C_11 
REMARK    5  A    between atoms: C_11  and  N_12 
REMARK    6  A    between atoms: C_17  and  C_18 
REMARK    7  A    between atoms: C_21  and  C_22 
REMARK    8  A    between atoms: C_29  and  C_30 
REMARK       I    between atoms: C_30  and  N_31 
REMARK    9  A    between atoms: N_31  and  C_32 
ROOT
HETATM    1  C   UNL     1      16.034  46.691  44.594  1.00  0.00     0.071 C 
HETATM    2  C   UNL     1      15.879  48.192  44.513  1.00  0.00     0.047 C 
HETATM    3  N   UNL     1      14.811  48.579  43.716  1.00  0.00    -0.229 NA
HETATM    4  C   UNL     1      14.452  49.815  43.769  1.00  0.00     0.170 C 
HETATM    5  N   UNL     1      15.253  50.936  44.485  1.00  0.00    -0.319 N 
HETATM    6  C   UNL     1      14.548  52.008  44.640  1.00  0.00     0.011 C 
HETATM    7  C   UNL     1      16.669  50.550  44.680  1.00  0.00     0.165 C 
HETATM    8  S   UNL     1      12.956  50.415  43.139  1.00  0.00    -0.086 SA
HETATM    9  C   UNL     1      13.120  51.921  44.149  1.00  0.00     0.135 C 
HETATM   10  C   UNL     1      16.671  49.098  45.138  1.00  0.00     0.062 C 
ENDROOT
BRANCH   6  11
HETATM   11  C   UNL     1      15.115  53.272  45.218  1.00  0.00     0.156 C 
BRANCH  11  12
HETATM   12  C   UNL     1      14.823  53.494  46.688  1.00  0.00     0.223 C 
HETATM   13  N   UNL     1      15.594  52.740  47.535  1.00  0.00    -0.359 N 
HETATM   14  H   UNL     1      16.221  52.057  47.116  1.00  0.00     0.162 HD
HETATM   15  O   UNL     1      13.943  54.261  47.066  1.00  0.00    -0.273 OA
BRANCH  13  16
HETATM   16  C   UNL     1      15.385  52.528  48.972  1.00  0.00     0.150 C 
BRANCH  16  17
HETATM   17  C   UNL     1      16.088  53.465  49.977  1.00  0.00     0.253 C 
BRANCH  17  18
HETATM   18  N   UNL     1      15.144  54.422  50.675  1.00  0.00    -0.077 N 
HETATM   19  H   UNL     1      15.439  54.435  51.672  1.00  0.00     0.279 HD
HETATM   20  C   UNL     1      15.195  55.836  50.164  1.00  0.00     0.269 C 
HETATM   21  C   UNL     1      13.729  53.902  50.661  1.00  0.00     0.269 C 
ENDBRANCH  17  18
ENDBRANCH  16  17
ENDBRANCH  13  16
ENDBRANCH  11  12
ENDBRANCH   6  11
BRANCH   7  22
HETATM   22  C   UNL     1      17.422  50.825  43.360  1.00  0.00    -0.030 A 
HETATM   23  C   UNL     1      18.296  49.857  42.824  1.00  0.00     0.010 A 
HETATM   24  C   UNL     1      19.161  50.158  41.765  1.00  0.00     0.008 A 
HETATM   25  C   UNL     1      19.164  51.427  41.181  1.00  0.00    -0.055 A 
HETATM   26  C   UNL     1      18.222  52.358  41.627  1.00  0.00     0.008 A 
HETATM   27  C   UNL     1      17.364  52.063  42.693  1.00  0.00     0.010 A 
BRANCH  25  28
HETATM   28  C   UNL     1      20.177  51.768  40.100  1.00  0.00     0.010 C 
HETATM   29  C   UNL     1      21.594  51.355  40.495  1.00  0.00     0.015 C 
HETATM   30  C   UNL     1      19.784  51.153  38.752  1.00  0.00     0.015 C 
ENDBRANCH  25  28
ENDBRANCH   7  22
BRANCH  10  31
HETATM   31  C   UNL     1      17.467  48.876  46.393  1.00  0.00     0.256 C 
HETATM   32  N   UNL     1      17.311  49.865  47.339  1.00  0.00    -0.323 N 
HETATM   33  H   UNL     1      16.498  50.460  47.301  1.00  0.00     0.169 HD
HETATM   34  O   UNL     1      18.326  48.005  46.380  1.00  0.00    -0.267 OA
BRANCH  32  35
HETATM   35  C   UNL     1      18.219  50.258  48.345  1.00  0.00     0.035 A 
HETATM   36  C   UNL     1      18.341  49.626  49.581  1.00  0.00     0.029 A 
HETATM   37  C   UNL     1      19.357  50.007  50.466  1.00  0.00     0.002 A 
HETATM   38  C   UNL     1      20.242  51.030  50.127  1.00  0.00     0.000 A 
HETATM   39  C   UNL     1      20.109  51.684  48.907  1.00  0.00     0.002 A 
HETATM   40  C   UNL     1      19.105  51.297  48.019  1.00  0.00     0.029 A 
ENDBRANCH  32  35
ENDBRANCH  10  31
TORSDOF 9
ENDMDL
MODEL 6
REMARK VINA RESULT:      -7.3      3.793      8.944
REMARK  9 active torsions:
REMARK  status: ('A' for Active; 'I' for Inactive)
REMARK    1  A    between atoms: C_6  and  C_7 
REMARK    2  A    between atoms: C_7  and  C_8 
REMARK       I    between atoms: C_8  and  N_9 
REMARK    3  A    between atoms: N_9  and  C_10 
REMARK    4  A    between atoms: C_10  and  C_11 
REMARK    5  A    between atoms: C_11  and  N_12 
REMARK    6  A    between atoms: C_17  and  C_18 
REMARK    7  A    between atoms: C_21  and  C_22 
REMARK    8  A    between atoms: C_29  and  C_30 
REMARK       I    between atoms: C_30  and  N_31 
REMARK    9  A    between atoms: N_31  and  C_32 
ROOT
HETATM    1  C   UNL     1      15.134  48.431  46.408  1.00  0.00     0.071 C 
HETATM    2  C   UNL     1      15.006  49.850  45.904  1.00  0.00     0.047 C 
HETATM    3  N   UNL     1      13.946  50.013  45.024  1.00  0.00    -0.229 NA
HETATM    4  C   UNL     1      13.609  51.219  44.722  1.00  0.00     0.170 C 
HETATM    5  N   UNL     1      14.429  52.483  45.097  1.00  0.00    -0.319 N 
HETATM    6  C   UNL     1      13.743  53.566  44.937  1.00  0.00     0.011 C 
HETATM    7  C   UNL     1      15.837  52.145  45.402  1.00  0.00     0.165 C 
HETATM    8  S   UNL     1      12.125  51.640  43.938  1.00  0.00    -0.086 SA
HETATM    9  C   UNL     1      12.313  53.368  44.481  1.00  0.00     0.135 C 
HETATM   10  C   UNL     1      15.813  50.882  46.253  1.00  0.00     0.062 C 
ENDROOT
BRANCH   6  11
HETATM   11  C   UNL     1      14.331  54.933  45.136  1.00  0.00     0.156 C 
BRANCH  11  12
HETATM   12  C   UNL     1      13.906  55.636  46.410  1.00  0.00     0.223 C 
HETATM   13  N   UNL     1      14.225  54.960  47.560  1.00  0.00    -0.359 N 
HETATM   14  H   UNL     1      14.637  54.034  47.461  1.00  0.00     0.162 HD
HETATM   15  O   UNL     1      13.297  56.701  46.391  1.00  0.00    -0.273 OA
BRANCH  13  16
HETATM   16  C   UNL     1      13.733  55.232  48.915  1.00  0.00     0.150 C 
BRANCH  16  17
HETATM   17  C   UNL     1      14.600  56.080  49.870  1.00  0.00     0.253 C 
BRANCH  17  18
HETATM   18  N   UNL     1      15.181  55.289  51.023  1.00  0.00    -0.077 N 
HETATM   19  H   UNL     1      16.176  55.117  50.777  1.00  0.00     0.279 HD
HETATM   20  C   UNL     1      15.154  56.003  52.348  1.00  0.00     0.269 C 
HETATM   21  C   UNL     1      14.534  53.932  51.137  1.00  0.00     0.269 C 
ENDBRANCH  17  18
ENDBRANCH  16  17
ENDBRANCH  13  16
ENDBRANCH  11  12
ENDBRANCH   6  11
BRANCH   7  22
HETATM   22  C   UNL     1      16.597  52.022  44.063  1.00  0.00    -0.030 A 
HETATM   23  C   UNL     1      17.337  50.860  43.769  1.00  0.00     0.010 A 
HETATM   24  C   UNL     1      18.216  50.807  42.680  1.00  0.00     0.008 A 
HETATM   25  C   UNL     1      18.364  51.902  41.826  1.00  0.00    -0.055 A 
HETATM   26  C   UNL     1      17.551  53.018  42.040  1.00  0.00     0.008 A 
HETATM   27  C   UNL     1      16.680  53.076  43.134  1.00  0.00     0.010 A 
BRANCH  25  28
HETATM   28  C   UNL     1      19.395  51.865  40.708  1.00  0.00     0.010 C 
HETATM   29  C   UNL     1      20.636  51.066  41.102  1.00  0.00     0.015 C 
HETATM   30  C   UNL     1      18.788  51.326  39.408  1.00  0.00     0.015 C 
ENDBRANCH  25  28
ENDBRANCH   7  22
BRANCH  10  31
HETATM   31  C   UNL     1      16.602  51.013  47.524  1.00  0.00     0.256 C 
HETATM   32  N   UNL     1      17.860  51.548  47.353  1.00  0.00    -0.323 N 
HETATM   33  H   UNL     1      18.056  52.090  46.526  1.00  0.00     0.169 HD
HETATM   34  O   UNL     1      16.179  50.444  48.522  1.00  0.00    -0.267 OA
BRANCH  32  35
HETATM   35  C   UNL     1      19.005  51.356  48.154  1.00  0.00     0.035 A 
HETATM   36  C   UNL     1      19.066  51.641  49.517  1.00  0.00     0.029 A 
HETATM   37  C   UNL     1      20.205  51.298  50.254  1.00  0.00     0.002 A 
HETATM   38  C   UNL     1      21.292  50.685  49.632  1.00  0.00     0.000 A 
HETATM   39  C   UNL     1      21.250  50.422  48.267  1.00  0.00     0.002 A 
HETATM   40  C   UNL     1      20.110  50.751  47.533  1.00  0.00     0.029 A 
ENDBRANCH  32  35
ENDBRANCH  10  31
TORSDOF 9
ENDMDL
MODEL 7
REMARK VINA RESULT:      -7.2      2.210      5.840
REMARK  9 active torsions:
REMARK  status: ('A' for Active; 'I' for Inactive)
REMARK    1  A    between atoms: C_6  and  C_7 
REMARK    2  A    between atoms: C_7  and  C_8 
REMARK       I    between atoms: C_8  and  N_9 
REMARK    3  A    between atoms: N_9  and  C_10 
REMARK    4  A    between atoms: C_10  and  C_11 
REMARK    5  A    between atoms: C_11  and  N_12 
REMARK    6  A    between atoms: C_17  and  C_18 
REMARK    7  A    between atoms: C_21  and  C_22 
REMARK    8  A    between atoms: C_29  and  C_30 
REMARK       I    between atoms: C_30  and  N_31 
REMARK    9  A    between atoms: N_31  and  C_32 
ROOT
HETATM    1  C   UNL     1      14.903  48.091  46.318  1.00  0.00     0.071 C 
HETATM    2  C   UNL     1      15.921  49.151  46.669  1.00  0.00     0.047 C 
HETATM    3  N   UNL     1      15.370  50.212  47.373  1.00  0.00    -0.229 NA
HETATM    4  C   UNL     1      16.186  51.047  47.917  1.00  0.00     0.170 C 
HETATM    5  N   UNL     1      17.718  51.074  47.666  1.00  0.00    -0.319 N 
HETATM    6  C   UNL     1      18.336  51.800  48.538  1.00  0.00     0.011 C 
HETATM    7  C   UNL     1      18.073  50.380  46.408  1.00  0.00     0.165 C 
HETATM    8  S   UNL     1      15.722  52.214  49.108  1.00  0.00    -0.086 SA
HETATM    9  C   UNL     1      17.461  52.409  49.612  1.00  0.00     0.135 C 
HETATM   10  C   UNL     1      17.239  49.108  46.354  1.00  0.00     0.062 C 
ENDROOT
BRANCH   6  11
HETATM   11  C   UNL     1      19.811  52.072  48.465  1.00  0.00     0.156 C 
BRANCH  11  12
HETATM   12  C   UNL     1      20.698  50.891  48.803  1.00  0.00     0.223 C 
HETATM   13  N   UNL     1      21.940  50.935  48.223  1.00  0.00    -0.359 N 
HETATM   14  H   UNL     1      22.126  51.694  47.571  1.00  0.00     0.162 HD
HETATM   15  O   UNL     1      20.306  49.966  49.508  1.00  0.00    -0.273 OA
BRANCH  13  16
HETATM   16  C   UNL     1      22.918  49.845  48.137  1.00  0.00     0.150 C 
BRANCH  16  17
HETATM   17  C   UNL     1      24.303  50.029  48.793  1.00  0.00     0.253 C 
BRANCH  17  18
HETATM   18  N   UNL     1      25.140  48.766  48.806  1.00  0.00    -0.077 N 
HETATM   19  H   UNL     1      25.015  48.333  47.869  1.00  0.00     0.279 HD
HETATM   20  C   UNL     1      26.613  48.993  49.013  1.00  0.00     0.269 C 
HETATM   21  C   UNL     1      24.610  47.769  49.805  1.00  0.00     0.269 C 
ENDBRANCH  17  18
ENDBRANCH  16  17
ENDBRANCH  13  16
ENDBRANCH  11  12
ENDBRANCH   6  11
BRANCH   7  22
HETATM   22  C   UNL     1      17.843  51.367  45.241  1.00  0.00    -0.030 A 
HETATM   23  C   UNL     1      17.248  52.623  45.478  1.00  0.00     0.010 A 
HETATM   24  C   UNL     1      16.818  53.440  44.426  1.00  0.00     0.008 A 
HETATM   25  C   UNL     1      16.995  53.049  43.097  1.00  0.00    -0.055 A 
HETATM   26  C   UNL     1      17.687  51.860  42.848  1.00  0.00     0.008 A 
HETATM   27  C   UNL     1      18.108  51.037  43.900  1.00  0.00     0.010 A 
BRANCH  25  28
HETATM   28  C   UNL     1      16.435  53.900  41.968  1.00  0.00     0.010 C 
HETATM   29  C   UNL     1      17.101  53.583  40.630  1.00  0.00     0.015 C 
HETATM   30  C   UNL     1      14.912  53.760  41.868  1.00  0.00     0.015 C 
ENDBRANCH  25  28
ENDBRANCH   7  22
BRANCH  10  31
HETATM   31  C   UNL     1      18.061  47.875  46.108  1.00  0.00     0.256 C 
HETATM   32  N   UNL     1      18.537  47.278  47.254  1.00  0.00    -0.323 N 
HETATM   33  H   UNL     1      18.084  47.470  48.134  1.00  0.00     0.169 HD
HETATM   34  O   UNL     1      18.421  47.646  44.960  1.00  0.00    -0.267 OA
BRANCH  32  35
HETATM   35  C   UNL     1      19.688  46.475  47.405  1.00  0.00     0.035 A 
HETATM   36  C   UNL     1      19.662  45.092  47.576  1.00  0.00     0.029 A 
HETATM   37  C   UNL     1      20.859  44.366  47.590  1.00  0.00     0.002 A 
HETATM   38  C   UNL     1      22.084  45.018  47.449  1.00  0.00     0.000 A 
HETATM   39  C   UNL     1      22.118  46.401  47.305  1.00  0.00     0.002 A 
HETATM   40  C   UNL     1      20.926  47.125  47.279  1.00  0.00     0.029 A 
ENDBRANCH  32  35
ENDBRANCH  10  31
TORSDOF 9
ENDMDL
MODEL 8
REMARK VINA RESULT:      -7.1      3.274      5.811
REMARK  9 active torsions:
REMARK  status: ('A' for Active; 'I' for Inactive)
REMARK    1  A    between atoms: C_6  and  C_7 
REMARK    2  A    between atoms: C_7  and  C_8 
REMARK       I    between atoms: C_8  and  N_9 
REMARK    3  A    between atoms: N_9  and  C_10 
REMARK    4  A    between atoms: C_10  and  C_11 
REMARK    5  A    between atoms: C_11  and  N_12 
REMARK    6  A    between atoms: C_17  and  C_18 
REMARK    7  A    between atoms: C_21  and  C_22 
REMARK    8  A    between atoms: C_29  and  C_30 
REMARK       I    between atoms: C_30  and  N_31 
REMARK    9  A    between atoms: N_31  and  C_32 
ROOT
HETATM    1  C   UNL     1      16.553  51.168  49.060  1.00  0.00     0.071 C 
HETATM    2  C   UNL     1      17.327  50.167  48.233  1.00  0.00     0.047 C 
HETATM    3  N   UNL     1      17.253  48.879  48.744  1.00  0.00    -0.229 NA
HETATM    4  C   UNL     1      17.677  47.921  47.994  1.00  0.00     0.170 C 
HETATM    5  N   UNL     1      18.454  48.120  46.665  1.00  0.00    -0.319 N 
HETATM    6  C   UNL     1      18.509  47.032  45.971  1.00  0.00     0.011 C 
HETATM    7  C   UNL     1      19.065  49.467  46.591  1.00  0.00     0.165 C 
HETATM    8  S   UNL     1      17.356  46.247  48.292  1.00  0.00    -0.086 SA
HETATM    9  C   UNL     1      17.780  45.846  46.566  1.00  0.00     0.135 C 
HETATM   10  C   UNL     1      18.025  50.452  47.107  1.00  0.00     0.062 C 
ENDROOT
BRANCH   6  11
HETATM   11  C   UNL     1      19.284  46.926  44.690  1.00  0.00     0.156 C 
BRANCH  11  12
HETATM   12  C   UNL     1      20.096  45.656  44.534  1.00  0.00     0.223 C 
HETATM   13  N   UNL     1      21.329  45.698  45.131  1.00  0.00    -0.359 N 
HETATM   14  H   UNL     1      21.618  46.580  45.548  1.00  0.00     0.162 HD
HETATM   15  O   UNL     1      19.680  44.697  43.891  1.00  0.00    -0.273 OA
BRANCH  13  16
HETATM   16  C   UNL     1      22.438  44.755  44.945  1.00  0.00     0.150 C 
BRANCH  16  17
HETATM   17  C   UNL     1      23.279  44.835  43.654  1.00  0.00     0.253 C 
BRANCH  17  18
HETATM   18  N   UNL     1      24.633  44.166  43.771  1.00  0.00    -0.077 N 
HETATM   19  H   UNL     1      25.010  44.447  44.698  1.00  0.00     0.279 HD
HETATM   20  C   UNL     1      24.594  42.663  43.727  1.00  0.00     0.269 C 
HETATM   21  C   UNL     1      25.598  44.703  42.744  1.00  0.00     0.269 C 
ENDBRANCH  17  18
ENDBRANCH  16  17
ENDBRANCH  13  16
ENDBRANCH  11  12
ENDBRANCH   6  11
BRANCH   7  22
HETATM   22  C   UNL     1      20.390  49.432  47.386  1.00  0.00    -0.030 A 
HETATM   23  C   UNL     1      20.981  50.629  47.835  1.00  0.00     0.010 A 
HETATM   24  C   UNL     1      22.283  50.654  48.351  1.00  0.00     0.008 A 
HETATM   25  C   UNL     1      23.030  49.480  48.467  1.00  0.00    -0.055 A 
HETATM   26  C   UNL     1      22.412  48.271  48.132  1.00  0.00     0.008 A 
HETATM   27  C   UNL     1      21.115  48.246  47.606  1.00  0.00     0.010 A 
BRANCH  25  28
HETATM   28  C   UNL     1      24.475  49.536  48.936  1.00  0.00     0.010 C 
HETATM   29  C   UNL     1      24.965  48.179  49.439  1.00  0.00     0.015 C 
HETATM   30  C   UNL     1      25.397  50.077  47.837  1.00  0.00     0.015 C 
ENDBRANCH  25  28
ENDBRANCH   7  22
BRANCH  10  31
HETATM   31  C   UNL     1      17.777  51.594  46.164  1.00  0.00     0.256 C 
HETATM   32  N   UNL     1      17.401  51.206  44.897  1.00  0.00    -0.323 N 
HETATM   33  H   UNL     1      17.016  50.285  44.758  1.00  0.00     0.169 HD
HETATM   34  O   UNL     1      18.139  52.711  46.509  1.00  0.00    -0.267 OA
BRANCH  32  35
HETATM   35  C   UNL     1      17.577  51.904  43.683  1.00  0.00     0.035 A 
HETATM   36  C   UNL     1      18.323  51.428  42.607  1.00  0.00     0.029 A 
HETATM   37  C   UNL     1      18.335  52.133  41.397  1.00  0.00     0.002 A 
HETATM   38  C   UNL     1      17.619  53.322  41.264  1.00  0.00     0.000 A 
HETATM   39  C   UNL     1      16.895  53.818  42.343  1.00  0.00     0.002 A 
HETATM   40  C   UNL     1      16.871  53.109  43.545  1.00  0.00     0.029 A 
ENDBRANCH  32  35
ENDBRANCH  10  31
TORSDOF 9
ENDMDL
MODEL 9
REMARK VINA RESULT:      -7.1      2.936      5.827
REMARK  9 active torsions:
REMARK  status: ('A' for Active; 'I' for Inactive)
REMARK    1  A    between atoms: C_6  and  C_7 
REMARK    2  A    between atoms: C_7  and  C_8 
REMARK       I    between atoms: C_8  and  N_9 
REMARK    3  A    between atoms: N_9  and  C_10 
REMARK    4  A    between atoms: C_10  and  C_11 
REMARK    5  A    between atoms: C_11  and  N_12 
REMARK    6  A    between atoms: C_17  and  C_18 
REMARK    7  A    between atoms: C_21  and  C_22 
REMARK    8  A    between atoms: C_29  and  C_30 
REMARK       I    between atoms: C_30  and  N_31 
REMARK    9  A    between atoms: N_31  and  C_32 
ROOT
HETATM    1  C   UNL     1      16.809  47.207  48.776  1.00  0.00     0.071 C 
HETATM    2  C   UNL     1      17.981  48.103  48.446  1.00  0.00     0.047 C 
HETATM    3  N   UNL     1      18.157  49.119  49.374  1.00  0.00    -0.229 NA
HETATM    4  C   UNL     1      19.257  49.788  49.315  1.00  0.00     0.170 C 
HETATM    5  N   UNL     1      20.291  49.685  48.163  1.00  0.00    -0.319 N 
HETATM    6  C   UNL     1      21.420  50.227  48.479  1.00  0.00     0.011 C 
HETATM    7  C   UNL     1      19.682  49.121  46.937  1.00  0.00     0.165 C 
HETATM    8  S   UNL     1      19.816  50.839  50.571  1.00  0.00    -0.086 SA
HETATM    9  C   UNL     1      21.501  50.786  49.883  1.00  0.00     0.135 C 
HETATM   10  C   UNL     1      18.801  47.960  47.376  1.00  0.00     0.062 C 
ENDROOT
BRANCH   6  11
HETATM   11  C   UNL     1      22.559  50.349  47.509  1.00  0.00     0.156 C 
BRANCH  11  12
HETATM   12  C   UNL     1      23.847  49.680  47.944  1.00  0.00     0.223 C 
HETATM   13  N   UNL     1      23.669  48.569  48.727  1.00  0.00    -0.359 N 
HETATM   14  H   UNL     1      22.717  48.340  49.006  1.00  0.00     0.162 HD
HETATM   15  O   UNL     1      24.947  50.132  47.641  1.00  0.00    -0.273 OA
BRANCH  13  16
HETATM   16  C   UNL     1      24.688  47.863  49.512  1.00  0.00     0.150 C 
BRANCH  16  17
HETATM   17  C   UNL     1      24.388  46.436  50.017  1.00  0.00     0.253 C 
BRANCH  17  18
HETATM   18  N   UNL     1      25.339  45.963  51.097  1.00  0.00    -0.077 N 
HETATM   19  H   UNL     1      26.175  45.598  50.600  1.00  0.00     0.279 HD
HETATM   20  C   UNL     1      25.801  47.041  52.040  1.00  0.00     0.269 C 
HETATM   21  C   UNL     1      24.762  44.800  51.863  1.00  0.00     0.269 C 
ENDBRANCH  17  18
ENDBRANCH  16  17
ENDBRANCH  13  16
ENDBRANCH  11  12
ENDBRANCH   6  11
BRANCH   7  22
HETATM   22  C   UNL     1      18.947  50.266  46.203  1.00  0.00    -0.030 A 
HETATM   23  C   UNL     1      18.484  51.388  46.919  1.00  0.00     0.010 A 
HETATM   24  C   UNL     1      17.622  52.324  46.335  1.00  0.00     0.008 A 
HETATM   25  C   UNL     1      17.216  52.192  45.005  1.00  0.00    -0.055 A 
HETATM   26  C   UNL     1      17.759  51.147  44.252  1.00  0.00     0.008 A 
HETATM   27  C   UNL     1      18.613  50.204  44.838  1.00  0.00     0.010 A 
BRANCH  25  28
HETATM   28  C   UNL     1      16.202  53.160  44.416  1.00  0.00     0.010 C 
HETATM   29  C   UNL     1      16.758  53.896  43.197  1.00  0.00     0.015 C 
HETATM   30  C   UNL     1      14.887  52.451  44.073  1.00  0.00     0.015 C 
ENDBRANCH  25  28
ENDBRANCH   7  22
BRANCH  10  31
HETATM   31  C   UNL     1      19.087  46.688  46.630  1.00  0.00     0.256 C 
HETATM   32  N   UNL     1      19.864  45.790  47.327  1.00  0.00    -0.323 N 
HETATM   33  H   UNL     1      19.921  45.863  48.331  1.00  0.00     0.169 HD
HETATM   34  O   UNL     1      18.820  46.652  45.436  1.00  0.00    -0.267 OA
BRANCH  32  35
HETATM   35  C   UNL     1      20.719  44.793  46.811  1.00  0.00     0.035 A 
HETATM   36  C   UNL     1      20.277  43.606  46.230  1.00  0.00     0.029 A 
HETATM   37  C   UNL     1      21.195  42.735  45.631  1.00  0.00     0.002 A 
HETATM   38  C   UNL     1      22.557  43.038  45.626  1.00  0.00     0.000 A 
HETATM   39  C   UNL     1      23.007  44.207  46.228  1.00  0.00     0.002 A 
HETATM   40  C   UNL     1      22.092  45.082  46.813  1.00  0.00     0.029 A 
ENDBRANCH  32  35
ENDBRANCH  10  31
TORSDOF 9
ENDMDL
MODEL 10
REMARK VINA RESULT:      -7.0     15.589     21.040
REMARK  9 active torsions:
REMARK  status: ('A' for Active; 'I' for Inactive)
REMARK    1  A    between atoms: C_6  and  C_7 
REMARK    2  A    between atoms: C_7  and  C_8 
REMARK       I    between atoms: C_8  and  N_9 
REMARK    3  A    between atoms: N_9  and  C_10 
REMARK    4  A    between atoms: C_10  and  C_11 
REMARK    5  A    between atoms: C_11  and  N_12 
REMARK    6  A    between atoms: C_17  and  C_18 
REMARK    7  A    between atoms: C_21  and  C_22 
REMARK    8  A    between atoms: C_29  and  C_30 
REMARK       I    between atoms: C_30  and  N_31 
REMARK    9  A    between atoms: N_31  and  C_32 
ROOT
HETATM    1  C   UNL     1      38.181  56.334  44.856  1.00  0.00     0.071 C 
HETATM    2  C   UNL     1      38.238  55.121  43.956  1.00  0.00     0.047 C 
HETATM    3  N   UNL     1      38.087  55.440  42.614  1.00  0.00    -0.229 NA
HETATM    4  C   UNL     1      38.353  54.519  41.754  1.00  0.00     0.170 C 
HETATM    5  N   UNL     1      38.617  53.031  42.110  1.00  0.00    -0.319 N 
HETATM    6  C   UNL     1      39.137  52.385  41.119  1.00  0.00     0.011 C 
HETATM    7  C   UNL     1      38.074  52.688  43.443  1.00  0.00     0.165 C 
HETATM    8  S   UNL     1      38.565  54.810  40.062  1.00  0.00    -0.086 SA
HETATM    9  C   UNL     1      39.413  53.208  39.880  1.00  0.00     0.135 C 
HETATM   10  C   UNL     1      38.421  53.844  44.372  1.00  0.00     0.062 C 
ENDROOT
BRANCH   6  11
HETATM   11  C   UNL     1      39.402  50.908  41.167  1.00  0.00     0.156 C 
BRANCH  11  12
HETATM   12  C   UNL     1      40.800  50.520  41.604  1.00  0.00     0.223 C 
HETATM   13  N   UNL     1      41.053  49.173  41.553  1.00  0.00    -0.359 N 
HETATM   14  H   UNL     1      40.279  48.559  41.309  1.00  0.00     0.162 HD
HETATM   15  O   UNL     1      41.609  51.352  42.001  1.00  0.00    -0.273 OA
BRANCH  13  16
HETATM   16  C   UNL     1      42.191  48.461  42.144  1.00  0.00     0.150 C 
BRANCH  16  17
HETATM   17  C   UNL     1      42.128  48.053  43.631  1.00  0.00     0.253 C 
BRANCH  17  18
HETATM   18  N   UNL     1      40.720  48.019  44.190  1.00  0.00    -0.077 N 
HETATM   19  H   UNL     1      40.087  48.129  43.373  1.00  0.00     0.279 HD
HETATM   20  C   UNL     1      40.353  46.735  44.884  1.00  0.00     0.269 C 
HETATM   21  C   UNL     1      40.460  49.201  45.089  1.00  0.00     0.269 C 
ENDBRANCH  17  18
ENDBRANCH  16  17
ENDBRANCH  13  16
ENDBRANCH  11  12
ENDBRANCH   6  11
BRANCH   7  22
HETATM   22  C   UNL     1      36.564  52.403  43.282  1.00  0.00    -0.030 A 
HETATM   23  C   UNL     1      35.676  52.648  44.349  1.00  0.00     0.010 A 
HETATM   24  C   UNL     1      34.353  52.192  44.320  1.00  0.00     0.008 A 
HETATM   25  C   UNL     1      33.858  51.502  43.210  1.00  0.00    -0.055 A 
HETATM   26  C   UNL     1      34.694  51.355  42.100  1.00  0.00     0.008 A 
HETATM   27  C   UNL     1      36.021  51.801  42.133  1.00  0.00     0.010 A 
BRANCH  25  28
HETATM   28  C   UNL     1      32.450  50.927  43.234  1.00  0.00     0.010 C 
HETATM   29  C   UNL     1      31.419  51.919  42.698  1.00  0.00     0.015 C 
HETATM   30  C   UNL     1      32.378  49.598  42.473  1.00  0.00     0.015 C 
ENDBRANCH  25  28
ENDBRANCH   7  22
BRANCH  10  31
HETATM   31  C   UNL     1      39.110  53.402  45.631  1.00  0.00     0.256 C 
HETATM   32  N   UNL     1      40.342  53.984  45.832  1.00  0.00    -0.323 N 
HETATM   33  H   UNL     1      40.563  54.846  45.358  1.00  0.00     0.169 HD
HETATM   34  O   UNL     1      38.654  52.433  46.224  1.00  0.00    -0.267 OA
BRANCH  32  35
HETATM   35  C   UNL     1      41.438  53.475  46.561  1.00  0.00     0.035 A 
HETATM   36  C   UNL     1      42.272  52.454  46.111  1.00  0.00     0.029 A 
HETATM   37  C   UNL     1      43.410  52.103  46.847  1.00  0.00     0.002 A 
HETATM   38  C   UNL     1      43.710  52.759  48.041  1.00  0.00     0.000 A 
HETATM   39  C   UNL     1      42.867  53.761  48.509  1.00  0.00     0.002 A 
HETATM   40  C   UNL     1      41.740  54.120  47.771  1.00  0.00     0.029 A 
ENDBRANCH  32  35
ENDBRANCH  10  31
TORSDOF 9
ENDMDL
