MODEL 1
REMARK VINA RESULT:      -9.9      0.000      0.000
REMARK  6 active torsions:
REMARK  status: ('A' for Active; 'I' for Inactive)
REMARK    1  A    between atoms: C_4  and  C_5 
REMARK    2  A    between atoms: C_5  and  C_6 
REMARK    3  A    between atoms: C_6  and  C_7 
REMARK    4  A    between atoms: C_7  and  N_8 
REMARK    5  A    between atoms: C_11  and  C_13 
REMARK    6  A    between atoms: C_11  and  O_12 
ROOT
HETATM    1  N   UNL     1      26.441  45.843  53.672  1.00  0.00    -0.314 N 
HETATM    2  C   UNL     1      26.320  44.459  53.913  1.00  0.00     0.269 A 
HETATM    3  O   UNL     1      26.379  43.921  55.009  1.00  0.00    -0.269 OA
HETATM    4  C   UNL     1      25.993  43.785  52.537  1.00  0.00     0.198 A 
HETATM    5  C   UNL     1      26.046  44.961  51.591  1.00  0.00     0.017 A 
HETATM    6  C   UNL     1      26.289  46.137  52.309  1.00  0.00     0.047 A 
HETATM    7  C   UNL     1      25.835  44.995  50.218  1.00  0.00     0.013 A 
HETATM    8  C   UNL     1      25.894  46.229  49.569  1.00  0.00     0.001 A 
HETATM    9  C   UNL     1      26.150  47.405  50.294  1.00  0.00     0.002 A 
HETATM   10  C   UNL     1      26.348  47.366  51.677  1.00  0.00     0.030 A 
ENDROOT
BRANCH   4  11
HETATM   11  C   UNL     1      27.026  42.779  52.096  1.00  0.00     0.018 A 
HETATM   12  C   UNL     1      26.896  41.687  51.161  1.00  0.00     0.002 A 
HETATM   13  C   UNL     1      28.137  41.050  51.078  1.00  0.00     0.043 A 
HETATM   14  C   UNL     1      25.842  41.170  50.379  1.00  0.00     0.014 A 
HETATM   15  C   UNL     1      28.374  39.940  50.257  1.00  0.00     0.030 A 
HETATM   16  N   UNL     1      28.994  41.717  51.919  1.00  0.00    -0.365 N 
HETATM   17  C   UNL     1      27.308  39.454  49.496  1.00  0.00     0.002 A 
HETATM   18  C   UNL     1      26.058  40.057  49.556  1.00  0.00     0.001 A 
HETATM   19  H   UNL     1      29.965  41.477  52.055  1.00  0.00     0.165 HD
HETATM   20  C   UNL     1      28.343  42.746  52.534  1.00  0.00     0.100 A 
ENDBRANCH   4  11
BRANCH   4  21
HETATM   21  O   UNL     1      24.670  43.249  52.526  1.00  0.00    -0.371 OA
HETATM   22  H   UNL     1      24.117  43.892  52.055  1.00  0.00     0.212 HD
ENDBRANCH   4  21
BRANCH   1  23
HETATM   23  C   UNL     1      26.612  46.813  54.732  1.00  0.00     0.133 C 
BRANCH  23  24
HETATM   24  C   UNL     1      28.067  47.028  55.145  1.00  0.00     0.025 C 
BRANCH  24  25
HETATM   25  C   UNL     1      28.354  46.568  56.575  1.00  0.00     0.040 C 
BRANCH  25  26
HETATM   26  C   UNL     1      29.460  45.542  56.613  1.00  0.00    -0.058 A 
HETATM   27  C   UNL     1      29.706  44.723  55.502  1.00  0.00     0.007 A 
HETATM   28  C   UNL     1      30.717  43.762  55.541  1.00  0.00     0.001 A 
HETATM   29  C   UNL     1      31.486  43.604  56.694  1.00  0.00     0.000 A 
HETATM   30  C   UNL     1      31.242  44.407  57.806  1.00  0.00     0.001 A 
HETATM   31  C   UNL     1      30.234  45.371  57.768  1.00  0.00     0.007 A 
ENDBRANCH  25  26
ENDBRANCH  24  25
ENDBRANCH  23  24
ENDBRANCH   1  23
TORSDOF 6
ENDMDL
MODEL 2
REMARK VINA RESULT:      -9.6      2.327      5.424
REMARK  6 active torsions:
REMARK  status: ('A' for Active; 'I' for Inactive)
REMARK    1  A    between atoms: C_4  and  C_5 
REMARK    2  A    between atoms: C_5  and  C_6 
REMARK    3  A    between atoms: C_6  and  C_7 
REMARK    4  A    between atoms: C_7  and  N_8 
REMARK    5  A    between atoms: C_11  and  C_13 
REMARK    6  A    between atoms: C_11  and  O_12 
ROOT
HETATM    1  N   UNL     1      27.406  44.368  51.947  1.00  0.00    -0.314 N 
HETATM    2  C   UNL     1      26.916  44.606  50.646  1.00  0.00     0.269 A 
HETATM    3  O   UNL     1      27.132  43.907  49.666  1.00  0.00    -0.269 OA
HETATM    4  C   UNL     1      25.974  45.855  50.737  1.00  0.00     0.198 A 
HETATM    5  C   UNL     1      26.116  46.249  52.188  1.00  0.00     0.017 A 
HETATM    6  C   UNL     1      26.944  45.336  52.849  1.00  0.00     0.047 A 
HETATM    7  C   UNL     1      25.511  47.293  52.878  1.00  0.00     0.013 A 
HETATM    8  C   UNL     1      25.769  47.421  54.243  1.00  0.00     0.001 A 
HETATM    9  C   UNL     1      26.611  46.508  54.899  1.00  0.00     0.002 A 
HETATM   10  C   UNL     1      27.205  45.452  54.203  1.00  0.00     0.030 A 
ENDROOT
BRANCH   4  11
HETATM   11  C   UNL     1      26.425  47.015  49.888  1.00  0.00     0.018 A 
HETATM   12  C   UNL     1      25.649  48.103  49.341  1.00  0.00     0.002 A 
HETATM   13  C   UNL     1      26.522  48.934  48.635  1.00  0.00     0.043 A 
HETATM   14  C   UNL     1      24.285  48.462  49.371  1.00  0.00     0.014 A 
HETATM   15  C   UNL     1      26.104  50.094  47.971  1.00  0.00     0.030 A 
HETATM   16  N   UNL     1      27.778  48.389  48.740  1.00  0.00    -0.365 N 
HETATM   17  C   UNL     1      24.747  50.421  48.021  1.00  0.00     0.002 A 
HETATM   18  C   UNL     1      23.847  49.616  48.709  1.00  0.00     0.001 A 
HETATM   19  H   UNL     1      28.611  48.785  48.330  1.00  0.00     0.165 HD
HETATM   20  C   UNL     1      27.733  47.244  49.480  1.00  0.00     0.100 A 
ENDBRANCH   4  11
BRANCH   4  21
HETATM   21  O   UNL     1      24.614  45.494  50.491  1.00  0.00    -0.371 OA
HETATM   22  H   UNL     1      24.210  45.342  51.360  1.00  0.00     0.212 HD
ENDBRANCH   4  21
BRANCH   1  23
HETATM   23  C   UNL     1      28.208  43.211  52.283  1.00  0.00     0.133 C 
BRANCH  23  24
HETATM   24  C   UNL     1      29.598  43.557  52.816  1.00  0.00     0.025 C 
BRANCH  24  25
HETATM   25  C   UNL     1      30.028  42.663  53.980  1.00  0.00     0.040 C 
BRANCH  25  26
HETATM   26  C   UNL     1      30.356  43.477  55.208  1.00  0.00    -0.058 A 
HETATM   27  C   UNL     1      31.140  42.929  56.232  1.00  0.00     0.007 A 
HETATM   28  C   UNL     1      31.430  43.673  57.377  1.00  0.00     0.001 A 
HETATM   29  C   UNL     1      30.931  44.968  57.513  1.00  0.00     0.000 A 
HETATM   30  C   UNL     1      30.142  45.517  56.504  1.00  0.00     0.001 A 
HETATM   31  C   UNL     1      29.853  44.776  55.357  1.00  0.00     0.007 A 
ENDBRANCH  25  26
ENDBRANCH  24  25
ENDBRANCH  23  24
ENDBRANCH   1  23
TORSDOF 6
ENDMDL
MODEL 3
REMARK VINA RESULT:      -9.3      4.574      8.548
REMARK  6 active torsions:
REMARK  status: ('A' for Active; 'I' for Inactive)
REMARK    1  A    between atoms: C_4  and  C_5 
REMARK    2  A    between atoms: C_5  and  C_6 
REMARK    3  A    between atoms: C_6  and  C_7 
REMARK    4  A    between atoms: C_7  and  N_8 
REMARK    5  A    between atoms: C_11  and  C_13 
REMARK    6  A    between atoms: C_11  and  O_12 
ROOT
HETATM    1  N   UNL     1      24.026  47.786  49.062  1.00  0.00    -0.314 N 
HETATM    2  C   UNL     1      24.175  46.508  49.639  1.00  0.00     0.269 A 
HETATM    3  O   UNL     1      23.280  45.688  49.792  1.00  0.00    -0.269 OA
HETATM    4  C   UNL     1      25.701  46.319  49.938  1.00  0.00     0.198 A 
HETATM    5  C   UNL     1      26.270  47.656  49.524  1.00  0.00     0.017 A 
HETATM    6  C   UNL     1      25.252  48.462  49.001  1.00  0.00     0.047 A 
HETATM    7  C   UNL     1      27.587  48.097  49.550  1.00  0.00     0.013 A 
HETATM    8  C   UNL     1      27.867  49.374  49.063  1.00  0.00     0.001 A 
HETATM    9  C   UNL     1      26.840  50.184  48.551  1.00  0.00     0.002 A 
HETATM   10  C   UNL     1      25.519  49.729  48.514  1.00  0.00     0.030 A 
ENDROOT
BRANCH   4  11
HETATM   11  C   UNL     1      26.010  46.108  51.398  1.00  0.00     0.018 A 
HETATM   12  C   UNL     1      26.874  45.129  52.016  1.00  0.00     0.002 A 
HETATM   13  C   UNL     1      26.840  45.346  53.396  1.00  0.00     0.043 A 
HETATM   14  C   UNL     1      27.677  44.072  51.539  1.00  0.00     0.014 A 
HETATM   15  C   UNL     1      27.567  44.572  54.309  1.00  0.00     0.030 A 
HETATM   16  N   UNL     1      25.999  46.408  53.621  1.00  0.00    -0.365 N 
HETATM   17  C   UNL     1      28.353  43.534  53.804  1.00  0.00     0.002 A 
HETATM   18  C   UNL     1      28.407  43.284  52.438  1.00  0.00     0.001 A 
HETATM   19  H   UNL     1      25.791  46.791  54.532  1.00  0.00     0.165 HD
HETATM   20  C   UNL     1      25.496  46.867  52.440  1.00  0.00     0.100 A 
ENDBRANCH   4  11
BRANCH   4  21
HETATM   21  O   UNL     1      26.267  45.305  49.107  1.00  0.00    -0.371 OA
HETATM   22  H   UNL     1      27.229  45.361  49.222  1.00  0.00     0.212 HD
ENDBRANCH   4  21
BRANCH   1  23
HETATM   23  C   UNL     1      22.768  48.265  48.530  1.00  0.00     0.133 C 
BRANCH  23  24
HETATM   24  C   UNL     1      22.086  49.314  49.406  1.00  0.00     0.025 C 
BRANCH  24  25
HETATM   25  C   UNL     1      21.713  50.581  48.635  1.00  0.00     0.040 C 
BRANCH  25  26
HETATM   26  C   UNL     1      20.305  51.024  48.951  1.00  0.00    -0.058 A 
HETATM   27  C   UNL     1      19.777  52.181  48.362  1.00  0.00     0.007 A 
HETATM   28  C   UNL     1      18.482  52.602  48.666  1.00  0.00     0.001 A 
HETATM   29  C   UNL     1      17.706  51.877  49.569  1.00  0.00     0.000 A 
HETATM   30  C   UNL     1      18.226  50.730  50.167  1.00  0.00     0.001 A 
HETATM   31  C   UNL     1      19.519  50.305  49.862  1.00  0.00     0.007 A 
ENDBRANCH  25  26
ENDBRANCH  24  25
ENDBRANCH  23  24
ENDBRANCH   1  23
TORSDOF 6
ENDMDL
MODEL 4
REMARK VINA RESULT:      -9.3      2.591      5.407
REMARK  6 active torsions:
REMARK  status: ('A' for Active; 'I' for Inactive)
REMARK    1  A    between atoms: C_4  and  C_5 
REMARK    2  A    between atoms: C_5  and  C_6 
REMARK    3  A    between atoms: C_6  and  C_7 
REMARK    4  A    between atoms: C_7  and  N_8 
REMARK    5  A    between atoms: C_11  and  C_13 
REMARK    6  A    between atoms: C_11  and  O_12 
ROOT
HETATM    1  N   UNL     1      26.060  45.498  52.878  1.00  0.00    -0.314 N 
HETATM    2  C   UNL     1      25.698  46.718  52.270  1.00  0.00     0.269 A 
HETATM    3  O   UNL     1      25.421  47.752  52.861  1.00  0.00    -0.269 OA
HETATM    4  C   UNL     1      25.824  46.509  50.722  1.00  0.00     0.198 A 
HETATM    5  C   UNL     1      26.205  45.050  50.633  1.00  0.00     0.017 A 
HETATM    6  C   UNL     1      26.350  44.518  51.919  1.00  0.00     0.047 A 
HETATM    7  C   UNL     1      26.464  44.277  49.508  1.00  0.00     0.013 A 
HETATM    8  C   UNL     1      26.849  42.948  49.692  1.00  0.00     0.001 A 
HETATM    9  C   UNL     1      26.980  42.416  50.985  1.00  0.00     0.002 A 
HETATM   10  C   UNL     1      26.733  43.203  52.113  1.00  0.00     0.030 A 
ENDROOT
BRANCH   4  11
HETATM   11  C   UNL     1      24.528  46.704  49.978  1.00  0.00     0.018 A 
HETATM   12  C   UNL     1      24.044  47.870  49.278  1.00  0.00     0.002 A 
HETATM   13  C   UNL     1      22.795  47.552  48.739  1.00  0.00     0.043 A 
HETATM   14  C   UNL     1      24.541  49.171  49.054  1.00  0.00     0.014 A 
HETATM   15  C   UNL     1      22.031  48.458  47.991  1.00  0.00     0.030 A 
HETATM   16  N   UNL     1      22.520  46.252  49.086  1.00  0.00    -0.365 N 
HETATM   17  C   UNL     1      22.553  49.737  47.788  1.00  0.00     0.002 A 
HETATM   18  C   UNL     1      23.790  50.092  48.313  1.00  0.00     0.001 A 
HETATM   19  H   UNL     1      21.682  45.754  48.824  1.00  0.00     0.165 HD
HETATM   20  C   UNL     1      23.543  45.738  49.827  1.00  0.00     0.100 A 
ENDBRANCH   4  11
BRANCH   4  21
HETATM   21  O   UNL     1      26.888  47.294  50.182  1.00  0.00    -0.371 OA
HETATM   22  H   UNL     1      27.401  47.618  50.939  1.00  0.00     0.212 HD
ENDBRANCH   4  21
BRANCH   1  23
HETATM   23  C   UNL     1      26.191  45.345  54.311  1.00  0.00     0.133 C 
BRANCH  23  24
HETATM   24  C   UNL     1      27.496  45.903  54.877  1.00  0.00     0.025 C 
BRANCH  24  25
HETATM   25  C   UNL     1      28.716  45.067  54.493  1.00  0.00     0.040 C 
BRANCH  25  26
HETATM   26  C   UNL     1      29.621  44.835  55.679  1.00  0.00    -0.058 A 
HETATM   27  C   UNL     1      29.582  45.700  56.780  1.00  0.00     0.007 A 
HETATM   28  C   UNL     1      30.429  45.498  57.870  1.00  0.00     0.001 A 
HETATM   29  C   UNL     1      31.331  44.435  57.865  1.00  0.00     0.000 A 
HETATM   30  C   UNL     1      31.385  43.575  56.770  1.00  0.00     0.001 A 
HETATM   31  C   UNL     1      30.535  43.773  55.680  1.00  0.00     0.007 A 
ENDBRANCH  25  26
ENDBRANCH  24  25
ENDBRANCH  23  24
ENDBRANCH   1  23
TORSDOF 6
ENDMDL
MODEL 5
REMARK VINA RESULT:      -9.3      1.994      5.127
REMARK  6 active torsions:
REMARK  status: ('A' for Active; 'I' for Inactive)
REMARK    1  A    between atoms: C_4  and  C_5 
REMARK    2  A    between atoms: C_5  and  C_6 
REMARK    3  A    between atoms: C_6  and  C_7 
REMARK    4  A    between atoms: C_7  and  N_8 
REMARK    5  A    between atoms: C_11  and  C_13 
REMARK    6  A    between atoms: C_11  and  O_12 
ROOT
HETATM    1  N   UNL     1      27.074  43.222  52.587  1.00  0.00    -0.314 N 
HETATM    2  C   UNL     1      26.976  44.579  52.218  1.00  0.00     0.269 A 
HETATM    3  O   UNL     1      27.144  45.533  52.965  1.00  0.00    -0.269 OA
HETATM    4  C   UNL     1      26.722  44.612  50.672  1.00  0.00     0.198 A 
HETATM    5  C   UNL     1      26.627  43.143  50.338  1.00  0.00     0.017 A 
HETATM    6  C   UNL     1      26.861  42.379  51.487  1.00  0.00     0.047 A 
HETATM    7  C   UNL     1      26.413  42.533  49.108  1.00  0.00     0.013 A 
HETATM    8  C   UNL     1      26.415  41.139  49.051  1.00  0.00     0.001 A 
HETATM    9  C   UNL     1      26.639  40.377  50.209  1.00  0.00     0.002 A 
HETATM   10  C   UNL     1      26.867  40.996  51.442  1.00  0.00     0.030 A 
ENDROOT
BRANCH   4  11
HETATM   11  C   UNL     1      25.421  45.268  50.287  1.00  0.00     0.018 A 
HETATM   12  C   UNL     1      25.180  46.612  49.816  1.00  0.00     0.002 A 
HETATM   13  C   UNL     1      23.809  46.739  49.580  1.00  0.00     0.043 A 
HETATM   14  C   UNL     1      25.993  47.739  49.573  1.00  0.00     0.014 A 
HETATM   15  C   UNL     1      23.219  47.920  49.113  1.00  0.00     0.030 A 
HETATM   16  N   UNL     1      23.230  45.532  49.887  1.00  0.00    -0.365 N 
HETATM   17  C   UNL     1      24.053  49.017  48.882  1.00  0.00     0.002 A 
HETATM   18  C   UNL     1      25.421  48.931  49.111  1.00  0.00     0.001 A 
HETATM   19  H   UNL     1      22.243  45.332  49.804  1.00  0.00     0.165 HD
HETATM   20  C   UNL     1      24.179  44.650  50.313  1.00  0.00     0.100 A 
ENDBRANCH   4  11
BRANCH   4  21
HETATM   21  O   UNL     1      27.840  45.168  49.978  1.00  0.00    -0.371 OA
HETATM   22  H   UNL     1      27.482  45.616  49.196  1.00  0.00     0.212 HD
ENDBRANCH   4  21
BRANCH   1  23
HETATM   23  C   UNL     1      27.437  42.796  53.921  1.00  0.00     0.133 C 
BRANCH  23  24
HETATM   24  C   UNL     1      28.880  42.308  54.044  1.00  0.00     0.025 C 
BRANCH  24  25
HETATM   25  C   UNL     1      29.899  43.447  53.986  1.00  0.00     0.040 C 
BRANCH  25  26
HETATM   26  C   UNL     1      30.252  43.942  55.367  1.00  0.00    -0.058 A 
HETATM   27  C   UNL     1      29.726  45.150  55.844  1.00  0.00     0.007 A 
HETATM   28  C   UNL     1      30.065  45.618  57.114  1.00  0.00     0.001 A 
HETATM   29  C   UNL     1      30.942  44.888  57.916  1.00  0.00     0.000 A 
HETATM   30  C   UNL     1      31.478  43.690  57.446  1.00  0.00     0.001 A 
HETATM   31  C   UNL     1      31.137  43.218  56.178  1.00  0.00     0.007 A 
ENDBRANCH  25  26
ENDBRANCH  24  25
ENDBRANCH  23  24
ENDBRANCH   1  23
TORSDOF 6
ENDMDL
MODEL 6
REMARK VINA RESULT:      -8.8      2.112      3.445
REMARK  6 active torsions:
REMARK  status: ('A' for Active; 'I' for Inactive)
REMARK    1  A    between atoms: C_4  and  C_5 
REMARK    2  A    between atoms: C_5  and  C_6 
REMARK    3  A    between atoms: C_6  and  C_7 
REMARK    4  A    between atoms: C_7  and  N_8 
REMARK    5  A    between atoms: C_11  and  C_13 
REMARK    6  A    between atoms: C_11  and  O_12 
ROOT
HETATM    1  N   UNL     1      28.376  42.536  51.884  1.00  0.00    -0.314 N 
HETATM    2  C   UNL     1      28.353  41.141  51.675  1.00  0.00     0.269 A 
HETATM    3  O   UNL     1      29.090  40.329  52.217  1.00  0.00    -0.269 OA
HETATM    4  C   UNL     1      27.151  40.846  50.714  1.00  0.00     0.198 A 
HETATM    5  C   UNL     1      26.641  42.235  50.413  1.00  0.00     0.017 A 
HETATM    6  C   UNL     1      27.378  43.178  51.138  1.00  0.00     0.047 A 
HETATM    7  C   UNL     1      25.574  42.626  49.614  1.00  0.00     0.013 A 
HETATM    8  C   UNL     1      25.270  43.985  49.533  1.00  0.00     0.001 A 
HETATM    9  C   UNL     1      26.021  44.928  50.253  1.00  0.00     0.002 A 
HETATM   10  C   UNL     1      27.084  44.528  51.067  1.00  0.00     0.030 A 
ENDROOT
BRANCH   4  11
HETATM   11  C   UNL     1      27.560  40.202  49.414  1.00  0.00     0.018 A 
HETATM   12  C   UNL     1      27.320  38.858  48.945  1.00  0.00     0.002 A 
HETATM   13  C   UNL     1      27.885  38.745  47.673  1.00  0.00     0.043 A 
HETATM   14  C   UNL     1      26.683  37.719  49.481  1.00  0.00     0.014 A 
HETATM   15  C   UNL     1      27.838  37.567  46.917  1.00  0.00     0.030 A 
HETATM   16  N   UNL     1      28.446  39.961  47.367  1.00  0.00    -0.365 N 
HETATM   17  C   UNL     1      27.199  36.459  47.477  1.00  0.00     0.002 A 
HETATM   18  C   UNL     1      26.630  36.530  48.742  1.00  0.00     0.001 A 
HETATM   19  H   UNL     1      28.920  40.172  46.501  1.00  0.00     0.165 HD
HETATM   20  C   UNL     1      28.263  40.835  48.398  1.00  0.00     0.100 A 
ENDBRANCH   4  11
BRANCH   4  21
HETATM   21  O   UNL     1      26.123  40.116  51.385  1.00  0.00    -0.371 OA
HETATM   22  H   UNL     1      26.549  39.663  52.129  1.00  0.00     0.212 HD
ENDBRANCH   4  21
BRANCH   1  23
HETATM   23  C   UNL     1      29.273  43.173  52.824  1.00  0.00     0.133 C 
BRANCH  23  24
HETATM   24  C   UNL     1      28.630  43.492  54.173  1.00  0.00     0.025 C 
BRANCH  24  25
HETATM   25  C   UNL     1      28.988  44.885  54.689  1.00  0.00     0.040 C 
BRANCH  25  26
HETATM   26  C   UNL     1      29.855  44.811  55.922  1.00  0.00    -0.058 A 
HETATM   27  C   UNL     1      30.800  43.786  56.064  1.00  0.00     0.007 A 
HETATM   28  C   UNL     1      31.591  43.705  57.211  1.00  0.00     0.001 A 
HETATM   29  C   UNL     1      31.438  44.643  58.231  1.00  0.00     0.000 A 
HETATM   30  C   UNL     1      30.495  45.660  58.103  1.00  0.00     0.001 A 
HETATM   31  C   UNL     1      29.705  45.745  56.955  1.00  0.00     0.007 A 
ENDBRANCH  25  26
ENDBRANCH  24  25
ENDBRANCH  23  24
ENDBRANCH   1  23
TORSDOF 6
ENDMDL
MODEL 7
REMARK VINA RESULT:      -8.7      2.368      7.292
REMARK  6 active torsions:
REMARK  status: ('A' for Active; 'I' for Inactive)
REMARK    1  A    between atoms: C_4  and  C_5 
REMARK    2  A    between atoms: C_5  and  C_6 
REMARK    3  A    between atoms: C_6  and  C_7 
REMARK    4  A    between atoms: C_7  and  N_8 
REMARK    5  A    between atoms: C_11  and  C_13 
REMARK    6  A    between atoms: C_11  and  O_12 
ROOT
HETATM    1  N   UNL     1      26.688  44.750  50.719  1.00  0.00    -0.314 N 
HETATM    2  C   UNL     1      26.823  45.067  52.087  1.00  0.00     0.269 A 
HETATM    3  O   UNL     1      26.691  46.181  52.574  1.00  0.00    -0.269 OA
HETATM    4  C   UNL     1      27.062  43.717  52.845  1.00  0.00     0.198 A 
HETATM    5  C   UNL     1      27.110  42.724  51.709  1.00  0.00     0.017 A 
HETATM    6  C   UNL     1      26.865  43.378  50.497  1.00  0.00     0.047 A 
HETATM    7  C   UNL     1      27.293  41.347  51.752  1.00  0.00     0.013 A 
HETATM    8  C   UNL     1      27.250  40.635  50.553  1.00  0.00     0.001 A 
HETATM    9  C   UNL     1      27.016  41.298  49.338  1.00  0.00     0.002 A 
HETATM   10  C   UNL     1      26.818  42.682  49.302  1.00  0.00     0.030 A 
ENDROOT
BRANCH   4  11
HETATM   11  C   UNL     1      28.378  43.660  53.577  1.00  0.00     0.018 A 
HETATM   12  C   UNL     1      28.813  44.407  54.734  1.00  0.00     0.002 A 
HETATM   13  C   UNL     1      30.108  43.989  55.046  1.00  0.00     0.043 A 
HETATM   14  C   UNL     1      28.234  45.405  55.546  1.00  0.00     0.014 A 
HETATM   15  C   UNL     1      30.842  44.509  56.120  1.00  0.00     0.030 A 
HETATM   16  N   UNL     1      30.459  43.029  54.129  1.00  0.00    -0.365 N 
HETATM   17  C   UNL     1      30.239  45.496  56.904  1.00  0.00     0.002 A 
HETATM   18  C   UNL     1      28.954  45.941  56.621  1.00  0.00     0.001 A 
HETATM   19  H   UNL     1      31.344  42.543  54.117  1.00  0.00     0.165 HD
HETATM   20  C   UNL     1      29.438  42.827  53.247  1.00  0.00     0.100 A 
ENDBRANCH   4  11
BRANCH   4  21
HETATM   21  O   UNL     1      25.954  43.396  53.687  1.00  0.00    -0.371 OA
HETATM   22  H   UNL     1      25.335  44.140  53.622  1.00  0.00     0.212 HD
ENDBRANCH   4  21
BRANCH   1  23
HETATM   23  C   UNL     1      26.326  45.730  49.718  1.00  0.00     0.133 C 
BRANCH  23  24
HETATM   24  C   UNL     1      24.833  46.053  49.681  1.00  0.00     0.025 C 
BRANCH  24  25
HETATM   25  C   UNL     1      24.499  47.394  50.336  1.00  0.00     0.040 C 
BRANCH  25  26
HETATM   26  C   UNL     1      23.867  48.347  49.351  1.00  0.00    -0.058 A 
HETATM   27  C   UNL     1      24.581  49.458  48.882  1.00  0.00     0.007 A 
HETATM   28  C   UNL     1      23.993  50.350  47.985  1.00  0.00     0.001 A 
HETATM   29  C   UNL     1      22.683  50.146  47.554  1.00  0.00     0.000 A 
HETATM   30  C   UNL     1      21.962  49.049  48.023  1.00  0.00     0.001 A 
HETATM   31  C   UNL     1      22.549  48.154  48.918  1.00  0.00     0.007 A 
ENDBRANCH  25  26
ENDBRANCH  24  25
ENDBRANCH  23  24
ENDBRANCH   1  23
TORSDOF 6
ENDMDL
MODEL 8
REMARK VINA RESULT:      -8.6      2.040      6.834
REMARK  6 active torsions:
REMARK  status: ('A' for Active; 'I' for Inactive)
REMARK    1  A    between atoms: C_4  and  C_5 
REMARK    2  A    between atoms: C_5  and  C_6 
REMARK    3  A    between atoms: C_6  and  C_7 
REMARK    4  A    between atoms: C_7  and  N_8 
REMARK    5  A    between atoms: C_11  and  C_13 
REMARK    6  A    between atoms: C_11  and  O_12 
ROOT
HETATM    1  N   UNL     1      26.567  45.209  51.244  1.00  0.00    -0.314 N 
HETATM    2  C   UNL     1      26.742  45.342  52.637  1.00  0.00     0.269 A 
HETATM    3  O   UNL     1      26.579  46.370  53.279  1.00  0.00    -0.269 OA
HETATM    4  C   UNL     1      27.073  43.914  53.192  1.00  0.00     0.198 A 
HETATM    5  C   UNL     1      27.121  43.090  51.927  1.00  0.00     0.017 A 
HETATM    6  C   UNL     1      26.798  43.891  50.827  1.00  0.00     0.047 A 
HETATM    7  C   UNL     1      27.368  41.732  51.772  1.00  0.00     0.013 A 
HETATM    8  C   UNL     1      27.309  41.190  50.487  1.00  0.00     0.001 A 
HETATM    9  C   UNL     1      26.996  42.001  49.385  1.00  0.00     0.002 A 
HETATM   10  C   UNL     1      26.734  43.364  49.549  1.00  0.00     0.030 A 
ENDROOT
BRANCH   4  11
HETATM   11  C   UNL     1      28.419  43.824  53.864  1.00  0.00     0.018 A 
HETATM   12  C   UNL     1      28.903  44.516  55.036  1.00  0.00     0.002 A 
HETATM   13  C   UNL     1      30.210  44.085  55.272  1.00  0.00     0.043 A 
HETATM   14  C   UNL     1      28.360  45.474  55.917  1.00  0.00     0.014 A 
HETATM   15  C   UNL     1      30.990  44.555  56.338  1.00  0.00     0.030 A 
HETATM   16  N   UNL     1      30.521  43.170  54.297  1.00  0.00    -0.365 N 
HETATM   17  C   UNL     1      30.421  45.502  57.192  1.00  0.00     0.002 A 
HETATM   18  C   UNL     1      29.125  45.959  56.985  1.00  0.00     0.001 A 
HETATM   19  H   UNL     1      31.404  42.686  54.225  1.00  0.00     0.165 HD
HETATM   20  C   UNL     1      29.464  43.009  53.450  1.00  0.00     0.100 A 
ENDBRANCH   4  11
BRANCH   4  21
HETATM   21  O   UNL     1      26.016  43.424  54.017  1.00  0.00    -0.371 OA
HETATM   22  H   UNL     1      25.210  43.883  53.732  1.00  0.00     0.212 HD
ENDBRANCH   4  21
BRANCH   1  23
HETATM   23  C   UNL     1      26.120  46.298  50.402  1.00  0.00     0.133 C 
BRANCH  23  24
HETATM   24  C   UNL     1      24.637  46.631  50.558  1.00  0.00     0.025 C 
BRANCH  24  25
HETATM   25  C   UNL     1      23.830  46.355  49.289  1.00  0.00     0.040 C 
BRANCH  25  26
HETATM   26  C   UNL     1      23.548  44.882  49.124  1.00  0.00    -0.058 A 
HETATM   27  C   UNL     1      23.215  44.095  50.235  1.00  0.00     0.007 A 
HETATM   28  C   UNL     1      22.971  42.729  50.088  1.00  0.00     0.001 A 
HETATM   29  C   UNL     1      23.068  42.134  48.831  1.00  0.00     0.000 A 
HETATM   30  C   UNL     1      23.409  42.906  47.722  1.00  0.00     0.001 A 
HETATM   31  C   UNL     1      23.650  44.273  47.866  1.00  0.00     0.007 A 
ENDBRANCH  25  26
ENDBRANCH  24  25
ENDBRANCH  23  24
ENDBRANCH   1  23
TORSDOF 6
ENDMDL
MODEL 9
REMARK VINA RESULT:      -8.4      8.006     11.198
REMARK  6 active torsions:
REMARK  status: ('A' for Active; 'I' for Inactive)
REMARK    1  A    between atoms: C_4  and  C_5 
REMARK    2  A    between atoms: C_5  and  C_6 
REMARK    3  A    between atoms: C_6  and  C_7 
REMARK    4  A    between atoms: C_7  and  N_8 
REMARK    5  A    between atoms: C_11  and  C_13 
REMARK    6  A    between atoms: C_11  and  O_12 
ROOT
HETATM    1  N   UNL     1      20.116  49.953  49.371  1.00  0.00    -0.314 N 
HETATM    2  C   UNL     1      19.851  48.631  48.958  1.00  0.00     0.269 A 
HETATM    3  O   UNL     1      20.679  47.735  48.870  1.00  0.00    -0.269 OA
HETATM    4  C   UNL     1      18.303  48.522  48.746  1.00  0.00     0.198 A 
HETATM    5  C   UNL     1      17.849  49.937  49.018  1.00  0.00     0.017 A 
HETATM    6  C   UNL     1      18.943  50.721  49.398  1.00  0.00     0.047 A 
HETATM    7  C   UNL     1      16.566  50.469  48.991  1.00  0.00     0.013 A 
HETATM    8  C   UNL     1      16.398  51.812  49.331  1.00  0.00     0.001 A 
HETATM    9  C   UNL     1      17.502  52.598  49.700  1.00  0.00     0.002 A 
HETATM   10  C   UNL     1      18.789  52.053  49.739  1.00  0.00     0.030 A 
ENDROOT
BRANCH   4  11
HETATM   11  C   UNL     1      17.909  48.164  47.336  1.00  0.00     0.018 A 
HETATM   12  C   UNL     1      18.085  48.920  46.119  1.00  0.00     0.002 A 
HETATM   13  C   UNL     1      17.568  48.158  45.068  1.00  0.00     0.043 A 
HETATM   14  C   UNL     1      18.628  50.184  45.805  1.00  0.00     0.014 A 
HETATM   15  C   UNL     1      17.573  48.590  43.735  1.00  0.00     0.030 A 
HETATM   16  N   UNL     1      17.096  46.987  45.608  1.00  0.00    -0.365 N 
HETATM   17  C   UNL     1      18.118  49.846  43.460  1.00  0.00     0.002 A 
HETATM   18  C   UNL     1      18.637  50.635  44.479  1.00  0.00     0.001 A 
HETATM   19  H   UNL     1      16.672  46.241  45.076  1.00  0.00     0.165 HD
HETATM   20  C   UNL     1      17.290  46.980  46.958  1.00  0.00     0.100 A 
ENDBRANCH   4  11
BRANCH   4  21
HETATM   21  O   UNL     1      17.709  47.658  49.716  1.00  0.00    -0.371 OA
HETATM   22  H   UNL     1      17.708  46.769  49.326  1.00  0.00     0.212 HD
ENDBRANCH   4  21
BRANCH   1  23
HETATM   23  C   UNL     1      21.428  50.397  49.789  1.00  0.00     0.133 C 
BRANCH  23  24
HETATM   24  C   UNL     1      22.233  51.078  48.683  1.00  0.00     0.025 C 
BRANCH  24  25
HETATM   25  C   UNL     1      22.900  50.082  47.734  1.00  0.00     0.040 C 
BRANCH  25  26
HETATM   26  C   UNL     1      24.219  49.595  48.283  1.00  0.00    -0.058 A 
HETATM   27  C   UNL     1      25.418  50.208  47.896  1.00  0.00     0.007 A 
HETATM   28  C   UNL     1      26.640  49.749  48.389  1.00  0.00     0.001 A 
HETATM   29  C   UNL     1      26.676  48.666  49.266  1.00  0.00     0.000 A 
HETATM   30  C   UNL     1      25.489  48.043  49.649  1.00  0.00     0.001 A 
HETATM   31  C   UNL     1      24.266  48.503  49.161  1.00  0.00     0.007 A 
ENDBRANCH  25  26
ENDBRANCH  24  25
ENDBRANCH  23  24
ENDBRANCH   1  23
TORSDOF 6
ENDMDL
MODEL 10
REMARK VINA RESULT:      -8.4     13.277     15.904
REMARK  6 active torsions:
REMARK  status: ('A' for Active; 'I' for Inactive)
REMARK    1  A    between atoms: C_4  and  C_5 
REMARK    2  A    between atoms: C_5  and  C_6 
REMARK    3  A    between atoms: C_6  and  C_7 
REMARK    4  A    between atoms: C_7  and  N_8 
REMARK    5  A    between atoms: C_11  and  C_13 
REMARK    6  A    between atoms: C_11  and  O_12 
ROOT
HETATM    1  N   UNL     1      31.171  51.602  39.762  1.00  0.00    -0.314 N 
HETATM    2  C   UNL     1      31.656  52.341  40.861  1.00  0.00     0.269 A 
HETATM    3  O   UNL     1      31.623  53.559  40.969  1.00  0.00    -0.269 OA
HETATM    4  C   UNL     1      32.133  51.302  41.932  1.00  0.00     0.198 A 
HETATM    5  C   UNL     1      31.908  49.990  41.219  1.00  0.00     0.017 A 
HETATM    6  C   UNL     1      31.327  50.224  39.968  1.00  0.00     0.047 A 
HETATM    7  C   UNL     1      32.141  48.695  41.665  1.00  0.00     0.013 A 
HETATM    8  C   UNL     1      31.802  47.634  40.826  1.00  0.00     0.001 A 
HETATM    9  C   UNL     1      31.229  47.875  39.567  1.00  0.00     0.002 A 
HETATM   10  C   UNL     1      30.984  49.180  39.128  1.00  0.00     0.030 A 
ENDROOT
BRANCH   4  11
HETATM   11  C   UNL     1      33.598  51.410  42.268  1.00  0.00     0.018 A 
HETATM   12  C   UNL     1      34.745  51.309  41.397  1.00  0.00     0.002 A 
HETATM   13  C   UNL     1      35.889  51.492  42.178  1.00  0.00     0.043 A 
HETATM   14  C   UNL     1      34.926  51.071  40.018  1.00  0.00     0.014 A 
HETATM   15  C   UNL     1      37.187  51.457  41.653  1.00  0.00     0.030 A 
HETATM   16  N   UNL     1      35.471  51.699  43.469  1.00  0.00    -0.365 N 
HETATM   17  C   UNL     1      37.330  51.220  40.284  1.00  0.00     0.002 A 
HETATM   18  C   UNL     1      36.217  51.027  39.476  1.00  0.00     0.001 A 
HETATM   19  H   UNL     1      36.088  51.868  44.251  1.00  0.00     0.165 HD
HETATM   20  C   UNL     1      34.110  51.649  43.537  1.00  0.00     0.100 A 
ENDBRANCH   4  11
BRANCH   4  21
HETATM   21  O   UNL     1      31.302  51.340  43.093  1.00  0.00    -0.371 OA
HETATM   22  H   UNL     1      30.981  50.435  43.229  1.00  0.00     0.212 HD
ENDBRANCH   4  21
BRANCH   1  23
HETATM   23  C   UNL     1      30.522  52.221  38.626  1.00  0.00     0.133 C 
BRANCH  23  24
HETATM   24  C   UNL     1      29.140  52.793  38.939  1.00  0.00     0.025 C 
BRANCH  24  25
HETATM   25  C   UNL     1      28.002  51.925  38.401  1.00  0.00     0.040 C 
BRANCH  25  26
HETATM   26  C   UNL     1      27.780  50.708  39.265  1.00  0.00    -0.058 A 
HETATM   27  C   UNL     1      27.872  50.803  40.660  1.00  0.00     0.007 A 
HETATM   28  C   UNL     1      27.685  49.675  41.461  1.00  0.00     0.001 A 
HETATM   29  C   UNL     1      27.414  48.440  40.874  1.00  0.00     0.000 A 
HETATM   30  C   UNL     1      27.330  48.334  39.487  1.00  0.00     0.001 A 
HETATM   31  C   UNL     1      27.514  49.461  38.685  1.00  0.00     0.007 A 
ENDBRANCH  25  26
ENDBRANCH  24  25
ENDBRANCH  23  24
ENDBRANCH   1  23
TORSDOF 6
ENDMDL
