MODEL 1
REMARK VINA RESULT:      -9.9      0.000      0.000
REMARK  6 active torsions:
REMARK  status: ('A' for Active; 'I' for Inactive)
REMARK    1  A    between atoms: O_2  and  C_3 
REMARK    2  A    between atoms: C_3  and  C_4 
REMARK    3  A    between atoms: C_7  and  N_8 
REMARK       I    between atoms: N_8  and  C_9 
REMARK    4  A    between atoms: C_9  and  C_10 
REMARK    5  A    between atoms: C_10  and  O_11 
REMARK    6  A    between atoms: O_11  and  C_12 
ROOT
HETATM    1  C   UNL     1      26.577  42.991  51.287  1.00  0.00     0.278 C 
ENDROOT
BRANCH   1   2
HETATM    2  C   UNL     1      25.915  43.993  50.337  1.00  0.00     0.246 C 
HETATM    3  N   UNL     1      25.843  45.266  50.878  1.00  0.00    -0.325 N 
HETATM    4  H   UNL     1      26.093  45.329  51.861  1.00  0.00     0.169 HD
HETATM    5  O   UNL     1      25.592  43.659  49.199  1.00  0.00    -0.271 OA
BRANCH   3   6
HETATM    6  C   UNL     1      25.490  46.463  50.227  1.00  0.00     0.034 A 
HETATM    7  C   UNL     1      26.412  47.430  49.822  1.00  0.00     0.030 A 
HETATM    8  C   UNL     1      25.983  48.627  49.233  1.00  0.00     0.020 A 
HETATM    9  C   UNL     1      24.619  48.871  49.042  1.00  0.00     0.039 A 
HETATM   10  C   UNL     1      23.692  47.894  49.425  1.00  0.00     0.020 A 
HETATM   11  C   UNL     1      24.127  46.699  50.011  1.00  0.00     0.030 A 
BRANCH   9  12
HETATM   12  C   UNL     1      24.108  50.142  48.460  1.00  0.00     0.292 C 
HETATM   13  O   UNL     1      24.355  50.510  47.324  1.00  0.00    -0.259 OA
BRANCH  12  14
HETATM   14  O   UNL     1      23.319  50.792  49.353  1.00  0.00    -0.323 OA
HETATM   15  C   UNL     1      22.055  51.199  48.826  1.00  0.00     0.213 C 
ENDBRANCH  12  14
ENDBRANCH   9  12
ENDBRANCH   3   6
ENDBRANCH   1   2
BRANCH   1  16
HETATM   16  O   UNL     1      28.000  43.079  51.203  1.00  0.00    -0.342 OA
BRANCH  16  17
HETATM   17  C   UNL     1      28.631  43.202  52.415  1.00  0.00     0.071 A 
HETATM   18  C   UNL     1      28.184  44.252  53.226  1.00  0.00     0.067 A 
HETATM   19  C   UNL     1      28.839  44.462  54.448  1.00  0.00     0.046 A 
HETATM   20  C   UNL     1      29.916  43.683  54.868  1.00  0.00     0.003 A 
HETATM   21  N   UNL     1      28.613  45.397  55.432  1.00  0.00    -0.355 N 
HETATM   22  C   UNL     1      30.353  42.636  54.033  1.00  0.00     0.017 A 
HETATM   23  C   UNL     1      30.354  44.196  56.130  1.00  0.00     0.003 A 
HETATM   24  C   UNL     1      29.709  42.409  52.809  1.00  0.00     0.038 A 
HETATM   25  C   UNL     1      29.522  45.266  56.456  1.00  0.00     0.043 A 
HETATM   26  C   UNL     1      31.391  43.851  57.021  1.00  0.00     0.014 A 
HETATM   27  C   UNL     1      29.672  46.009  57.634  1.00  0.00     0.030 A 
HETATM   28  C   UNL     1      30.710  45.649  58.499  1.00  0.00     0.002 A 
HETATM   29  C   UNL     1      31.560  44.587  58.199  1.00  0.00     0.001 A 
HETATM   30  H   UNL     1      27.886  46.096  55.401  1.00  0.00     0.166 HD
ENDBRANCH  16  17
ENDBRANCH   1  16
TORSDOF 6
ENDMDL
MODEL 2
REMARK VINA RESULT:      -9.6      2.665      4.194
REMARK  6 active torsions:
REMARK  status: ('A' for Active; 'I' for Inactive)
REMARK    1  A    between atoms: O_2  and  C_3 
REMARK    2  A    between atoms: C_3  and  C_4 
REMARK    3  A    between atoms: C_7  and  N_8 
REMARK       I    between atoms: N_8  and  C_9 
REMARK    4  A    between atoms: C_9  and  C_10 
REMARK    5  A    between atoms: C_10  and  O_11 
REMARK    6  A    between atoms: O_11  and  C_12 
ROOT
HETATM    1  C   UNL     1      24.968  47.103  50.309  1.00  0.00     0.278 C 
ENDROOT
BRANCH   1   2
HETATM    2  C   UNL     1      24.301  48.284  49.598  1.00  0.00     0.246 C 
HETATM    3  N   UNL     1      22.921  48.167  49.559  1.00  0.00    -0.325 N 
HETATM    4  H   UNL     1      22.558  47.268  49.864  1.00  0.00     0.169 HD
HETATM    5  O   UNL     1      24.968  49.240  49.212  1.00  0.00    -0.271 OA
BRANCH   3   6
HETATM    6  C   UNL     1      21.983  49.143  49.174  1.00  0.00     0.034 A 
HETATM    7  C   UNL     1      21.832  50.374  49.814  1.00  0.00     0.030 A 
HETATM    8  C   UNL     1      20.833  51.272  49.414  1.00  0.00     0.020 A 
HETATM    9  C   UNL     1      19.970  50.946  48.363  1.00  0.00     0.039 A 
HETATM   10  C   UNL     1      20.133  49.722  47.703  1.00  0.00     0.020 A 
HETATM   11  C   UNL     1      21.133  48.830  48.106  1.00  0.00     0.030 A 
BRANCH   9  12
HETATM   12  C   UNL     1      18.867  51.845  47.926  1.00  0.00     0.292 C 
HETATM   13  O   UNL     1      18.295  51.738  46.854  1.00  0.00    -0.259 OA
BRANCH  12  14
HETATM   14  O   UNL     1      18.581  52.753  48.893  1.00  0.00    -0.323 OA
HETATM   15  C   UNL     1      17.463  52.403  49.710  1.00  0.00     0.213 C 
ENDBRANCH  12  14
ENDBRANCH   9  12
ENDBRANCH   3   6
ENDBRANCH   1   2
BRANCH   1  16
HETATM   16  O   UNL     1      24.991  47.311  51.722  1.00  0.00    -0.342 OA
BRANCH  16  17
HETATM   17  C   UNL     1      25.893  46.526  52.394  1.00  0.00     0.071 A 
HETATM   18  C   UNL     1      26.518  47.127  53.493  1.00  0.00     0.067 A 
HETATM   19  C   UNL     1      27.497  46.391  54.175  1.00  0.00     0.046 A 
HETATM   20  C   UNL     1      27.876  45.106  53.792  1.00  0.00     0.003 A 
HETATM   21  N   UNL     1      28.256  46.720  55.275  1.00  0.00    -0.355 N 
HETATM   22  C   UNL     1      27.238  44.522  52.679  1.00  0.00     0.017 A 
HETATM   23  C   UNL     1      28.912  44.677  54.680  1.00  0.00     0.003 A 
HETATM   24  C   UNL     1      26.255  45.243  51.986  1.00  0.00     0.038 A 
HETATM   25  C   UNL     1      29.128  45.706  55.595  1.00  0.00     0.043 A 
HETATM   26  C   UNL     1      29.692  43.507  54.783  1.00  0.00     0.014 A 
HETATM   27  C   UNL     1      30.087  45.624  56.613  1.00  0.00     0.030 A 
HETATM   28  C   UNL     1      30.850  44.454  56.691  1.00  0.00     0.002 A 
HETATM   29  C   UNL     1      30.659  43.410  55.790  1.00  0.00     0.001 A 
HETATM   30  H   UNL     1      28.193  47.596  55.773  1.00  0.00     0.166 HD
ENDBRANCH  16  17
ENDBRANCH   1  16
TORSDOF 6
ENDMDL
MODEL 3
REMARK VINA RESULT:      -9.6      1.821      2.535
REMARK  6 active torsions:
REMARK  status: ('A' for Active; 'I' for Inactive)
REMARK    1  A    between atoms: O_2  and  C_3 
REMARK    2  A    between atoms: C_3  and  C_4 
REMARK    3  A    between atoms: C_7  and  N_8 
REMARK       I    between atoms: N_8  and  C_9 
REMARK    4  A    between atoms: C_9  and  C_10 
REMARK    5  A    between atoms: C_10  and  O_11 
REMARK    6  A    between atoms: O_11  and  C_12 
ROOT
HETATM    1  C   UNL     1      26.540  46.059  50.756  1.00  0.00     0.278 C 
ENDROOT
BRANCH   1   2
HETATM    2  C   UNL     1      25.517  47.198  50.702  1.00  0.00     0.246 C 
HETATM    3  N   UNL     1      25.140  47.508  49.406  1.00  0.00    -0.325 N 
HETATM    4  H   UNL     1      25.689  47.057  48.680  1.00  0.00     0.169 HD
HETATM    5  O   UNL     1      25.055  47.674  51.736  1.00  0.00    -0.271 OA
BRANCH   3   6
HETATM    6  C   UNL     1      24.088  48.346  48.990  1.00  0.00     0.034 A 
HETATM    7  C   UNL     1      24.271  49.639  48.498  1.00  0.00     0.030 A 
HETATM    8  C   UNL     1      23.171  50.439  48.160  1.00  0.00     0.020 A 
HETATM    9  C   UNL     1      21.869  49.951  48.312  1.00  0.00     0.039 A 
HETATM   10  C   UNL     1      21.682  48.646  48.782  1.00  0.00     0.020 A 
HETATM   11  C   UNL     1      22.784  47.850  49.117  1.00  0.00     0.030 A 
BRANCH   9  12
HETATM   12  C   UNL     1      20.666  50.773  48.007  1.00  0.00     0.292 C 
HETATM   13  O   UNL     1      19.951  50.587  47.036  1.00  0.00    -0.259 OA
BRANCH  12  14
HETATM   14  O   UNL     1      20.474  51.712  48.968  1.00  0.00    -0.323 OA
HETATM   15  C   UNL     1      19.387  51.428  49.851  1.00  0.00     0.213 C 
ENDBRANCH  12  14
ENDBRANCH   9  12
ENDBRANCH   3   6
ENDBRANCH   1   2
BRANCH   1  16
HETATM   16  O   UNL     1      26.112  45.038  51.658  1.00  0.00    -0.342 OA
BRANCH  16  17
HETATM   17  C   UNL     1      27.059  44.665  52.580  1.00  0.00     0.071 A 
HETATM   18  C   UNL     1      27.161  45.487  53.708  1.00  0.00     0.067 A 
HETATM   19  C   UNL     1      28.157  45.188  54.649  1.00  0.00     0.046 A 
HETATM   20  C   UNL     1      29.046  44.127  54.493  1.00  0.00     0.003 A 
HETATM   21  N   UNL     1      28.478  45.809  55.835  1.00  0.00    -0.355 N 
HETATM   22  C   UNL     1      28.928  43.316  53.346  1.00  0.00     0.017 A 
HETATM   23  C   UNL     1      29.937  44.141  55.612  1.00  0.00     0.003 A 
HETATM   24  C   UNL     1      27.937  43.598  52.396  1.00  0.00     0.038 A 
HETATM   25  C   UNL     1      29.558  45.202  56.432  1.00  0.00     0.043 A 
HETATM   26  C   UNL     1      31.039  43.350  55.997  1.00  0.00     0.014 A 
HETATM   27  C   UNL     1      30.226  45.512  57.624  1.00  0.00     0.030 A 
HETATM   28  C   UNL     1      31.318  44.714  57.982  1.00  0.00     0.002 A 
HETATM   29  C   UNL     1      31.721  43.649  57.181  1.00  0.00     0.001 A 
HETATM   30  H   UNL     1      27.995  46.612  56.211  1.00  0.00     0.166 HD
ENDBRANCH  16  17
ENDBRANCH   1  16
TORSDOF 6
ENDMDL
MODEL 4
REMARK VINA RESULT:      -9.4      3.191     10.691
REMARK  6 active torsions:
REMARK  status: ('A' for Active; 'I' for Inactive)
REMARK    1  A    between atoms: O_2  and  C_3 
REMARK    2  A    between atoms: C_3  and  C_4 
REMARK    3  A    between atoms: C_7  and  N_8 
REMARK       I    between atoms: N_8  and  C_9 
REMARK    4  A    between atoms: C_9  and  C_10 
REMARK    5  A    between atoms: C_10  and  O_11 
REMARK    6  A    between atoms: O_11  and  C_12 
ROOT
HETATM    1  C   UNL     1      24.636  47.292  49.662  1.00  0.00     0.278 C 
ENDROOT
BRANCH   1   2
HETATM    2  C   UNL     1      25.696  47.469  50.752  1.00  0.00     0.246 C 
HETATM    3  N   UNL     1      25.422  46.717  51.883  1.00  0.00    -0.325 N 
HETATM    4  H   UNL     1      24.504  46.281  51.896  1.00  0.00     0.169 HD
HETATM    5  O   UNL     1      26.701  48.145  50.546  1.00  0.00    -0.271 OA
BRANCH   3   6
HETATM    6  C   UNL     1      26.264  46.476  52.985  1.00  0.00     0.034 A 
HETATM    7  C   UNL     1      26.520  47.411  53.989  1.00  0.00     0.030 A 
HETATM    8  C   UNL     1      27.419  47.123  55.024  1.00  0.00     0.020 A 
HETATM    9  C   UNL     1      28.076  45.889  55.067  1.00  0.00     0.039 A 
HETATM   10  C   UNL     1      27.804  44.939  54.075  1.00  0.00     0.020 A 
HETATM   11  C   UNL     1      26.904  45.231  53.044  1.00  0.00     0.030 A 
BRANCH   9  12
HETATM   12  C   UNL     1      29.071  45.548  56.120  1.00  0.00     0.292 C 
HETATM   13  O   UNL     1      29.164  46.149  57.178  1.00  0.00    -0.259 OA
BRANCH  12  14
HETATM   14  O   UNL     1      29.813  44.475  55.747  1.00  0.00    -0.323 OA
HETATM   15  C   UNL     1      31.073  44.379  56.411  1.00  0.00     0.213 C 
ENDBRANCH  12  14
ENDBRANCH   9  12
ENDBRANCH   3   6
ENDBRANCH   1   2
BRANCH   1  16
HETATM   16  O   UNL     1      24.716  48.348  48.703  1.00  0.00    -0.342 OA
BRANCH  16  17
HETATM   17  C   UNL     1      23.645  49.205  48.714  1.00  0.00     0.071 A 
HETATM   18  C   UNL     1      22.523  48.761  49.424  1.00  0.00     0.067 A 
HETATM   19  C   UNL     1      21.378  49.570  49.413  1.00  0.00     0.046 A 
HETATM   20  C   UNL     1      21.313  50.774  48.715  1.00  0.00     0.003 A 
HETATM   21  N   UNL     1      20.154  49.392  50.018  1.00  0.00    -0.355 N 
HETATM   22  C   UNL     1      22.453  51.199  48.002  1.00  0.00     0.017 A 
HETATM   23  C   UNL     1      19.999  51.309  48.895  1.00  0.00     0.003 A 
HETATM   24  C   UNL     1      23.608  50.404  48.004  1.00  0.00     0.038 A 
HETATM   25  C   UNL     1      19.298  50.424  49.712  1.00  0.00     0.043 A 
HETATM   26  C   UNL     1      19.338  52.463  48.427  1.00  0.00     0.014 A 
HETATM   27  C   UNL     1      17.965  50.636  50.090  1.00  0.00     0.030 A 
HETATM   28  C   UNL     1      17.332  51.787  49.610  1.00  0.00     0.002 A 
HETATM   29  C   UNL     1      18.005  52.689  48.790  1.00  0.00     0.001 A 
HETATM   30  H   UNL     1      19.911  48.602  50.598  1.00  0.00     0.166 HD
ENDBRANCH  16  17
ENDBRANCH   1  16
TORSDOF 6
ENDMDL
MODEL 5
REMARK VINA RESULT:      -9.4      2.685      4.144
REMARK  6 active torsions:
REMARK  status: ('A' for Active; 'I' for Inactive)
REMARK    1  A    between atoms: O_2  and  C_3 
REMARK    2  A    between atoms: C_3  and  C_4 
REMARK    3  A    between atoms: C_7  and  N_8 
REMARK       I    between atoms: N_8  and  C_9 
REMARK    4  A    between atoms: C_9  and  C_10 
REMARK    5  A    between atoms: C_10  and  O_11 
REMARK    6  A    between atoms: O_11  and  C_12 
ROOT
HETATM    1  C   UNL     1      25.405  46.975  50.667  1.00  0.00     0.278 C 
ENDROOT
BRANCH   1   2
HETATM    2  C   UNL     1      24.703  47.997  49.770  1.00  0.00     0.246 C 
HETATM    3  N   UNL     1      23.325  47.968  49.913  1.00  0.00    -0.325 N 
HETATM    4  H   UNL     1      22.968  47.192  50.463  1.00  0.00     0.169 HD
HETATM    5  O   UNL     1      25.354  48.790  49.093  1.00  0.00    -0.271 OA
BRANCH   3   6
HETATM    6  C   UNL     1      22.385  48.886  49.410  1.00  0.00     0.034 A 
HETATM    7  C   UNL     1      22.487  50.270  49.565  1.00  0.00     0.030 A 
HETATM    8  C   UNL     1      21.480  51.121  49.090  1.00  0.00     0.020 A 
HETATM    9  C   UNL     1      20.353  50.593  48.452  1.00  0.00     0.039 A 
HETATM   10  C   UNL     1      20.257  49.208  48.272  1.00  0.00     0.020 A 
HETATM   11  C   UNL     1      21.267  48.363  48.747  1.00  0.00     0.030 A 
BRANCH   9  12
HETATM   12  C   UNL     1      19.236  51.449  47.966  1.00  0.00     0.292 C 
HETATM   13  O   UNL     1      19.141  52.640  48.216  1.00  0.00    -0.259 OA
BRANCH  12  14
HETATM   14  O   UNL     1      18.382  50.728  47.196  1.00  0.00    -0.323 OA
HETATM   15  C   UNL     1      18.012  51.373  45.976  1.00  0.00     0.213 C 
ENDBRANCH  12  14
ENDBRANCH   9  12
ENDBRANCH   3   6
ENDBRANCH   1   2
BRANCH   1  16
HETATM   16  O   UNL     1      25.091  47.206  52.041  1.00  0.00    -0.342 OA
BRANCH  16  17
HETATM   17  C   UNL     1      26.103  46.892  52.913  1.00  0.00     0.071 A 
HETATM   18  C   UNL     1      26.748  45.673  52.677  1.00  0.00     0.067 A 
HETATM   19  C   UNL     1      27.745  45.274  53.578  1.00  0.00     0.046 A 
HETATM   20  C   UNL     1      28.099  46.030  54.693  1.00  0.00     0.003 A 
HETATM   21  N   UNL     1      28.538  44.148  53.590  1.00  0.00    -0.355 N 
HETATM   22  C   UNL     1      27.432  47.251  54.915  1.00  0.00     0.017 A 
HETATM   23  C   UNL     1      29.114  45.311  55.399  1.00  0.00     0.003 A 
HETATM   24  C   UNL     1      26.433  47.668  54.024  1.00  0.00     0.038 A 
HETATM   25  C   UNL     1      29.367  44.140  54.687  1.00  0.00     0.043 A 
HETATM   26  C   UNL     1      29.836  45.547  56.587  1.00  0.00     0.014 A 
HETATM   27  C   UNL     1      30.310  43.191  55.102  1.00  0.00     0.030 A 
HETATM   28  C   UNL     1      31.011  43.447  56.285  1.00  0.00     0.002 A 
HETATM   29  C   UNL     1      30.778  44.607  57.020  1.00  0.00     0.001 A 
HETATM   30  H   UNL     1      28.505  43.417  52.895  1.00  0.00     0.166 HD
ENDBRANCH  16  17
ENDBRANCH   1  16
TORSDOF 6
ENDMDL
MODEL 6
REMARK VINA RESULT:      -9.2      1.595      1.847
REMARK  6 active torsions:
REMARK  status: ('A' for Active; 'I' for Inactive)
REMARK    1  A    between atoms: O_2  and  C_3 
REMARK    2  A    between atoms: C_3  and  C_4 
REMARK    3  A    between atoms: C_7  and  N_8 
REMARK       I    between atoms: N_8  and  C_9 
REMARK    4  A    between atoms: C_9  and  C_10 
REMARK    5  A    between atoms: C_10  and  O_11 
REMARK    6  A    between atoms: O_11  and  C_12 
ROOT
HETATM    1  C   UNL     1      26.191  42.997  51.180  1.00  0.00     0.278 C 
ENDROOT
BRANCH   1   2
HETATM    2  C   UNL     1      25.142  44.113  51.176  1.00  0.00     0.246 C 
HETATM    3  N   UNL     1      25.288  44.972  50.100  1.00  0.00    -0.325 N 
HETATM    4  H   UNL     1      26.138  44.841  49.559  1.00  0.00     0.169 HD
HETATM    5  O   UNL     1      24.242  44.129  52.013  1.00  0.00    -0.271 OA
BRANCH   3   6
HETATM    6  C   UNL     1      24.398  45.973  49.668  1.00  0.00     0.034 A 
HETATM    7  C   UNL     1      24.545  47.329  49.969  1.00  0.00     0.030 A 
HETATM    8  C   UNL     1      23.585  48.263  49.556  1.00  0.00     0.020 A 
HETATM    9  C   UNL     1      22.461  47.848  48.834  1.00  0.00     0.039 A 
HETATM   10  C   UNL     1      22.321  46.493  48.510  1.00  0.00     0.020 A 
HETATM   11  C   UNL     1      23.284  45.565  48.923  1.00  0.00     0.030 A 
BRANCH   9  12
HETATM   12  C   UNL     1      21.391  48.792  48.408  1.00  0.00     0.292 C 
HETATM   13  O   UNL     1      21.146  49.838  48.987  1.00  0.00    -0.259 OA
BRANCH  12  14
HETATM   14  O   UNL     1      20.773  48.339  47.288  1.00  0.00    -0.323 OA
HETATM   15  C   UNL     1      19.422  48.781  47.149  1.00  0.00     0.213 C 
ENDBRANCH  12  14
ENDBRANCH   9  12
ENDBRANCH   3   6
ENDBRANCH   1   2
BRANCH   1  16
HETATM   16  O   UNL     1      27.507  43.540  51.061  1.00  0.00    -0.342 OA
BRANCH  16  17
HETATM   17  C   UNL     1      28.242  43.498  52.218  1.00  0.00     0.071 A 
HETATM   18  C   UNL     1      27.968  44.509  53.147  1.00  0.00     0.067 A 
HETATM   19  C   UNL     1      28.738  44.550  54.318  1.00  0.00     0.046 A 
HETATM   20  C   UNL     1      29.762  43.642  54.578  1.00  0.00     0.003 A 
HETATM   21  N   UNL     1      28.685  45.411  55.390  1.00  0.00    -0.355 N 
HETATM   22  C   UNL     1      30.025  42.636  53.626  1.00  0.00     0.017 A 
HETATM   23  C   UNL     1      30.349  44.000  55.832  1.00  0.00     0.003 A 
HETATM   24  C   UNL     1      29.265  42.578  52.450  1.00  0.00     0.038 A 
HETATM   25  C   UNL     1      29.656  45.108  56.315  1.00  0.00     0.043 A 
HETATM   26  C   UNL     1      31.416  43.484  56.598  1.00  0.00     0.014 A 
HETATM   27  C   UNL     1      29.974  45.729  57.531  1.00  0.00     0.030 A 
HETATM   28  C   UNL     1      31.038  45.200  58.269  1.00  0.00     0.002 A 
HETATM   29  C   UNL     1      31.751  44.095  57.811  1.00  0.00     0.001 A 
HETATM   30  H   UNL     1      28.031  46.175  55.480  1.00  0.00     0.166 HD
ENDBRANCH  16  17
ENDBRANCH   1  16
TORSDOF 6
ENDMDL
MODEL 7
REMARK VINA RESULT:      -9.1      3.224      5.638
REMARK  6 active torsions:
REMARK  status: ('A' for Active; 'I' for Inactive)
REMARK    1  A    between atoms: O_2  and  C_3 
REMARK    2  A    between atoms: C_3  and  C_4 
REMARK    3  A    between atoms: C_7  and  N_8 
REMARK       I    between atoms: N_8  and  C_9 
REMARK    4  A    between atoms: C_9  and  C_10 
REMARK    5  A    between atoms: C_10  and  O_11 
REMARK    6  A    between atoms: O_11  and  C_12 
ROOT
HETATM    1  C   UNL     1      24.055  47.942  49.271  1.00  0.00     0.278 C 
ENDROOT
BRANCH   1   2
HETATM    2  C   UNL     1      22.594  48.305  48.993  1.00  0.00     0.246 C 
HETATM    3  N   UNL     1      22.211  49.478  49.624  1.00  0.00    -0.325 N 
HETATM    4  H   UNL     1      22.885  49.846  50.289  1.00  0.00     0.169 HD
HETATM    5  O   UNL     1      21.919  47.638  48.212  1.00  0.00    -0.271 OA
BRANCH   3   6
HETATM    6  C   UNL     1      21.026  50.213  49.435  1.00  0.00     0.034 A 
HETATM    7  C   UNL     1      20.906  51.282  48.546  1.00  0.00     0.030 A 
HETATM    8  C   UNL     1      19.710  52.008  48.455  1.00  0.00     0.020 A 
HETATM    9  C   UNL     1      18.616  51.670  49.259  1.00  0.00     0.039 A 
HETATM   10  C   UNL     1      18.724  50.584  50.135  1.00  0.00     0.020 A 
HETATM   11  C   UNL     1      19.920  49.861  50.220  1.00  0.00     0.030 A 
BRANCH   9  12
HETATM   12  C   UNL     1      17.339  52.434  49.232  1.00  0.00     0.292 C 
HETATM   13  O   UNL     1      16.894  53.037  50.195  1.00  0.00    -0.259 OA
BRANCH  12  14
HETATM   14  O   UNL     1      16.781  52.387  47.996  1.00  0.00    -0.323 OA
HETATM   15  C   UNL     1      15.363  52.562  47.990  1.00  0.00     0.213 C 
ENDBRANCH  12  14
ENDBRANCH   9  12
ENDBRANCH   3   6
ENDBRANCH   1   2
BRANCH   1  16
HETATM   16  O   UNL     1      24.287  47.818  50.675  1.00  0.00    -0.342 OA
BRANCH  16  17
HETATM   17  C   UNL     1      25.149  46.807  51.018  1.00  0.00     0.071 A 
HETATM   18  C   UNL     1      25.634  46.846  52.331  1.00  0.00     0.067 A 
HETATM   19  C   UNL     1      26.569  45.873  52.713  1.00  0.00     0.046 A 
HETATM   20  C   UNL     1      27.038  44.895  51.838  1.00  0.00     0.003 A 
HETATM   21  N   UNL     1      27.199  45.667  53.919  1.00  0.00    -0.355 N 
HETATM   22  C   UNL     1      26.541  44.879  50.520  1.00  0.00     0.017 A 
HETATM   23  C   UNL     1      27.996  44.104  52.548  1.00  0.00     0.003 A 
HETATM   24  C   UNL     1      25.604  45.842  50.120  1.00  0.00     0.038 A 
HETATM   25  C   UNL     1      28.076  44.610  53.844  1.00  0.00     0.043 A 
HETATM   26  C   UNL     1      28.810  43.006  52.200  1.00  0.00     0.014 A 
HETATM   27  C   UNL     1      28.930  44.071  54.815  1.00  0.00     0.030 A 
HETATM   28  C   UNL     1      29.729  42.985  54.444  1.00  0.00     0.002 A 
HETATM   29  C   UNL     1      29.674  42.459  53.156  1.00  0.00     0.001 A 
HETATM   30  H   UNL     1      27.050  46.226  54.746  1.00  0.00     0.166 HD
ENDBRANCH  16  17
ENDBRANCH   1  16
TORSDOF 6
ENDMDL
MODEL 8
REMARK VINA RESULT:      -8.9      2.464      9.203
REMARK  6 active torsions:
REMARK  status: ('A' for Active; 'I' for Inactive)
REMARK    1  A    between atoms: O_2  and  C_3 
REMARK    2  A    between atoms: C_3  and  C_4 
REMARK    3  A    between atoms: C_7  and  N_8 
REMARK       I    between atoms: N_8  and  C_9 
REMARK    4  A    between atoms: C_9  and  C_10 
REMARK    5  A    between atoms: C_10  and  O_11 
REMARK    6  A    between atoms: O_11  and  C_12 
ROOT
HETATM    1  C   UNL     1      26.359  42.752  50.091  1.00  0.00     0.278 C 
ENDROOT
BRANCH   1   2
HETATM    2  C   UNL     1      27.254  42.421  51.288  1.00  0.00     0.246 C 
HETATM    3  N   UNL     1      28.030  43.499  51.682  1.00  0.00    -0.325 N 
HETATM    4  H   UNL     1      28.014  44.293  51.048  1.00  0.00     0.169 HD
HETATM    5  O   UNL     1      27.174  41.331  51.849  1.00  0.00    -0.271 OA
BRANCH   3   6
HETATM    6  C   UNL     1      28.806  43.624  52.849  1.00  0.00     0.034 A 
HETATM    7  C   UNL     1      29.936  42.850  53.120  1.00  0.00     0.030 A 
HETATM    8  C   UNL     1      30.625  42.987  54.332  1.00  0.00     0.020 A 
HETATM    9  C   UNL     1      30.188  43.905  55.293  1.00  0.00     0.039 A 
HETATM   10  C   UNL     1      29.070  44.701  55.016  1.00  0.00     0.020 A 
HETATM   11  C   UNL     1      28.387  44.561  53.802  1.00  0.00     0.030 A 
BRANCH   9  12
HETATM   12  C   UNL     1      30.859  44.061  56.613  1.00  0.00     0.292 C 
HETATM   13  O   UNL     1      31.477  43.165  57.164  1.00  0.00    -0.259 OA
BRANCH  12  14
HETATM   14  O   UNL     1      30.709  45.327  57.078  1.00  0.00    -0.323 OA
HETATM   15  C   UNL     1      30.382  45.403  58.466  1.00  0.00     0.213 C 
ENDBRANCH  12  14
ENDBRANCH   9  12
ENDBRANCH   3   6
ENDBRANCH   1   2
BRANCH   1  16
HETATM   16  O   UNL     1      26.870  43.875  49.372  1.00  0.00    -0.342 OA
BRANCH  16  17
HETATM   17  C   UNL     1      26.097  45.005  49.466  1.00  0.00     0.071 A 
HETATM   18  C   UNL     1      24.742  44.839  49.157  1.00  0.00     0.067 A 
HETATM   19  C   UNL     1      23.921  45.975  49.174  1.00  0.00     0.046 A 
HETATM   20  C   UNL     1      24.404  47.249  49.467  1.00  0.00     0.003 A 
HETATM   21  N   UNL     1      22.574  46.106  48.923  1.00  0.00    -0.355 N 
HETATM   22  C   UNL     1      25.773  47.394  49.769  1.00  0.00     0.017 A 
HETATM   23  C   UNL     1      23.309  48.162  49.358  1.00  0.00     0.003 A 
HETATM   24  C   UNL     1      26.609  46.269  49.759  1.00  0.00     0.038 A 
HETATM   25  C   UNL     1      22.180  47.420  49.017  1.00  0.00     0.043 A 
HETATM   26  C   UNL     1      23.179  49.558  49.511  1.00  0.00     0.014 A 
HETATM   27  C   UNL     1      20.921  48.004  48.823  1.00  0.00     0.030 A 
HETATM   28  C   UNL     1      20.819  49.390  48.977  1.00  0.00     0.002 A 
HETATM   29  C   UNL     1      21.930  50.159  49.315  1.00  0.00     0.001 A 
HETATM   30  H   UNL     1      21.958  45.342  48.687  1.00  0.00     0.166 HD
ENDBRANCH  16  17
ENDBRANCH   1  16
TORSDOF 6
ENDMDL
MODEL 9
REMARK VINA RESULT:      -8.7      3.113     10.654
REMARK  6 active torsions:
REMARK  status: ('A' for Active; 'I' for Inactive)
REMARK    1  A    between atoms: O_2  and  C_3 
REMARK    2  A    between atoms: C_3  and  C_4 
REMARK    3  A    between atoms: C_7  and  N_8 
REMARK       I    between atoms: N_8  and  C_9 
REMARK    4  A    between atoms: C_9  and  C_10 
REMARK    5  A    between atoms: C_10  and  O_11 
REMARK    6  A    between atoms: O_11  and  C_12 
ROOT
HETATM    1  C   UNL     1      24.591  46.090  50.803  1.00  0.00     0.278 C 
ENDROOT
BRANCH   1   2
HETATM    2  C   UNL     1      25.655  46.458  51.840  1.00  0.00     0.246 C 
HETATM    3  N   UNL     1      26.039  45.374  52.613  1.00  0.00    -0.325 N 
HETATM    4  H   UNL     1      25.469  44.540  52.494  1.00  0.00     0.169 HD
HETATM    5  O   UNL     1      26.140  47.586  51.867  1.00  0.00    -0.271 OA
BRANCH   3   6
HETATM    6  C   UNL     1      27.119  45.292  53.510  1.00  0.00     0.034 A 
HETATM    7  C   UNL     1      28.072  44.271  53.491  1.00  0.00     0.030 A 
HETATM    8  C   UNL     1      29.087  44.220  54.456  1.00  0.00     0.020 A 
HETATM    9  C   UNL     1      29.160  45.195  55.456  1.00  0.00     0.039 A 
HETATM   10  C   UNL     1      28.221  46.233  55.465  1.00  0.00     0.020 A 
HETATM   11  C   UNL     1      27.210  46.280  54.498  1.00  0.00     0.030 A 
BRANCH   9  12
HETATM   12  C   UNL     1      30.192  45.164  56.529  1.00  0.00     0.292 C 
HETATM   13  O   UNL     1      30.058  45.716  57.609  1.00  0.00    -0.259 OA
BRANCH  12  14
HETATM   14  O   UNL     1      31.259  44.420  56.143  1.00  0.00    -0.323 OA
HETATM   15  C   UNL     1      31.592  43.366  57.047  1.00  0.00     0.213 C 
ENDBRANCH  12  14
ENDBRANCH   9  12
ENDBRANCH   3   6
ENDBRANCH   1   2
BRANCH   1  16
HETATM   16  O   UNL     1      24.778  46.836  49.600  1.00  0.00    -0.342 OA
BRANCH  16  17
HETATM   17  C   UNL     1      23.638  47.430  49.120  1.00  0.00     0.071 A 
HETATM   18  C   UNL     1      23.506  48.796  49.395  1.00  0.00     0.067 A 
HETATM   19  C   UNL     1      22.329  49.438  48.984  1.00  0.00     0.046 A 
HETATM   20  C   UNL     1      21.293  48.768  48.337  1.00  0.00     0.003 A 
HETATM   21  N   UNL     1      21.938  50.751  49.111  1.00  0.00    -0.355 N 
HETATM   22  C   UNL     1      21.444  47.391  48.077  1.00  0.00     0.017 A 
HETATM   23  C   UNL     1      20.247  49.714  48.100  1.00  0.00     0.003 A 
HETATM   24  C   UNL     1      22.615  46.733  48.478  1.00  0.00     0.038 A 
HETATM   25  C   UNL     1      20.679  50.944  48.594  1.00  0.00     0.043 A 
HETATM   26  C   UNL     1      18.966  49.633  47.516  1.00  0.00     0.014 A 
HETATM   27  C   UNL     1      19.893  52.102  48.532  1.00  0.00     0.030 A 
HETATM   28  C   UNL     1      18.625  51.994  47.951  1.00  0.00     0.002 A 
HETATM   29  C   UNL     1      18.165  50.778  47.451  1.00  0.00     0.001 A 
HETATM   30  H   UNL     1      22.496  51.476  49.539  1.00  0.00     0.166 HD
ENDBRANCH  16  17
ENDBRANCH   1  16
TORSDOF 6
ENDMDL
MODEL 10
REMARK VINA RESULT:      -8.6      2.818      3.447
REMARK  6 active torsions:
REMARK  status: ('A' for Active; 'I' for Inactive)
REMARK    1  A    between atoms: O_2  and  C_3 
REMARK    2  A    between atoms: C_3  and  C_4 
REMARK    3  A    between atoms: C_7  and  N_8 
REMARK       I    between atoms: N_8  and  C_9 
REMARK    4  A    between atoms: C_9  and  C_10 
REMARK    5  A    between atoms: C_10  and  O_11 
REMARK    6  A    between atoms: O_11  and  C_12 
ROOT
HETATM    1  C   UNL     1      26.061  47.229  51.576  1.00  0.00     0.278 C 
ENDROOT
BRANCH   1   2
HETATM    2  C   UNL     1      25.370  47.463  50.230  1.00  0.00     0.246 C 
HETATM    3  N   UNL     1      24.123  46.862  50.163  1.00  0.00    -0.325 N 
HETATM    4  H   UNL     1      23.907  46.238  50.935  1.00  0.00     0.169 HD
HETATM    5  O   UNL     1      25.880  48.192  49.382  1.00  0.00    -0.271 OA
BRANCH   3   6
HETATM    6  C   UNL     1      23.134  47.032  49.176  1.00  0.00     0.034 A 
HETATM    7  C   UNL     1      22.429  48.220  48.977  1.00  0.00     0.030 A 
HETATM    8  C   UNL     1      21.413  48.297  48.015  1.00  0.00     0.020 A 
HETATM    9  C   UNL     1      21.090  47.180  47.237  1.00  0.00     0.039 A 
HETATM   10  C   UNL     1      21.812  45.994  47.417  1.00  0.00     0.020 A 
HETATM   11  C   UNL     1      22.827  45.923  48.378  1.00  0.00     0.030 A 
BRANCH   9  12
HETATM   12  C   UNL     1      19.993  47.196  46.231  1.00  0.00     0.292 C 
HETATM   13  O   UNL     1      19.756  46.266  45.478  1.00  0.00    -0.259 OA
BRANCH  12  14
HETATM   14  O   UNL     1      19.298  48.359  46.303  1.00  0.00    -0.323 OA
HETATM   15  C   UNL     1      17.950  48.261  45.841  1.00  0.00     0.213 C 
ENDBRANCH  12  14
ENDBRANCH   9  12
ENDBRANCH   3   6
ENDBRANCH   1   2
BRANCH   1  16
HETATM   16  O   UNL     1      25.756  45.929  52.081  1.00  0.00    -0.342 OA
BRANCH  16  17
HETATM   17  C   UNL     1      26.735  45.388  52.877  1.00  0.00     0.071 A 
HETATM   18  C   UNL     1      27.014  46.091  54.054  1.00  0.00     0.067 A 
HETATM   19  C   UNL     1      28.051  45.617  54.870  1.00  0.00     0.046 A 
HETATM   20  C   UNL     1      28.813  44.496  54.545  1.00  0.00     0.003 A 
HETATM   21  N   UNL     1      28.532  46.094  56.068  1.00  0.00    -0.355 N 
HETATM   22  C   UNL     1      28.518  43.808  53.352  1.00  0.00     0.017 A 
HETATM   23  C   UNL     1      29.792  44.326  55.574  1.00  0.00     0.003 A 
HETATM   24  C   UNL     1      27.483  44.266  52.524  1.00  0.00     0.038 A 
HETATM   25  C   UNL     1      29.593  45.338  56.511  1.00  0.00     0.043 A 
HETATM   26  C   UNL     1      30.838  43.405  55.788  1.00  0.00     0.014 A 
HETATM   27  C   UNL     1      30.387  45.476  57.657  1.00  0.00     0.030 A 
HETATM   28  C   UNL     1      31.420  44.551  57.844  1.00  0.00     0.002 A 
HETATM   29  C   UNL     1      31.645  43.531  56.924  1.00  0.00     0.001 A 
HETATM   30  H   UNL     1      28.166  46.901  56.553  1.00  0.00     0.166 HD
ENDBRANCH  16  17
ENDBRANCH   1  16
TORSDOF 6
ENDMDL
