MODEL 1
REMARK VINA RESULT:     -10.1      0.000      0.000
REMARK  9 active torsions:
REMARK  status: ('A' for Active; 'I' for Inactive)
REMARK    1  A    between atoms: C_2  and  O_3 
REMARK    2  A    between atoms: O_3  and  C_4 
REMARK    3  A    between atoms: C_7  and  C_8 
REMARK    4  A    between atoms: C_9  and  C_10 
REMARK       I    between atoms: C_10  and  N_11 
REMARK    5  A    between atoms: N_11  and  C_12 
REMARK    6  A    between atoms: C_22  and  S_23 
REMARK    7  A    between atoms: S_23  and  C_24 
REMARK    8  A    between atoms: C_24  and  C_25 
REMARK       I    between atoms: C_25  and  N_26 
REMARK    9  A    between atoms: N_26  and  C_27 
ROOT
HETATM    1  C   UNL     1      25.750  43.248  51.922  1.00  0.00     0.106 C 
HETATM    2  C   UNL     1      27.019  42.585  52.433  1.00  0.00     0.046 C 
HETATM    3  C   UNL     1      27.617  41.595  51.734  1.00  0.00     0.019 C 
HETATM    4  C   UNL     1      28.814  40.808  52.203  1.00  0.00     0.069 C 
HETATM    5  N   UNL     1      27.083  41.214  50.513  1.00  0.00    -0.353 N 
HETATM    6  C   UNL     1      25.828  41.579  50.046  1.00  0.00     0.088 C 
HETATM    7  C   UNL     1      25.115  42.506  50.736  1.00  0.00     0.069 C 
HETATM    8  C   UNL     1      23.787  42.896  50.380  1.00  0.00     0.099 C 
HETATM    9  N   UNL     1      22.701  43.215  50.121  1.00  0.00    -0.192 NA
HETATM   10  H   UNL     1      27.581  40.505  49.986  1.00  0.00     0.166 HD
ENDROOT
BRANCH   1  11
HETATM   11  C   UNL     1      25.998  44.702  51.491  1.00  0.00    -0.044 A 
HETATM   12  C   UNL     1      26.720  44.996  50.319  1.00  0.00     0.011 A 
HETATM   13  C   UNL     1      26.747  46.292  49.802  1.00  0.00     0.037 A 
HETATM   14  C   UNL     1      26.041  47.309  50.443  1.00  0.00     0.068 A 
HETATM   15  C   UNL     1      25.398  47.050  51.652  1.00  0.00     0.037 A 
HETATM   16  C   UNL     1      25.368  45.754  52.173  1.00  0.00     0.011 A 
BRANCH  14  17
HETATM   17  O   UNL     1      25.927  48.584  49.957  1.00  0.00    -0.352 OA
BRANCH  17  18
HETATM   18  C   UNL     1      26.927  48.928  48.991  1.00  0.00     0.171 C 
HETATM   19  C   UNL     1      26.349  49.974  48.055  1.00  0.00     0.034 C 
ENDBRANCH  17  18
ENDBRANCH  14  17
ENDBRANCH   1  11
BRANCH   6  20
HETATM   20  S   UNL     1      25.207  40.993  48.514  1.00  0.00    -0.102 SA
BRANCH  20  21
HETATM   21  C   UNL     1      26.063  39.411  48.260  1.00  0.00     0.184 C 
BRANCH  21  22
HETATM   22  C   UNL     1      27.338  39.575  47.426  1.00  0.00     0.231 C 
HETATM   23  N   UNL     1      27.181  39.262  46.087  1.00  0.00    -0.327 N 
HETATM   24  H   UNL     1      26.285  38.849  45.845  1.00  0.00     0.169 HD
HETATM   25  O   UNL     1      28.351  40.038  47.945  1.00  0.00    -0.272 OA
BRANCH  23  26
HETATM   26  C   UNL     1      28.116  39.356  45.041  1.00  0.00     0.034 A 
HETATM   27  C   UNL     1      28.485  40.548  44.425  1.00  0.00     0.030 A 
HETATM   28  C   UNL     1      29.426  40.546  43.387  1.00  0.00     0.009 A 
HETATM   29  C   UNL     1      29.999  39.349  42.944  1.00  0.00    -0.062 A 
HETATM   30  C   UNL     1      31.029  39.346  41.854  1.00  0.00     0.048 C 
HETATM   31  C   UNL     1      29.637  38.155  43.571  1.00  0.00     0.009 A 
HETATM   32  C   UNL     1      28.702  38.159  44.610  1.00  0.00     0.030 A 
ENDBRANCH  23  26
ENDBRANCH  21  22
ENDBRANCH  20  21
ENDBRANCH   6  20
BRANCH   2  33
HETATM   33  C   UNL     1      27.473  43.027  53.780  1.00  0.00     0.255 C 
HETATM   34  N   UNL     1      28.699  43.658  53.749  1.00  0.00    -0.323 N 
HETATM   35  H   UNL     1      29.107  43.817  52.838  1.00  0.00     0.169 HD
HETATM   36  O   UNL     1      26.750  42.829  54.746  1.00  0.00    -0.268 OA
BRANCH  34  37
HETATM   37  C   UNL     1      29.466  44.090  54.851  1.00  0.00     0.035 A 
HETATM   38  C   UNL     1      29.271  45.304  55.511  1.00  0.00     0.029 A 
HETATM   39  C   UNL     1      30.057  45.644  56.617  1.00  0.00     0.002 A 
HETATM   40  C   UNL     1      31.042  44.771  57.074  1.00  0.00     0.000 A 
HETATM   41  C   UNL     1      31.246  43.559  56.423  1.00  0.00     0.002 A 
HETATM   42  C   UNL     1      30.464  43.221  55.314  1.00  0.00     0.029 A 
ENDBRANCH  34  37
ENDBRANCH   2  33
TORSDOF 9
ENDMDL
MODEL 2
REMARK VINA RESULT:      -9.5      6.605     11.107
REMARK  9 active torsions:
REMARK  status: ('A' for Active; 'I' for Inactive)
REMARK    1  A    between atoms: C_2  and  O_3 
REMARK    2  A    between atoms: O_3  and  C_4 
REMARK    3  A    between atoms: C_7  and  C_8 
REMARK    4  A    between atoms: C_9  and  C_10 
REMARK       I    between atoms: C_10  and  N_11 
REMARK    5  A    between atoms: N_11  and  C_12 
REMARK    6  A    between atoms: C_22  and  S_23 
REMARK    7  A    between atoms: S_23  and  C_24 
REMARK    8  A    between atoms: C_24  and  C_25 
REMARK       I    between atoms: C_25  and  N_26 
REMARK    9  A    between atoms: N_26  and  C_27 
ROOT
HETATM    1  C   UNL     1      21.368  48.623  47.593  1.00  0.00     0.106 C 
HETATM    2  C   UNL     1      20.516  47.368  47.492  1.00  0.00     0.046 C 
HETATM    3  C   UNL     1      20.873  46.231  48.129  1.00  0.00     0.019 C 
HETATM    4  C   UNL     1      20.154  44.912  48.009  1.00  0.00     0.069 C 
HETATM    5  N   UNL     1      22.012  46.230  48.920  1.00  0.00    -0.353 N 
HETATM    6  C   UNL     1      22.979  47.225  48.920  1.00  0.00     0.088 C 
HETATM    7  C   UNL     1      22.743  48.372  48.231  1.00  0.00     0.069 C 
HETATM    8  C   UNL     1      23.702  49.424  48.110  1.00  0.00     0.099 C 
HETATM    9  N   UNL     1      24.471  50.284  47.982  1.00  0.00    -0.192 NA
HETATM   10  H   UNL     1      22.228  45.380  49.427  1.00  0.00     0.166 HD
ENDROOT
BRANCH   1  11
HETATM   11  C   UNL     1      20.668  49.728  48.401  1.00  0.00    -0.044 A 
HETATM   12  C   UNL     1      20.373  50.974  47.817  1.00  0.00     0.011 A 
HETATM   13  C   UNL     1      19.538  51.887  48.464  1.00  0.00     0.037 A 
HETATM   14  C   UNL     1      18.977  51.560  49.698  1.00  0.00     0.068 A 
HETATM   15  C   UNL     1      19.334  50.369  50.327  1.00  0.00     0.037 A 
HETATM   16  C   UNL     1      20.169  49.452  49.682  1.00  0.00     0.011 A 
BRANCH  14  17
HETATM   17  O   UNL     1      18.071  52.346  50.358  1.00  0.00    -0.352 OA
BRANCH  17  18
HETATM   18  C   UNL     1      17.063  52.907  49.510  1.00  0.00     0.171 C 
HETATM   19  C   UNL     1      15.826  52.030  49.590  1.00  0.00     0.034 C 
ENDBRANCH  17  18
ENDBRANCH  14  17
ENDBRANCH   1  11
BRANCH   6  20
HETATM   20  S   UNL     1      24.425  47.107  49.907  1.00  0.00    -0.102 SA
BRANCH  20  21
HETATM   21  C   UNL     1      25.080  45.452  49.543  1.00  0.00     0.184 C 
BRANCH  21  22
HETATM   22  C   UNL     1      26.446  45.220  50.196  1.00  0.00     0.231 C 
HETATM   23  N   UNL     1      26.380  44.682  51.469  1.00  0.00    -0.327 N 
HETATM   24  H   UNL     1      25.446  44.622  51.861  1.00  0.00     0.169 HD
HETATM   25  O   UNL     1      27.473  45.425  49.552  1.00  0.00    -0.272 OA
BRANCH  23  26
HETATM   26  C   UNL     1      27.429  44.293  52.321  1.00  0.00     0.034 A 
HETATM   27  C   UNL     1      28.400  43.352  51.988  1.00  0.00     0.030 A 
HETATM   28  C   UNL     1      29.410  43.025  52.902  1.00  0.00     0.009 A 
HETATM   29  C   UNL     1      29.452  43.624  54.166  1.00  0.00    -0.062 A 
HETATM   30  C   UNL     1      30.548  43.297  55.136  1.00  0.00     0.048 C 
HETATM   31  C   UNL     1      28.484  44.576  54.494  1.00  0.00     0.009 A 
HETATM   32  C   UNL     1      27.480  44.905  53.580  1.00  0.00     0.030 A 
ENDBRANCH  23  26
ENDBRANCH  21  22
ENDBRANCH  20  21
ENDBRANCH   6  20
BRANCH   2  33
HETATM   33  C   UNL     1      19.350  47.461  46.572  1.00  0.00     0.255 C 
HETATM   34  N   UNL     1      18.192  47.845  47.215  1.00  0.00    -0.323 N 
HETATM   35  H   UNL     1      18.273  48.091  48.192  1.00  0.00     0.169 HD
HETATM   36  O   UNL     1      19.510  47.226  45.383  1.00  0.00    -0.268 OA
BRANCH  34  37
HETATM   37  C   UNL     1      16.893  47.914  46.669  1.00  0.00     0.035 A 
HETATM   38  C   UNL     1      15.881  48.739  47.162  1.00  0.00     0.029 A 
HETATM   39  C   UNL     1      14.628  48.770  46.543  1.00  0.00     0.002 A 
HETATM   40  C   UNL     1      14.377  47.980  45.424  1.00  0.00     0.000 A 
HETATM   41  C   UNL     1      15.377  47.152  44.925  1.00  0.00     0.002 A 
HETATM   42  C   UNL     1      16.629  47.117  45.546  1.00  0.00     0.029 A 
ENDBRANCH  34  37
ENDBRANCH   2  33
TORSDOF 9
ENDMDL
MODEL 3
REMARK VINA RESULT:      -9.3      5.570     10.621
REMARK  9 active torsions:
REMARK  status: ('A' for Active; 'I' for Inactive)
REMARK    1  A    between atoms: C_2  and  O_3 
REMARK    2  A    between atoms: O_3  and  C_4 
REMARK    3  A    between atoms: C_7  and  C_8 
REMARK    4  A    between atoms: C_9  and  C_10 
REMARK       I    between atoms: C_10  and  N_11 
REMARK    5  A    between atoms: N_11  and  C_12 
REMARK    6  A    between atoms: C_22  and  S_23 
REMARK    7  A    between atoms: S_23  and  C_24 
REMARK    8  A    between atoms: C_24  and  C_25 
REMARK       I    between atoms: C_25  and  N_26 
REMARK    9  A    between atoms: N_26  and  C_27 
ROOT
HETATM    1  C   UNL     1      22.981  47.880  48.116  1.00  0.00     0.106 C 
HETATM    2  C   UNL     1      22.147  46.629  47.896  1.00  0.00     0.046 C 
HETATM    3  C   UNL     1      22.268  45.559  48.712  1.00  0.00     0.019 C 
HETATM    4  C   UNL     1      21.565  44.240  48.518  1.00  0.00     0.069 C 
HETATM    5  N   UNL     1      23.138  45.627  49.789  1.00  0.00    -0.353 N 
HETATM    6  C   UNL     1      24.102  46.609  49.970  1.00  0.00     0.088 C 
HETATM    7  C   UNL     1      24.111  47.682  49.138  1.00  0.00     0.069 C 
HETATM    8  C   UNL     1      25.104  48.709  49.195  1.00  0.00     0.099 C 
HETATM    9  N   UNL     1      25.909  49.545  49.210  1.00  0.00    -0.192 NA
HETATM   10  H   UNL     1      23.171  44.830  50.414  1.00  0.00     0.166 HD
ENDROOT
BRANCH   1  11
HETATM   11  C   UNL     1      22.123  49.066  48.585  1.00  0.00    -0.044 A 
HETATM   12  C   UNL     1      22.242  50.330  47.977  1.00  0.00     0.011 A 
HETATM   13  C   UNL     1      21.312  51.338  48.236  1.00  0.00     0.037 A 
HETATM   14  C   UNL     1      20.244  51.092  49.096  1.00  0.00     0.068 A 
HETATM   15  C   UNL     1      20.167  49.877  49.774  1.00  0.00     0.037 A 
HETATM   16  C   UNL     1      21.095  48.864  49.517  1.00  0.00     0.011 A 
BRANCH  14  17
HETATM   17  O   UNL     1      19.232  51.983  49.332  1.00  0.00    -0.352 OA
BRANCH  17  18
HETATM   18  C   UNL     1      18.060  51.392  49.906  1.00  0.00     0.171 C 
HETATM   19  C   UNL     1      16.859  52.235  49.519  1.00  0.00     0.034 C 
ENDBRANCH  17  18
ENDBRANCH  14  17
ENDBRANCH   1  11
BRANCH   6  20
HETATM   20  S   UNL     1      25.207  46.578  51.333  1.00  0.00    -0.102 SA
BRANCH  20  21
HETATM   21  C   UNL     1      25.180  44.849  51.890  1.00  0.00     0.184 C 
BRANCH  21  22
HETATM   22  C   UNL     1      25.978  44.650  53.183  1.00  0.00     0.231 C 
HETATM   23  N   UNL     1      27.343  44.530  52.991  1.00  0.00    -0.327 N 
HETATM   24  H   UNL     1      27.635  44.464  52.020  1.00  0.00     0.169 HD
HETATM   25  O   UNL     1      25.404  44.699  54.269  1.00  0.00    -0.272 OA
BRANCH  23  26
HETATM   26  C   UNL     1      28.363  44.398  53.949  1.00  0.00     0.034 A 
HETATM   27  C   UNL     1      28.681  45.369  54.894  1.00  0.00     0.030 A 
HETATM   28  C   UNL     1      29.717  45.151  55.811  1.00  0.00     0.009 A 
HETATM   29  C   UNL     1      30.457  43.964  55.786  1.00  0.00    -0.062 A 
HETATM   30  C   UNL     1      31.547  43.715  56.786  1.00  0.00     0.048 C 
HETATM   31  C   UNL     1      30.129  42.985  54.846  1.00  0.00     0.009 A 
HETATM   32  C   UNL     1      29.092  43.201  53.934  1.00  0.00     0.030 A 
ENDBRANCH  23  26
ENDBRANCH  21  22
ENDBRANCH  20  21
ENDBRANCH   6  20
BRANCH   2  33
HETATM   33  C   UNL     1      21.290  46.638  46.679  1.00  0.00     0.255 C 
HETATM   34  N   UNL     1      19.979  46.968  46.951  1.00  0.00    -0.323 N 
HETATM   35  H   UNL     1      19.765  47.236  47.902  1.00  0.00     0.169 HD
HETATM   36  O   UNL     1      21.796  46.391  45.593  1.00  0.00    -0.268 OA
BRANCH  34  37
HETATM   37  C   UNL     1      18.890  46.954  46.055  1.00  0.00     0.035 A 
HETATM   38  C   UNL     1      18.045  45.858  45.870  1.00  0.00     0.029 A 
HETATM   39  C   UNL     1      16.967  45.937  44.983  1.00  0.00     0.002 A 
HETATM   40  C   UNL     1      16.721  47.112  44.278  1.00  0.00     0.000 A 
HETATM   41  C   UNL     1      17.557  48.210  44.454  1.00  0.00     0.002 A 
HETATM   42  C   UNL     1      18.638  48.131  45.336  1.00  0.00     0.029 A 
ENDBRANCH  34  37
ENDBRANCH   2  33
TORSDOF 9
ENDMDL
MODEL 4
REMARK VINA RESULT:      -8.7      3.204      6.011
REMARK  9 active torsions:
REMARK  status: ('A' for Active; 'I' for Inactive)
REMARK    1  A    between atoms: C_2  and  O_3 
REMARK    2  A    between atoms: O_3  and  C_4 
REMARK    3  A    between atoms: C_7  and  C_8 
REMARK    4  A    between atoms: C_9  and  C_10 
REMARK       I    between atoms: C_10  and  N_11 
REMARK    5  A    between atoms: N_11  and  C_12 
REMARK    6  A    between atoms: C_22  and  S_23 
REMARK    7  A    between atoms: S_23  and  C_24 
REMARK    8  A    between atoms: C_24  and  C_25 
REMARK       I    between atoms: C_25  and  N_26 
REMARK    9  A    between atoms: N_26  and  C_27 
ROOT
HETATM    1  C   UNL     1      25.222  41.375  49.409  1.00  0.00     0.106 C 
HETATM    2  C   UNL     1      26.725  41.155  49.445  1.00  0.00     0.046 C 
HETATM    3  C   UNL     1      27.411  40.851  48.321  1.00  0.00     0.019 C 
HETATM    4  C   UNL     1      28.879  40.514  48.269  1.00  0.00     0.069 C 
HETATM    5  N   UNL     1      26.732  40.783  47.114  1.00  0.00    -0.353 N 
HETATM    6  C   UNL     1      25.351  40.745  46.980  1.00  0.00     0.088 C 
HETATM    7  C   UNL     1      24.579  40.953  48.078  1.00  0.00     0.069 C 
HETATM    8  C   UNL     1      23.153  40.864  48.060  1.00  0.00     0.099 C 
HETATM    9  N   UNL     1      21.996  40.779  48.075  1.00  0.00    -0.192 NA
HETATM   10  H   UNL     1      27.279  40.604  46.279  1.00  0.00     0.166 HD
ENDROOT
BRANCH   1  11
HETATM   11  C   UNL     1      24.851  42.845  49.667  1.00  0.00    -0.044 A 
HETATM   12  C   UNL     1      24.062  43.208  50.775  1.00  0.00     0.011 A 
HETATM   13  C   UNL     1      23.919  44.546  51.142  1.00  0.00     0.037 A 
HETATM   14  C   UNL     1      24.574  45.539  50.415  1.00  0.00     0.068 A 
HETATM   15  C   UNL     1      25.282  45.200  49.264  1.00  0.00     0.037 A 
HETATM   16  C   UNL     1      25.428  43.861  48.892  1.00  0.00     0.011 A 
BRANCH  14  17
HETATM   17  O   UNL     1      24.574  46.864  50.758  1.00  0.00    -0.352 OA
BRANCH  17  18
HETATM   18  C   UNL     1      25.869  47.378  51.088  1.00  0.00     0.171 C 
HETATM   19  C   UNL     1      26.134  47.105  52.558  1.00  0.00     0.034 C 
ENDBRANCH  17  18
ENDBRANCH  14  17
ENDBRANCH   1  11
BRANCH   6  20
HETATM   20  S   UNL     1      24.579  40.591  45.413  1.00  0.00    -0.102 SA
BRANCH  20  21
HETATM   21  C   UNL     1      24.424  42.302  44.821  1.00  0.00     0.184 C 
BRANCH  21  22
HETATM   22  C   UNL     1      23.122  42.957  45.293  1.00  0.00     0.231 C 
HETATM   23  N   UNL     1      23.302  43.961  46.229  1.00  0.00    -0.327 N 
HETATM   24  H   UNL     1      24.251  44.058  46.577  1.00  0.00     0.169 HD
HETATM   25  O   UNL     1      22.055  42.636  44.776  1.00  0.00    -0.272 OA
BRANCH  23  26
HETATM   26  C   UNL     1      22.343  44.799  46.823  1.00  0.00     0.034 A 
HETATM   27  C   UNL     1      21.902  45.999  46.271  1.00  0.00     0.030 A 
HETATM   28  C   UNL     1      20.941  46.772  46.936  1.00  0.00     0.009 A 
HETATM   29  C   UNL     1      20.419  46.361  48.167  1.00  0.00    -0.062 A 
HETATM   30  C   UNL     1      19.368  47.170  48.867  1.00  0.00     0.048 C 
HETATM   31  C   UNL     1      20.852  45.151  48.713  1.00  0.00     0.009 A 
HETATM   32  C   UNL     1      21.808  44.378  48.047  1.00  0.00     0.030 A 
ENDBRANCH  23  26
ENDBRANCH  21  22
ENDBRANCH  20  21
ENDBRANCH   6  20
BRANCH   2  33
HETATM   33  C   UNL     1      27.344  41.193  50.798  1.00  0.00     0.255 C 
HETATM   34  N   UNL     1      27.655  42.472  51.207  1.00  0.00    -0.323 N 
HETATM   35  H   UNL     1      27.368  43.227  50.599  1.00  0.00     0.169 HD
HETATM   36  O   UNL     1      27.494  40.146  51.412  1.00  0.00    -0.268 OA
BRANCH  34  37
HETATM   37  C   UNL     1      28.353  42.851  52.372  1.00  0.00     0.035 A 
HETATM   38  C   UNL     1      29.673  42.488  52.646  1.00  0.00     0.029 A 
HETATM   39  C   UNL     1      30.303  42.933  53.812  1.00  0.00     0.002 A 
HETATM   40  C   UNL     1      29.621  43.748  54.713  1.00  0.00     0.000 A 
HETATM   41  C   UNL     1      28.305  44.115  54.451  1.00  0.00     0.002 A 
HETATM   42  C   UNL     1      27.673  43.667  53.287  1.00  0.00     0.029 A 
ENDBRANCH  34  37
ENDBRANCH   2  33
TORSDOF 9
ENDMDL
MODEL 5
REMARK VINA RESULT:      -8.7      8.236     13.718
REMARK  9 active torsions:
REMARK  status: ('A' for Active; 'I' for Inactive)
REMARK    1  A    between atoms: C_2  and  O_3 
REMARK    2  A    between atoms: O_3  and  C_4 
REMARK    3  A    between atoms: C_7  and  C_8 
REMARK    4  A    between atoms: C_9  and  C_10 
REMARK       I    between atoms: C_10  and  N_11 
REMARK    5  A    between atoms: N_11  and  C_12 
REMARK    6  A    between atoms: C_22  and  S_23 
REMARK    7  A    between atoms: S_23  and  C_24 
REMARK    8  A    between atoms: C_24  and  C_25 
REMARK       I    between atoms: C_25  and  N_26 
REMARK    9  A    between atoms: N_26  and  C_27 
ROOT
HETATM    1  C   UNL     1      20.326  48.778  47.193  1.00  0.00     0.106 C 
HETATM    2  C   UNL     1      21.115  49.589  48.207  1.00  0.00     0.046 C 
HETATM    3  C   UNL     1      20.489  50.264  49.197  1.00  0.00     0.019 C 
HETATM    4  C   UNL     1      21.171  51.175  50.186  1.00  0.00     0.069 C 
HETATM    5  N   UNL     1      19.110  50.174  49.307  1.00  0.00    -0.353 N 
HETATM    6  C   UNL     1      18.267  49.657  48.334  1.00  0.00     0.088 C 
HETATM    7  C   UNL     1      18.812  49.037  47.255  1.00  0.00     0.069 C 
HETATM    8  C   UNL     1      18.036  48.535  46.165  1.00  0.00     0.099 C 
HETATM    9  N   UNL     1      17.428  48.137  45.260  1.00  0.00    -0.192 NA
HETATM   10  H   UNL     1      18.672  50.648  50.089  1.00  0.00     0.166 HD
ENDROOT
BRANCH   1  11
HETATM   11  C   UNL     1      20.553  47.267  47.365  1.00  0.00    -0.044 A 
HETATM   12  C   UNL     1      21.389  46.557  46.482  1.00  0.00     0.011 A 
HETATM   13  C   UNL     1      21.781  45.248  46.768  1.00  0.00     0.037 A 
HETATM   14  C   UNL     1      21.355  44.637  47.946  1.00  0.00     0.068 A 
HETATM   15  C   UNL     1      20.455  45.297  48.781  1.00  0.00     0.037 A 
HETATM   16  C   UNL     1      20.060  46.608  48.499  1.00  0.00     0.011 A 
BRANCH  14  17
HETATM   17  O   UNL     1      21.767  43.399  48.357  1.00  0.00    -0.352 OA
BRANCH  17  18
HETATM   18  C   UNL     1      23.191  43.245  48.400  1.00  0.00     0.171 C 
HETATM   19  C   UNL     1      23.698  43.840  49.702  1.00  0.00     0.034 C 
ENDBRANCH  17  18
ENDBRANCH  14  17
ENDBRANCH   1  11
BRANCH   6  20
HETATM   20  S   UNL     1      16.525  49.645  48.533  1.00  0.00    -0.102 SA
BRANCH  20  21
HETATM   21  C   UNL     1      16.013  51.331  48.088  1.00  0.00     0.184 C 
BRANCH  21  22
HETATM   22  C   UNL     1      16.146  52.301  49.267  1.00  0.00     0.231 C 
HETATM   23  N   UNL     1      15.253  53.358  49.232  1.00  0.00    -0.327 N 
HETATM   24  H   UNL     1      14.709  53.431  48.378  1.00  0.00     0.169 HD
HETATM   25  O   UNL     1      16.933  52.051  50.177  1.00  0.00    -0.272 OA
BRANCH  23  26
HETATM   26  C   UNL     1      15.063  54.386  50.172  1.00  0.00     0.034 A 
HETATM   27  C   UNL     1      15.438  55.711  49.970  1.00  0.00     0.030 A 
HETATM   28  C   UNL     1      15.209  56.671  50.964  1.00  0.00     0.009 A 
HETATM   29  C   UNL     1      14.614  56.313  52.179  1.00  0.00    -0.062 A 
HETATM   30  C   UNL     1      14.341  57.343  53.235  1.00  0.00     0.048 C 
HETATM   31  C   UNL     1      14.226  54.986  52.376  1.00  0.00     0.009 A 
HETATM   32  C   UNL     1      14.451  54.031  51.381  1.00  0.00     0.030 A 
ENDBRANCH  23  26
ENDBRANCH  21  22
ENDBRANCH  20  21
ENDBRANCH   6  20
BRANCH   2  33
HETATM   33  C   UNL     1      22.581  49.666  47.963  1.00  0.00     0.255 C 
HETATM   34  N   UNL     1      23.311  48.899  48.845  1.00  0.00    -0.323 N 
HETATM   35  H   UNL     1      22.786  48.325  49.491  1.00  0.00     0.169 HD
HETATM   36  O   UNL     1      22.994  50.346  47.033  1.00  0.00    -0.268 OA
BRANCH  34  37
HETATM   37  C   UNL     1      24.714  48.838  48.969  1.00  0.00     0.035 A 
HETATM   38  C   UNL     1      25.586  49.803  48.460  1.00  0.00     0.029 A 
HETATM   39  C   UNL     1      26.966  49.683  48.653  1.00  0.00     0.002 A 
HETATM   40  C   UNL     1      27.485  48.601  49.359  1.00  0.00     0.000 A 
HETATM   41  C   UNL     1      26.626  47.633  49.869  1.00  0.00     0.002 A 
HETATM   42  C   UNL     1      25.247  47.749  49.672  1.00  0.00     0.029 A 
ENDBRANCH  34  37
ENDBRANCH   2  33
TORSDOF 9
ENDMDL
MODEL 6
REMARK VINA RESULT:      -8.6      4.367      9.744
REMARK  9 active torsions:
REMARK  status: ('A' for Active; 'I' for Inactive)
REMARK    1  A    between atoms: C_2  and  O_3 
REMARK    2  A    between atoms: O_3  and  C_4 
REMARK    3  A    between atoms: C_7  and  C_8 
REMARK    4  A    between atoms: C_9  and  C_10 
REMARK       I    between atoms: C_10  and  N_11 
REMARK    5  A    between atoms: N_11  and  C_12 
REMARK    6  A    between atoms: C_22  and  S_23 
REMARK    7  A    between atoms: S_23  and  C_24 
REMARK    8  A    between atoms: C_24  and  C_25 
REMARK       I    between atoms: C_25  and  N_26 
REMARK    9  A    between atoms: N_26  and  C_27 
ROOT
HETATM    1  C   UNL     1      22.989  45.762  49.214  1.00  0.00     0.106 C 
HETATM    2  C   UNL     1      23.834  47.024  49.141  1.00  0.00     0.046 C 
HETATM    3  C   UNL     1      25.134  47.013  49.509  1.00  0.00     0.019 C 
HETATM    4  C   UNL     1      26.024  48.228  49.570  1.00  0.00     0.069 C 
HETATM    5  N   UNL     1      25.710  45.819  49.916  1.00  0.00    -0.353 N 
HETATM    6  C   UNL     1      25.007  44.666  50.233  1.00  0.00     0.088 C 
HETATM    7  C   UNL     1      23.674  44.618  49.979  1.00  0.00     0.069 C 
HETATM    8  C   UNL     1      22.848  43.507  50.333  1.00  0.00     0.099 C 
HETATM    9  N   UNL     1      22.154  42.624  50.628  1.00  0.00    -0.192 NA
HETATM   10  H   UNL     1      26.700  45.830  50.137  1.00  0.00     0.166 HD
ENDROOT
BRANCH   1  11
HETATM   11  C   UNL     1      22.618  45.239  47.817  1.00  0.00    -0.044 A 
HETATM   12  C   UNL     1      23.495  44.400  47.103  1.00  0.00     0.011 A 
HETATM   13  C   UNL     1      23.070  43.740  45.949  1.00  0.00     0.037 A 
HETATM   14  C   UNL     1      21.759  43.898  45.501  1.00  0.00     0.068 A 
HETATM   15  C   UNL     1      20.911  44.796  46.147  1.00  0.00     0.037 A 
HETATM   16  C   UNL     1      21.332  45.459  47.303  1.00  0.00     0.011 A 
BRANCH  14  17
HETATM   17  O   UNL     1      21.226  43.216  44.442  1.00  0.00    -0.352 OA
BRANCH  17  18
HETATM   18  C   UNL     1      21.426  41.799  44.503  1.00  0.00     0.171 C 
HETATM   19  C   UNL     1      20.374  41.206  45.423  1.00  0.00     0.034 C 
ENDBRANCH  17  18
ENDBRANCH  14  17
ENDBRANCH   1  11
BRANCH   6  20
HETATM   20  S   UNL     1      25.817  43.219  50.806  1.00  0.00    -0.102 SA
BRANCH  20  21
HETATM   21  C   UNL     1      27.499  43.778  51.205  1.00  0.00     0.184 C 
BRANCH  21  22
HETATM   22  C   UNL     1      27.715  43.915  52.716  1.00  0.00     0.231 C 
HETATM   23  N   UNL     1      29.046  43.936  53.096  1.00  0.00    -0.327 N 
HETATM   24  H   UNL     1      29.707  43.736  52.353  1.00  0.00     0.169 HD
HETATM   25  O   UNL     1      26.750  44.084  53.458  1.00  0.00    -0.272 OA
BRANCH  23  26
HETATM   26  C   UNL     1      29.597  44.107  54.378  1.00  0.00     0.034 A 
HETATM   27  C   UNL     1      30.518  43.239  54.958  1.00  0.00     0.030 A 
HETATM   28  C   UNL     1      31.014  43.489  56.244  1.00  0.00     0.009 A 
HETATM   29  C   UNL     1      30.584  44.604  56.972  1.00  0.00    -0.062 A 
HETATM   30  C   UNL     1      31.134  44.890  58.337  1.00  0.00     0.048 C 
HETATM   31  C   UNL     1      29.669  45.481  56.385  1.00  0.00     0.009 A 
HETATM   32  C   UNL     1      29.179  45.233  55.100  1.00  0.00     0.030 A 
ENDBRANCH  23  26
ENDBRANCH  21  22
ENDBRANCH  20  21
ENDBRANCH   6  20
BRANCH   2  33
HETATM   33  C   UNL     1      23.104  48.259  48.747  1.00  0.00     0.255 C 
HETATM   34  N   UNL     1      21.909  48.411  49.417  1.00  0.00    -0.323 N 
HETATM   35  H   UNL     1      21.700  47.731  50.136  1.00  0.00     0.169 HD
HETATM   36  O   UNL     1      23.609  49.011  47.925  1.00  0.00    -0.268 OA
BRANCH  34  37
HETATM   37  C   UNL     1      20.924  49.397  49.199  1.00  0.00     0.035 A 
HETATM   38  C   UNL     1      20.936  50.658  49.797  1.00  0.00     0.029 A 
HETATM   39  C   UNL     1      19.937  51.591  49.502  1.00  0.00     0.002 A 
HETATM   40  C   UNL     1      18.920  51.272  48.605  1.00  0.00     0.000 A 
HETATM   41  C   UNL     1      18.897  50.017  48.005  1.00  0.00     0.002 A 
HETATM   42  C   UNL     1      19.893  49.083  48.302  1.00  0.00     0.029 A 
ENDBRANCH  34  37
ENDBRANCH   2  33
TORSDOF 9
ENDMDL
MODEL 7
REMARK VINA RESULT:      -8.4      7.542     11.915
REMARK  9 active torsions:
REMARK  status: ('A' for Active; 'I' for Inactive)
REMARK    1  A    between atoms: C_2  and  O_3 
REMARK    2  A    between atoms: O_3  and  C_4 
REMARK    3  A    between atoms: C_7  and  C_8 
REMARK    4  A    between atoms: C_9  and  C_10 
REMARK       I    between atoms: C_10  and  N_11 
REMARK    5  A    between atoms: N_11  and  C_12 
REMARK    6  A    between atoms: C_22  and  S_23 
REMARK    7  A    between atoms: S_23  and  C_24 
REMARK    8  A    between atoms: C_24  and  C_25 
REMARK       I    between atoms: C_25  and  N_26 
REMARK    9  A    between atoms: N_26  and  C_27 
ROOT
HETATM    1  C   UNL     1      18.889  47.758  48.552  1.00  0.00     0.106 C 
HETATM    2  C   UNL     1      19.417  49.063  49.124  1.00  0.00     0.046 C 
HETATM    3  C   UNL     1      20.744  49.313  49.178  1.00  0.00     0.019 C 
HETATM    4  C   UNL     1      21.370  50.526  49.817  1.00  0.00     0.069 C 
HETATM    5  N   UNL     1      21.628  48.378  48.661  1.00  0.00    -0.353 N 
HETATM    6  C   UNL     1      21.295  47.075  48.318  1.00  0.00     0.088 C 
HETATM    7  C   UNL     1      19.987  46.709  48.322  1.00  0.00     0.069 C 
HETATM    8  C   UNL     1      19.547  45.375  48.055  1.00  0.00     0.099 C 
HETATM    9  N   UNL     1      19.167  44.296  47.860  1.00  0.00    -0.192 NA
HETATM   10  H   UNL     1      22.614  48.613  48.668  1.00  0.00     0.166 HD
ENDROOT
BRANCH   1  11
HETATM   11  C   UNL     1      18.156  47.973  47.218  1.00  0.00    -0.044 A 
HETATM   12  C   UNL     1      16.772  47.735  47.106  1.00  0.00     0.011 A 
HETATM   13  C   UNL     1      16.065  48.147  45.976  1.00  0.00     0.037 A 
HETATM   14  C   UNL     1      16.729  48.814  44.947  1.00  0.00     0.068 A 
HETATM   15  C   UNL     1      18.112  48.973  45.005  1.00  0.00     0.037 A 
HETATM   16  C   UNL     1      18.824  48.562  46.136  1.00  0.00     0.011 A 
BRANCH  14  17
HETATM   17  O   UNL     1      16.104  49.341  43.850  1.00  0.00    -0.352 OA
BRANCH  17  18
HETATM   18  C   UNL     1      14.994  50.189  44.166  1.00  0.00     0.171 C 
HETATM   19  C   UNL     1      15.523  51.581  44.461  1.00  0.00     0.034 C 
ENDBRANCH  17  18
ENDBRANCH  14  17
ENDBRANCH   1  11
BRANCH   6  20
HETATM   20  S   UNL     1      22.496  45.938  47.734  1.00  0.00    -0.102 SA
BRANCH  20  21
HETATM   21  C   UNL     1      22.963  44.984  49.208  1.00  0.00     0.184 C 
BRANCH  21  22
HETATM   22  C   UNL     1      24.125  45.632  49.967  1.00  0.00     0.231 C 
HETATM   23  N   UNL     1      24.220  45.245  51.292  1.00  0.00    -0.327 N 
HETATM   24  H   UNL     1      23.446  44.682  51.631  1.00  0.00     0.169 HD
HETATM   25  O   UNL     1      24.922  46.350  49.366  1.00  0.00    -0.272 OA
BRANCH  23  26
HETATM   26  C   UNL     1      25.188  45.595  52.249  1.00  0.00     0.034 A 
HETATM   27  C   UNL     1      25.513  46.905  52.592  1.00  0.00     0.030 A 
HETATM   28  C   UNL     1      26.494  47.160  53.559  1.00  0.00     0.009 A 
HETATM   29  C   UNL     1      27.173  46.108  54.184  1.00  0.00    -0.062 A 
HETATM   30  C   UNL     1      28.203  46.377  55.240  1.00  0.00     0.048 C 
HETATM   31  C   UNL     1      26.838  44.795  53.848  1.00  0.00     0.009 A 
HETATM   32  C   UNL     1      25.856  44.541  52.887  1.00  0.00     0.030 A 
ENDBRANCH  23  26
ENDBRANCH  21  22
ENDBRANCH  20  21
ENDBRANCH   6  20
BRANCH   2  33
HETATM   33  C   UNL     1      18.389  49.970  49.704  1.00  0.00     0.255 C 
HETATM   34  N   UNL     1      17.784  50.767  48.756  1.00  0.00    -0.323 N 
HETATM   35  H   UNL     1      18.039  50.601  47.792  1.00  0.00     0.169 HD
HETATM   36  O   UNL     1      18.159  49.917  50.904  1.00  0.00    -0.268 OA
BRANCH  34  37
HETATM   37  C   UNL     1      16.862  51.811  48.978  1.00  0.00     0.035 A 
HETATM   38  C   UNL     1      17.008  52.785  49.966  1.00  0.00     0.029 A 
HETATM   39  C   UNL     1      16.061  53.806  50.099  1.00  0.00     0.002 A 
HETATM   40  C   UNL     1      14.964  53.864  49.244  1.00  0.00     0.000 A 
HETATM   41  C   UNL     1      14.808  52.897  48.256  1.00  0.00     0.002 A 
HETATM   42  C   UNL     1      15.751  51.873  48.125  1.00  0.00     0.029 A 
ENDBRANCH  34  37
ENDBRANCH   2  33
TORSDOF 9
ENDMDL
MODEL 8
REMARK VINA RESULT:      -8.4      6.135     10.759
REMARK  9 active torsions:
REMARK  status: ('A' for Active; 'I' for Inactive)
REMARK    1  A    between atoms: C_2  and  O_3 
REMARK    2  A    between atoms: O_3  and  C_4 
REMARK    3  A    between atoms: C_7  and  C_8 
REMARK    4  A    between atoms: C_9  and  C_10 
REMARK       I    between atoms: C_10  and  N_11 
REMARK    5  A    between atoms: N_11  and  C_12 
REMARK    6  A    between atoms: C_22  and  S_23 
REMARK    7  A    between atoms: S_23  and  C_24 
REMARK    8  A    between atoms: C_24  and  C_25 
REMARK       I    between atoms: C_25  and  N_26 
REMARK    9  A    between atoms: N_26  and  C_27 
ROOT
HETATM    1  C   UNL     1      21.806  47.051  47.454  1.00  0.00     0.106 C 
HETATM    2  C   UNL     1      21.215  45.894  46.666  1.00  0.00     0.046 C 
HETATM    3  C   UNL     1      21.373  44.617  47.081  1.00  0.00     0.019 C 
HETATM    4  C   UNL     1      20.916  43.399  46.319  1.00  0.00     0.069 C 
HETATM    5  N   UNL     1      22.048  44.372  48.267  1.00  0.00    -0.353 N 
HETATM    6  C   UNL     1      22.812  45.304  48.953  1.00  0.00     0.088 C 
HETATM    7  C   UNL     1      22.784  46.601  48.550  1.00  0.00     0.069 C 
HETATM    8  C   UNL     1      23.588  47.623  49.144  1.00  0.00     0.099 C 
HETATM    9  N   UNL     1      24.245  48.466  49.597  1.00  0.00    -0.192 NA
HETATM   10  H   UNL     1      22.107  43.409  48.580  1.00  0.00     0.166 HD
ENDROOT
BRANCH   1  11
HETATM   11  C   UNL     1      20.716  47.908  48.118  1.00  0.00    -0.044 A 
HETATM   12  C   UNL     1      19.862  47.362  49.096  1.00  0.00     0.011 A 
HETATM   13  C   UNL     1      19.036  48.185  49.862  1.00  0.00     0.037 A 
HETATM   14  C   UNL     1      19.060  49.566  49.670  1.00  0.00     0.068 A 
HETATM   15  C   UNL     1      19.832  50.108  48.644  1.00  0.00     0.037 A 
HETATM   16  C   UNL     1      20.662  49.288  47.875  1.00  0.00     0.011 A 
BRANCH  14  17
HETATM   17  O   UNL     1      18.362  50.457  50.439  1.00  0.00    -0.352 OA
BRANCH  17  18
HETATM   18  C   UNL     1      18.473  51.815  49.999  1.00  0.00     0.171 C 
HETATM   19  C   UNL     1      17.075  52.387  49.851  1.00  0.00     0.034 C 
ENDBRANCH  17  18
ENDBRANCH  14  17
ENDBRANCH   1  11
BRANCH   6  20
HETATM   20  S   UNL     1      23.688  44.885  50.414  1.00  0.00    -0.102 SA
BRANCH  20  21
HETATM   21  C   UNL     1      25.273  44.231  49.812  1.00  0.00     0.184 C 
BRANCH  21  22
HETATM   22  C   UNL     1      26.089  43.581  50.934  1.00  0.00     0.231 C 
HETATM   23  N   UNL     1      27.074  44.397  51.462  1.00  0.00    -0.327 N 
HETATM   24  H   UNL     1      27.218  45.271  50.965  1.00  0.00     0.169 HD
HETATM   25  O   UNL     1      25.780  42.465  51.345  1.00  0.00    -0.272 OA
BRANCH  23  26
HETATM   26  C   UNL     1      27.956  44.145  52.527  1.00  0.00     0.034 A 
HETATM   27  C   UNL     1      27.848  44.726  53.788  1.00  0.00     0.030 A 
HETATM   28  C   UNL     1      28.774  44.416  54.792  1.00  0.00     0.009 A 
HETATM   29  C   UNL     1      29.829  43.530  54.542  1.00  0.00    -0.062 A 
HETATM   30  C   UNL     1      30.805  43.173  55.623  1.00  0.00     0.048 C 
HETATM   31  C   UNL     1      29.929  42.938  53.281  1.00  0.00     0.009 A 
HETATM   32  C   UNL     1      29.001  43.245  52.282  1.00  0.00     0.030 A 
ENDBRANCH  23  26
ENDBRANCH  21  22
ENDBRANCH  20  21
ENDBRANCH   6  20
BRANCH   2  33
HETATM   33  C   UNL     1      20.562  46.263  45.381  1.00  0.00     0.255 C 
HETATM   34  N   UNL     1      19.218  46.535  45.523  1.00  0.00    -0.323 N 
HETATM   35  H   UNL     1      18.850  46.532  46.465  1.00  0.00     0.169 HD
HETATM   36  O   UNL     1      21.240  46.316  44.363  1.00  0.00    -0.268 OA
BRANCH  34  37
HETATM   37  C   UNL     1      18.285  46.797  44.499  1.00  0.00     0.035 A 
HETATM   38  C   UNL     1      17.515  45.815  43.873  1.00  0.00     0.029 A 
HETATM   39  C   UNL     1      16.589  46.164  42.885  1.00  0.00     0.002 A 
HETATM   40  C   UNL     1      16.421  47.497  42.518  1.00  0.00     0.000 A 
HETATM   41  C   UNL     1      17.184  48.484  43.134  1.00  0.00     0.002 A 
HETATM   42  C   UNL     1      18.114  48.136  44.118  1.00  0.00     0.029 A 
ENDBRANCH  34  37
ENDBRANCH   2  33
TORSDOF 9
ENDMDL
MODEL 9
REMARK VINA RESULT:      -8.3      7.151     11.447
REMARK  9 active torsions:
REMARK  status: ('A' for Active; 'I' for Inactive)
REMARK    1  A    between atoms: C_2  and  O_3 
REMARK    2  A    between atoms: O_3  and  C_4 
REMARK    3  A    between atoms: C_7  and  C_8 
REMARK    4  A    between atoms: C_9  and  C_10 
REMARK       I    between atoms: C_10  and  N_11 
REMARK    5  A    between atoms: N_11  and  C_12 
REMARK    6  A    between atoms: C_22  and  S_23 
REMARK    7  A    between atoms: S_23  and  C_24 
REMARK    8  A    between atoms: C_24  and  C_25 
REMARK       I    between atoms: C_25  and  N_26 
REMARK    9  A    between atoms: N_26  and  C_27 
ROOT
HETATM    1  C   UNL     1      20.483  47.980  47.124  1.00  0.00     0.106 C 
HETATM    2  C   UNL     1      21.050  48.996  48.101  1.00  0.00     0.046 C 
HETATM    3  C   UNL     1      20.260  49.590  49.023  1.00  0.00     0.019 C 
HETATM    4  C   UNL     1      20.703  50.680  49.965  1.00  0.00     0.069 C 
HETATM    5  N   UNL     1      18.924  49.230  49.100  1.00  0.00    -0.353 N 
HETATM    6  C   UNL     1      18.244  48.493  48.140  1.00  0.00     0.088 C 
HETATM    7  C   UNL     1      18.947  47.930  47.124  1.00  0.00     0.069 C 
HETATM    8  C   UNL     1      18.334  47.215  46.049  1.00  0.00     0.099 C 
HETATM    9  N   UNL     1      17.857  46.646  45.157  1.00  0.00    -0.192 NA
HETATM   10  H   UNL     1      18.367  49.653  49.834  1.00  0.00     0.166 HD
ENDROOT
BRANCH   1  11
HETATM   11  C   UNL     1      21.001  46.560  47.407  1.00  0.00    -0.044 A 
HETATM   12  C   UNL     1      21.868  45.913  46.506  1.00  0.00     0.011 A 
HETATM   13  C   UNL     1      22.520  44.733  46.865  1.00  0.00     0.037 A 
HETATM   14  C   UNL     1      22.325  44.191  48.134  1.00  0.00     0.068 A 
HETATM   15  C   UNL     1      21.401  44.771  49.000  1.00  0.00     0.037 A 
HETATM   16  C   UNL     1      20.745  45.954  48.645  1.00  0.00     0.011 A 
BRANCH  14  17
HETATM   17  O   UNL     1      22.996  43.096  48.609  1.00  0.00    -0.352 OA
BRANCH  17  18
HETATM   18  C   UNL     1      24.419  43.181  48.468  1.00  0.00     0.171 C 
HETATM   19  C   UNL     1      24.957  44.071  49.575  1.00  0.00     0.034 C 
ENDBRANCH  17  18
ENDBRANCH  14  17
ENDBRANCH   1  11
BRANCH   6  20
HETATM   20  S   UNL     1      16.532  48.141  48.289  1.00  0.00    -0.102 SA
BRANCH  20  21
HETATM   21  C   UNL     1      15.713  49.662  47.727  1.00  0.00     0.184 C 
BRANCH  21  22
HETATM   22  C   UNL     1      15.884  49.883  46.220  1.00  0.00     0.231 C 
HETATM   23  N   UNL     1      16.849  50.820  45.893  1.00  0.00    -0.327 N 
HETATM   24  H   UNL     1      17.235  51.331  46.681  1.00  0.00     0.169 HD
HETATM   25  O   UNL     1      15.255  49.187  45.426  1.00  0.00    -0.272 OA
BRANCH  23  26
HETATM   26  C   UNL     1      17.300  51.219  44.623  1.00  0.00     0.034 A 
HETATM   27  C   UNL     1      16.836  52.343  43.945  1.00  0.00     0.030 A 
HETATM   28  C   UNL     1      17.342  52.664  42.679  1.00  0.00     0.009 A 
HETATM   29  C   UNL     1      18.310  51.857  42.070  1.00  0.00    -0.062 A 
HETATM   30  C   UNL     1      18.876  52.214  40.728  1.00  0.00     0.048 C 
HETATM   31  C   UNL     1      18.784  50.737  42.756  1.00  0.00     0.009 A 
HETATM   32  C   UNL     1      18.281  50.420  44.021  1.00  0.00     0.030 A 
ENDBRANCH  23  26
ENDBRANCH  21  22
ENDBRANCH  20  21
ENDBRANCH   6  20
BRANCH   2  33
HETATM   33  C   UNL     1      22.480  49.352  47.895  1.00  0.00     0.255 C 
HETATM   34  N   UNL     1      23.334  48.625  48.696  1.00  0.00    -0.323 N 
HETATM   35  H   UNL     1      22.918  47.897  49.262  1.00  0.00     0.169 HD
HETATM   36  O   UNL     1      22.767  50.198  47.058  1.00  0.00    -0.268 OA
BRANCH  34  37
HETATM   37  C   UNL     1      24.727  48.794  48.838  1.00  0.00     0.035 A 
HETATM   38  C   UNL     1      25.445  49.855  48.286  1.00  0.00     0.029 A 
HETATM   39  C   UNL     1      26.823  49.965  48.501  1.00  0.00     0.002 A 
HETATM   40  C   UNL     1      27.493  49.018  49.270  1.00  0.00     0.000 A 
HETATM   41  C   UNL     1      26.786  47.954  49.824  1.00  0.00     0.002 A 
HETATM   42  C   UNL     1      25.410  47.841  49.606  1.00  0.00     0.029 A 
ENDBRANCH  34  37
ENDBRANCH   2  33
TORSDOF 9
ENDMDL
MODEL 10
REMARK VINA RESULT:      -8.1      3.236      6.080
REMARK  9 active torsions:
REMARK  status: ('A' for Active; 'I' for Inactive)
REMARK    1  A    between atoms: C_2  and  O_3 
REMARK    2  A    between atoms: O_3  and  C_4 
REMARK    3  A    between atoms: C_7  and  C_8 
REMARK    4  A    between atoms: C_9  and  C_10 
REMARK       I    between atoms: C_10  and  N_11 
REMARK    5  A    between atoms: N_11  and  C_12 
REMARK    6  A    between atoms: C_22  and  S_23 
REMARK    7  A    between atoms: S_23  and  C_24 
REMARK    8  A    between atoms: C_24  and  C_25 
REMARK       I    between atoms: C_25  and  N_26 
REMARK    9  A    between atoms: N_26  and  C_27 
ROOT
HETATM    1  C   UNL     1      25.943  41.808  47.970  1.00  0.00     0.106 C 
HETATM    2  C   UNL     1      25.515  42.518  49.243  1.00  0.00     0.046 C 
HETATM    3  C   UNL     1      24.209  42.637  49.570  1.00  0.00     0.019 C 
HETATM    4  C   UNL     1      23.681  43.408  50.752  1.00  0.00     0.069 C 
HETATM    5  N   UNL     1      23.253  42.061  48.746  1.00  0.00    -0.353 N 
HETATM    6  C   UNL     1      23.491  41.586  47.464  1.00  0.00     0.088 C 
HETATM    7  C   UNL     1      24.772  41.515  47.018  1.00  0.00     0.069 C 
HETATM    8  C   UNL     1      25.118  41.108  45.692  1.00  0.00     0.099 C 
HETATM    9  N   UNL     1      25.421  40.800  44.615  1.00  0.00    -0.192 NA
HETATM   10  H   UNL     1      22.285  42.121  49.042  1.00  0.00     0.166 HD
ENDROOT
BRANCH   1  11
HETATM   11  C   UNL     1      26.654  40.478  48.266  1.00  0.00    -0.044 A 
HETATM   12  C   UNL     1      27.914  40.191  47.706  1.00  0.00     0.011 A 
HETATM   13  C   UNL     1      28.663  39.101  48.151  1.00  0.00     0.037 A 
HETATM   14  C   UNL     1      28.168  38.290  49.171  1.00  0.00     0.068 A 
HETATM   15  C   UNL     1      26.885  38.509  49.669  1.00  0.00     0.037 A 
HETATM   16  C   UNL     1      26.132  39.600  49.226  1.00  0.00     0.011 A 
BRANCH  14  17
HETATM   17  O   UNL     1      28.871  37.262  49.740  1.00  0.00    -0.352 OA
BRANCH  17  18
HETATM   18  C   UNL     1      29.859  37.688  50.685  1.00  0.00     0.171 C 
HETATM   19  C   UNL     1      29.973  36.630  51.768  1.00  0.00     0.034 C 
ENDBRANCH  17  18
ENDBRANCH  14  17
ENDBRANCH   1  11
BRANCH   6  20
HETATM   20  S   UNL     1      22.204  40.934  46.468  1.00  0.00    -0.102 SA
BRANCH  20  21
HETATM   21  C   UNL     1      22.049  39.208  47.012  1.00  0.00     0.184 C 
BRANCH  21  22
HETATM   22  C   UNL     1      23.045  38.289  46.296  1.00  0.00     0.231 C 
HETATM   23  N   UNL     1      24.152  37.955  47.057  1.00  0.00    -0.327 N 
HETATM   24  H   UNL     1      24.231  38.451  47.940  1.00  0.00     0.169 HD
HETATM   25  O   UNL     1      22.776  37.848  45.181  1.00  0.00    -0.272 OA
BRANCH  23  26
HETATM   26  C   UNL     1      25.218  37.096  46.738  1.00  0.00     0.034 A 
HETATM   27  C   UNL     1      25.390  35.826  47.282  1.00  0.00     0.030 A 
HETATM   28  C   UNL     1      26.486  35.038  46.906  1.00  0.00     0.009 A 
HETATM   29  C   UNL     1      27.431  35.517  45.991  1.00  0.00    -0.062 A 
HETATM   30  C   UNL     1      28.589  34.665  45.564  1.00  0.00     0.048 C 
HETATM   31  C   UNL     1      27.250  36.787  45.438  1.00  0.00     0.009 A 
HETATM   32  C   UNL     1      26.154  37.569  45.810  1.00  0.00     0.030 A 
ENDBRANCH  23  26
ENDBRANCH  21  22
ENDBRANCH  20  21
ENDBRANCH   6  20
BRANCH   2  33
HETATM   33  C   UNL     1      26.615  43.148  50.023  1.00  0.00     0.255 C 
HETATM   34  N   UNL     1      26.894  42.476  51.194  1.00  0.00    -0.323 N 
HETATM   35  H   UNL     1      26.393  41.612  51.353  1.00  0.00     0.169 HD
HETATM   36  O   UNL     1      27.169  44.143  49.573  1.00  0.00    -0.268 OA
BRANCH  34  37
HETATM   37  C   UNL     1      27.786  42.866  52.213  1.00  0.00     0.035 A 
HETATM   38  C   UNL     1      27.489  43.819  53.190  1.00  0.00     0.029 A 
HETATM   39  C   UNL     1      28.421  44.126  54.186  1.00  0.00     0.002 A 
HETATM   40  C   UNL     1      29.656  43.483  54.217  1.00  0.00     0.000 A 
HETATM   41  C   UNL     1      29.963  42.533  53.248  1.00  0.00     0.002 A 
HETATM   42  C   UNL     1      29.034  42.228  52.249  1.00  0.00     0.029 A 
ENDBRANCH  34  37
ENDBRANCH   2  33
TORSDOF 9
ENDMDL
