MODEL 1
REMARK VINA RESULT:      -8.5      0.000      0.000
REMARK  3 active torsions:
REMARK  status: ('A' for Active; 'I' for Inactive)
REMARK    1  A    between atoms: C_11  and  N_12 
REMARK       I    between atoms: N_12  and  C_13 
REMARK    2  A    between atoms: C_13  and  C_14 
REMARK    3  A    between atoms: C_18  and  C_19 
ROOT
HETATM    1  N   UNL     1      27.468  44.341  50.690  1.00  0.00    -0.351 N 
HETATM    2  C   UNL     1      27.827  43.039  51.001  1.00  0.00     0.272 C 
HETATM    3  O   UNL     1      27.630  42.086  50.257  1.00  0.00    -0.266 OA
HETATM    4  H   UNL     1      27.506  44.929  51.525  1.00  0.00     0.163 HD
ENDROOT
BRANCH   1   5
HETATM    5  C   UNL     1      26.595  44.680  49.586  1.00  0.00     0.089 C 
HETATM    6  C   UNL     1      26.193  46.160  49.511  1.00  0.00     0.063 C 
HETATM    7  C   UNL     1      25.211  46.622  50.592  1.00  0.00     0.121 C 
HETATM    8  N   UNL     1      24.041  45.660  50.657  1.00  0.00    -0.059 N 
HETATM    9  C   UNL     1      25.835  46.796  51.981  1.00  0.00     0.046 C 
HETATM   10  C   UNL     1      24.616  47.986  50.183  1.00  0.00     0.046 C 
HETATM   11  C   UNL     1      24.274  44.165  50.627  1.00  0.00     0.121 C 
HETATM   12  H   UNL     1      23.426  45.888  49.863  1.00  0.00     0.279 HD
HETATM   13  H   UNL     1      23.475  45.892  51.486  1.00  0.00     0.279 HD
HETATM   14  C   UNL     1      24.604  43.654  52.034  1.00  0.00     0.046 C 
HETATM   15  C   UNL     1      22.926  43.534  50.215  1.00  0.00     0.046 C 
HETATM   16  C   UNL     1      25.335  43.810  49.571  1.00  0.00     0.063 C 
ENDBRANCH   1   5
BRANCH   2  17
HETATM   17  C   UNL     1      28.476  42.931  52.314  1.00  0.00     0.146 A 
HETATM   18  N   UNL     1      28.808  41.730  52.833  1.00  0.00    -0.169 NA
HETATM   19  N   UNL     1      29.359  42.043  54.024  1.00  0.00    -0.277 N 
HETATM   20  H   UNL     1      29.669  41.288  54.625  1.00  0.00     0.189 HD
HETATM   21  C   UNL     1      29.418  43.388  54.288  1.00  0.00     0.063 A 
HETATM   22  C   UNL     1      28.835  43.984  53.187  1.00  0.00     0.071 A 
BRANCH  21  23
HETATM   23  C   UNL     1      29.978  43.955  55.517  1.00  0.00    -0.008 A 
HETATM   24  C   UNL     1      29.553  45.198  56.009  1.00  0.00     0.014 A 
HETATM   25  C   UNL     1      30.099  45.725  57.184  1.00  0.00     0.001 A 
HETATM   26  C   UNL     1      31.072  45.016  57.882  1.00  0.00     0.000 A 
HETATM   27  C   UNL     1      31.500  43.779  57.409  1.00  0.00     0.001 A 
HETATM   28  C   UNL     1      30.956  43.252  56.235  1.00  0.00     0.014 A 
ENDBRANCH  21  23
ENDBRANCH   2  17
TORSDOF 3
ENDMDL
MODEL 2
REMARK VINA RESULT:      -8.4      4.892      7.677
REMARK  3 active torsions:
REMARK  status: ('A' for Active; 'I' for Inactive)
REMARK    1  A    between atoms: C_11  and  N_12 
REMARK       I    between atoms: N_12  and  C_13 
REMARK    2  A    between atoms: C_13  and  C_14 
REMARK    3  A    between atoms: C_18  and  C_19 
ROOT
HETATM    1  N   UNL     1      21.738  49.186  48.278  1.00  0.00    -0.351 N 
HETATM    2  C   UNL     1      23.064  49.494  48.011  1.00  0.00     0.272 C 
HETATM    3  O   UNL     1      23.415  50.274  47.135  1.00  0.00    -0.266 OA
HETATM    4  H   UNL     1      21.679  48.357  48.873  1.00  0.00     0.163 HD
ENDROOT
BRANCH   1   5
HETATM    5  C   UNL     1      20.649  49.541  47.393  1.00  0.00     0.089 C 
HETATM    6  C   UNL     1      20.105  50.965  47.578  1.00  0.00     0.063 C 
HETATM    7  C   UNL     1      19.300  51.190  48.862  1.00  0.00     0.121 C 
HETATM    8  N   UNL     1      18.256  50.099  49.003  1.00  0.00    -0.059 N 
HETATM    9  C   UNL     1      20.150  51.281  50.134  1.00  0.00     0.046 C 
HETATM   10  C   UNL     1      18.515  52.513  48.739  1.00  0.00     0.046 C 
HETATM   11  C   UNL     1      18.618  48.652  48.742  1.00  0.00     0.121 C 
HETATM   12  H   UNL     1      17.487  50.341  48.362  1.00  0.00     0.279 HD
HETATM   13  H   UNL     1      17.833  50.172  49.940  1.00  0.00     0.279 HD
HETATM   14  C   UNL     1      19.248  48.032  49.994  1.00  0.00     0.046 C 
HETATM   15  C   UNL     1      17.282  47.920  48.490  1.00  0.00     0.046 C 
HETATM   16  C   UNL     1      19.495  48.539  47.483  1.00  0.00     0.063 C 
ENDBRANCH   1   5
BRANCH   2  17
HETATM   17  C   UNL     1      23.996  48.788  48.899  1.00  0.00     0.146 A 
HETATM   18  N   UNL     1      25.321  49.047  48.871  1.00  0.00    -0.169 NA
HETATM   19  N   UNL     1      25.825  48.212  49.801  1.00  0.00    -0.277 N 
HETATM   20  H   UNL     1      26.829  48.201  49.947  1.00  0.00     0.189 HD
HETATM   21  C   UNL     1      24.888  47.442  50.444  1.00  0.00     0.063 A 
HETATM   22  C   UNL     1      23.689  47.797  49.860  1.00  0.00     0.071 A 
BRANCH  21  23
HETATM   23  C   UNL     1      25.210  46.470  51.491  1.00  0.00    -0.008 A 
HETATM   24  C   UNL     1      24.926  45.106  51.335  1.00  0.00     0.014 A 
HETATM   25  C   UNL     1      25.238  44.191  52.345  1.00  0.00     0.001 A 
HETATM   26  C   UNL     1      25.841  44.626  53.521  1.00  0.00     0.000 A 
HETATM   27  C   UNL     1      26.134  45.977  53.689  1.00  0.00     0.001 A 
HETATM   28  C   UNL     1      25.822  46.892  52.681  1.00  0.00     0.014 A 
ENDBRANCH  21  23
ENDBRANCH   2  17
TORSDOF 3
ENDMDL
MODEL 3
REMARK VINA RESULT:      -8.4      4.971      7.787
REMARK  3 active torsions:
REMARK  status: ('A' for Active; 'I' for Inactive)
REMARK    1  A    between atoms: C_11  and  N_12 
REMARK       I    between atoms: N_12  and  C_13 
REMARK    2  A    between atoms: C_13  and  C_14 
REMARK    3  A    between atoms: C_18  and  C_19 
ROOT
HETATM    1  N   UNL     1      21.708  49.810  48.606  1.00  0.00    -0.351 N 
HETATM    2  C   UNL     1      22.945  49.347  48.185  1.00  0.00     0.272 C 
HETATM    3  O   UNL     1      23.575  49.844  47.260  1.00  0.00    -0.266 OA
HETATM    4  H   UNL     1      21.262  49.125  49.220  1.00  0.00     0.163 HD
ENDROOT
BRANCH   1   5
HETATM    5  C   UNL     1      20.912  50.749  47.844  1.00  0.00     0.089 C 
HETATM    6  C   UNL     1      20.059  51.707  48.687  1.00  0.00     0.063 C 
HETATM    7  C   UNL     1      18.857  51.063  49.385  1.00  0.00     0.121 C 
HETATM    8  N   UNL     1      18.068  50.244  48.382  1.00  0.00    -0.059 N 
HETATM    9  C   UNL     1      19.217  50.208  50.605  1.00  0.00     0.046 C 
HETATM   10  C   UNL     1      17.902  52.174  49.870  1.00  0.00     0.046 C 
HETATM   11  C   UNL     1      18.781  49.334  47.405  1.00  0.00     0.121 C 
HETATM   12  H   UNL     1      17.514  50.911  47.827  1.00  0.00     0.279 HD
HETATM   13  H   UNL     1      17.362  49.696  48.894  1.00  0.00     0.279 HD
HETATM   14  C   UNL     1      19.088  47.986  48.068  1.00  0.00     0.046 C 
HETATM   15  C   UNL     1      17.775  49.064  46.265  1.00  0.00     0.046 C 
HETATM   16  C   UNL     1      20.019  50.037  46.823  1.00  0.00     0.063 C 
ENDBRANCH   1   5
BRANCH   2  17
HETATM   17  C   UNL     1      23.418  48.204  48.976  1.00  0.00     0.146 A 
HETATM   18  N   UNL     1      22.860  46.982  48.842  1.00  0.00    -0.169 NA
HETATM   19  N   UNL     1      23.546  46.224  49.722  1.00  0.00    -0.277 N 
HETATM   20  H   UNL     1      23.284  45.250  49.826  1.00  0.00     0.189 HD
HETATM   21  C   UNL     1      24.533  46.892  50.401  1.00  0.00     0.063 A 
HETATM   22  C   UNL     1      24.458  48.190  49.935  1.00  0.00     0.071 A 
BRANCH  21  23
HETATM   23  C   UNL     1      25.403  46.268  51.400  1.00  0.00    -0.008 A 
HETATM   24  C   UNL     1      26.020  45.031  51.162  1.00  0.00     0.014 A 
HETATM   25  C   UNL     1      26.846  44.448  52.127  1.00  0.00     0.001 A 
HETATM   26  C   UNL     1      27.069  45.094  53.339  1.00  0.00     0.000 A 
HETATM   27  C   UNL     1      26.468  46.324  53.589  1.00  0.00     0.001 A 
HETATM   28  C   UNL     1      25.642  46.908  52.625  1.00  0.00     0.014 A 
ENDBRANCH  21  23
ENDBRANCH   2  17
TORSDOF 3
ENDMDL
MODEL 4
REMARK VINA RESULT:      -8.2      2.410      3.383
REMARK  3 active torsions:
REMARK  status: ('A' for Active; 'I' for Inactive)
REMARK    1  A    between atoms: C_11  and  N_12 
REMARK       I    between atoms: N_12  and  C_13 
REMARK    2  A    between atoms: C_13  and  C_14 
REMARK    3  A    between atoms: C_18  and  C_19 
ROOT
HETATM    1  N   UNL     1      26.468  45.578  51.735  1.00  0.00    -0.351 N 
HETATM    2  C   UNL     1      26.173  46.641  52.576  1.00  0.00     0.272 C 
HETATM    3  O   UNL     1      25.350  47.507  52.309  1.00  0.00    -0.266 OA
HETATM    4  H   UNL     1      27.330  45.117  52.035  1.00  0.00     0.163 HD
ENDROOT
BRANCH   1   5
HETATM    5  C   UNL     1      26.038  45.518  50.354  1.00  0.00     0.089 C 
HETATM    6  C   UNL     1      24.530  45.314  50.156  1.00  0.00     0.063 C 
HETATM    7  C   UNL     1      24.012  43.915  50.508  1.00  0.00     0.121 C 
HETATM    8  N   UNL     1      24.877  42.870  49.833  1.00  0.00    -0.059 N 
HETATM    9  C   UNL     1      23.917  43.637  52.012  1.00  0.00     0.046 C 
HETATM   10  C   UNL     1      22.597  43.739  49.918  1.00  0.00     0.046 C 
HETATM   11  C   UNL     1      26.386  42.996  49.847  1.00  0.00     0.121 C 
HETATM   12  H   UNL     1      24.585  42.837  48.846  1.00  0.00     0.279 HD
HETATM   13  H   UNL     1      24.617  41.944  50.202  1.00  0.00     0.279 HD
HETATM   14  C   UNL     1      26.950  42.430  51.156  1.00  0.00     0.046 C 
HETATM   15  C   UNL     1      26.898  42.098  48.701  1.00  0.00     0.046 C 
HETATM   16  C   UNL     1      26.804  44.450  49.568  1.00  0.00     0.063 C 
ENDBRANCH   1   5
BRANCH   2  17
HETATM   17  C   UNL     1      26.950  46.607  53.822  1.00  0.00     0.146 A 
HETATM   18  N   UNL     1      26.741  47.511  54.801  1.00  0.00    -0.169 NA
HETATM   19  N   UNL     1      27.632  47.160  55.750  1.00  0.00    -0.277 N 
HETATM   20  H   UNL     1      27.686  47.723  56.593  1.00  0.00     0.189 HD
HETATM   21  C   UNL     1      28.391  46.061  55.440  1.00  0.00     0.063 A 
HETATM   22  C   UNL     1      27.968  45.692  54.178  1.00  0.00     0.071 A 
BRANCH  21  23
HETATM   23  C   UNL     1      29.417  45.502  56.322  1.00  0.00    -0.008 A 
HETATM   24  C   UNL     1      29.569  45.949  57.643  1.00  0.00     0.014 A 
HETATM   25  C   UNL     1      30.554  45.405  58.473  1.00  0.00     0.001 A 
HETATM   26  C   UNL     1      31.398  44.407  57.995  1.00  0.00     0.000 A 
HETATM   27  C   UNL     1      31.257  43.949  56.688  1.00  0.00     0.001 A 
HETATM   28  C   UNL     1      30.272  44.492  55.858  1.00  0.00     0.014 A 
ENDBRANCH  21  23
ENDBRANCH   2  17
TORSDOF 3
ENDMDL
MODEL 5
REMARK VINA RESULT:      -8.0     15.301     17.257
REMARK  3 active torsions:
REMARK  status: ('A' for Active; 'I' for Inactive)
REMARK    1  A    between atoms: C_11  and  N_12 
REMARK       I    between atoms: N_12  and  C_13 
REMARK    2  A    between atoms: C_13  and  C_14 
REMARK    3  A    between atoms: C_18  and  C_19 
ROOT
HETATM    1  N   UNL     1      37.630  46.553  64.103  1.00  0.00    -0.351 N 
HETATM    2  C   UNL     1      37.045  45.318  63.870  1.00  0.00     0.272 C 
HETATM    3  O   UNL     1      35.836  45.124  63.907  1.00  0.00    -0.266 OA
HETATM    4  H   UNL     1      38.636  46.446  64.253  1.00  0.00     0.163 HD
ENDROOT
BRANCH   1   5
HETATM    5  C   UNL     1      36.913  47.676  64.669  1.00  0.00     0.089 C 
HETATM    6  C   UNL     1      37.688  49.001  64.672  1.00  0.00     0.063 C 
HETATM    7  C   UNL     1      38.844  49.076  65.674  1.00  0.00     0.121 C 
HETATM    8  N   UNL     1      38.359  48.633  67.040  1.00  0.00    -0.059 N 
HETATM    9  C   UNL     1      40.087  48.276  65.266  1.00  0.00     0.046 C 
HETATM   10  C   UNL     1      39.278  50.548  65.835  1.00  0.00     0.046 C 
HETATM   11  C   UNL     1      37.489  47.402  67.184  1.00  0.00     0.121 C 
HETATM   12  H   UNL     1      37.834  49.424  67.438  1.00  0.00     0.279 HD
HETATM   13  H   UNL     1      39.176  48.537  67.661  1.00  0.00     0.279 HD
HETATM   14  C   UNL     1      38.361  46.142  67.230  1.00  0.00     0.046 C 
HETATM   15  C   UNL     1      36.797  47.530  68.559  1.00  0.00     0.046 C 
HETATM   16  C   UNL     1      36.413  47.375  66.084  1.00  0.00     0.063 C 
ENDBRANCH   1   5
BRANCH   2  17
HETATM   17  C   UNL     1      38.031  44.274  63.565  1.00  0.00     0.146 A 
HETATM   18  N   UNL     1      39.027  44.489  62.681  1.00  0.00    -0.169 NA
HETATM   19  N   UNL     1      39.698  43.319  62.670  1.00  0.00    -0.277 N 
HETATM   20  H   UNL     1      40.492  43.224  62.046  1.00  0.00     0.189 HD
HETATM   21  C   UNL     1      39.195  42.367  63.520  1.00  0.00     0.063 A 
HETATM   22  C   UNL     1      38.099  42.968  64.106  1.00  0.00     0.071 A 
BRANCH  21  23
HETATM   23  C   UNL     1      39.766  41.027  63.674  1.00  0.00    -0.008 A 
HETATM   24  C   UNL     1      39.399  39.974  62.823  1.00  0.00     0.014 A 
HETATM   25  C   UNL     1      39.952  38.700  62.984  1.00  0.00     0.001 A 
HETATM   26  C   UNL     1      40.880  38.463  63.993  1.00  0.00     0.000 A 
HETATM   27  C   UNL     1      41.258  39.499  64.843  1.00  0.00     0.001 A 
HETATM   28  C   UNL     1      40.706  40.772  64.683  1.00  0.00     0.014 A 
ENDBRANCH  21  23
ENDBRANCH   2  17
TORSDOF 3
ENDMDL
MODEL 6
REMARK VINA RESULT:      -8.0      2.370      3.428
REMARK  3 active torsions:
REMARK  status: ('A' for Active; 'I' for Inactive)
REMARK    1  A    between atoms: C_11  and  N_12 
REMARK       I    between atoms: N_12  and  C_13 
REMARK    2  A    between atoms: C_13  and  C_14 
REMARK    3  A    between atoms: C_18  and  C_19 
ROOT
HETATM    1  N   UNL     1      26.868  43.553  50.715  1.00  0.00    -0.351 N 
HETATM    2  C   UNL     1      26.668  44.819  51.244  1.00  0.00     0.272 C 
HETATM    3  O   UNL     1      26.085  45.717  50.649  1.00  0.00    -0.266 OA
HETATM    4  H   UNL     1      27.564  43.045  51.265  1.00  0.00     0.163 HD
ENDROOT
BRANCH   1   5
HETATM    5  C   UNL     1      26.649  43.234  49.320  1.00  0.00     0.089 C 
HETATM    6  C   UNL     1      25.202  43.405  48.838  1.00  0.00     0.063 C 
HETATM    7  C   UNL     1      24.214  42.357  49.362  1.00  0.00     0.121 C 
HETATM    8  N   UNL     1      24.786  40.970  49.142  1.00  0.00    -0.059 N 
HETATM    9  C   UNL     1      23.815  42.542  50.829  1.00  0.00     0.046 C 
HETATM   10  C   UNL     1      22.921  42.420  48.523  1.00  0.00     0.046 C 
HETATM   11  C   UNL     1      26.235  40.676  49.467  1.00  0.00     0.121 C 
HETATM   12  H   UNL     1      24.646  40.746  48.147  1.00  0.00     0.279 HD
HETATM   13  H   UNL     1      24.189  40.290  49.637  1.00  0.00     0.279 HD
HETATM   14  C   UNL     1      26.387  40.362  50.960  1.00  0.00     0.046 C 
HETATM   15  C   UNL     1      26.592  39.391  48.690  1.00  0.00     0.046 C 
HETATM   16  C   UNL     1      27.136  41.823  48.978  1.00  0.00     0.063 C 
ENDBRANCH   1   5
BRANCH   2  17
HETATM   17  C   UNL     1      27.223  44.961  52.596  1.00  0.00     0.146 A 
HETATM   18  N   UNL     1      26.607  45.714  53.531  1.00  0.00    -0.169 NA
HETATM   19  N   UNL     1      27.411  45.602  54.607  1.00  0.00    -0.277 N 
HETATM   20  H   UNL     1      27.166  46.114  55.448  1.00  0.00     0.189 HD
HETATM   21  C   UNL     1      28.505  44.795  54.419  1.00  0.00     0.063 A 
HETATM   22  C   UNL     1      28.406  44.376  53.108  1.00  0.00     0.071 A 
BRANCH  21  23
HETATM   23  C   UNL     1      29.508  44.528  55.451  1.00  0.00    -0.008 A 
HETATM   24  C   UNL     1      30.325  43.388  55.400  1.00  0.00     0.014 A 
HETATM   25  C   UNL     1      31.278  43.147  56.395  1.00  0.00     0.001 A 
HETATM   26  C   UNL     1      31.429  44.042  57.450  1.00  0.00     0.000 A 
HETATM   27  C   UNL     1      30.630  45.180  57.512  1.00  0.00     0.001 A 
HETATM   28  C   UNL     1      29.677  45.421  56.519  1.00  0.00     0.014 A 
ENDBRANCH  21  23
ENDBRANCH   2  17
TORSDOF 3
ENDMDL
MODEL 7
REMARK VINA RESULT:      -7.9      3.801      5.443
REMARK  3 active torsions:
REMARK  status: ('A' for Active; 'I' for Inactive)
REMARK    1  A    between atoms: C_11  and  N_12 
REMARK       I    between atoms: N_12  and  C_13 
REMARK    2  A    between atoms: C_13  and  C_14 
REMARK    3  A    between atoms: C_18  and  C_19 
ROOT
HETATM    1  N   UNL     1      26.778  40.190  50.010  1.00  0.00    -0.351 N 
HETATM    2  C   UNL     1      26.431  41.287  50.784  1.00  0.00     0.272 C 
HETATM    3  O   UNL     1      25.340  41.839  50.725  1.00  0.00    -0.266 OA
HETATM    4  H   UNL     1      27.788  40.037  50.044  1.00  0.00     0.163 HD
ENDROOT
BRANCH   1   5
HETATM    5  C   UNL     1      26.000  39.744  48.874  1.00  0.00     0.089 C 
HETATM    6  C   UNL     1      26.135  38.250  48.545  1.00  0.00     0.063 C 
HETATM    7  C   UNL     1      27.482  37.836  47.943  1.00  0.00     0.121 C 
HETATM    8  N   UNL     1      27.828  38.762  46.794  1.00  0.00    -0.059 N 
HETATM    9  C   UNL     1      28.635  37.784  48.951  1.00  0.00     0.046 C 
HETATM   10  C   UNL     1      27.346  36.428  47.327  1.00  0.00     0.046 C 
HETATM   11  C   UNL     1      27.641  40.258  46.930  1.00  0.00     0.121 C 
HETATM   12  H   UNL     1      27.263  38.458  45.988  1.00  0.00     0.279 HD
HETATM   13  H   UNL     1      28.799  38.573  46.505  1.00  0.00     0.279 HD
HETATM   14  C   UNL     1      28.857  40.880  47.627  1.00  0.00     0.046 C 
HETATM   15  C   UNL     1      27.605  40.814  45.490  1.00  0.00     0.046 C 
HETATM   16  C   UNL     1      26.302  40.570  47.620  1.00  0.00     0.063 C 
ENDBRANCH   1   5
BRANCH   2  17
HETATM   17  C   UNL     1      27.512  41.706  51.686  1.00  0.00     0.146 A 
HETATM   18  N   UNL     1      28.703  41.072  51.692  1.00  0.00    -0.169 NA
HETATM   19  N   UNL     1      29.405  41.728  52.639  1.00  0.00    -0.277 N 
HETATM   20  H   UNL     1      30.344  41.409  52.850  1.00  0.00     0.189 HD
HETATM   21  C   UNL     1      28.731  42.768  53.228  1.00  0.00     0.063 A 
HETATM   22  C   UNL     1      27.488  42.762  52.627  1.00  0.00     0.071 A 
BRANCH  21  23
HETATM   23  C   UNL     1      29.299  43.618  54.276  1.00  0.00    -0.008 A 
HETATM   24  C   UNL     1      28.685  44.820  54.657  1.00  0.00     0.014 A 
HETATM   25  C   UNL     1      29.241  45.621  55.659  1.00  0.00     0.001 A 
HETATM   26  C   UNL     1      30.415  45.230  56.295  1.00  0.00     0.000 A 
HETATM   27  C   UNL     1      31.035  44.037  55.932  1.00  0.00     0.001 A 
HETATM   28  C   UNL     1      30.480  43.237  54.931  1.00  0.00     0.014 A 
ENDBRANCH  21  23
ENDBRANCH   2  17
TORSDOF 3
ENDMDL
MODEL 8
REMARK VINA RESULT:      -7.9     12.007     14.423
REMARK  3 active torsions:
REMARK  status: ('A' for Active; 'I' for Inactive)
REMARK    1  A    between atoms: C_11  and  N_12 
REMARK       I    between atoms: N_12  and  C_13 
REMARK    2  A    between atoms: C_13  and  C_14 
REMARK    3  A    between atoms: C_18  and  C_19 
ROOT
HETATM    1  N   UNL     1      29.442  51.598  40.792  1.00  0.00    -0.351 N 
HETATM    2  C   UNL     1      28.078  51.482  41.016  1.00  0.00     0.272 C 
HETATM    3  O   UNL     1      27.376  52.402  41.418  1.00  0.00    -0.266 OA
HETATM    4  H   UNL     1      29.864  50.674  40.689  1.00  0.00     0.163 HD
ENDROOT
BRANCH   1   5
HETATM    5  C   UNL     1      30.227  52.724  41.254  1.00  0.00     0.089 C 
HETATM    6  C   UNL     1      31.368  53.142  40.317  1.00  0.00     0.063 C 
HETATM    7  C   UNL     1      32.555  52.175  40.267  1.00  0.00     0.121 C 
HETATM    8  N   UNL     1      32.997  51.842  41.679  1.00  0.00    -0.059 N 
HETATM    9  C   UNL     1      32.291  50.890  39.475  1.00  0.00     0.046 C 
HETATM   10  C   UNL     1      33.755  52.884  39.604  1.00  0.00     0.046 C 
HETATM   11  C   UNL     1      31.974  51.517  42.746  1.00  0.00     0.121 C 
HETATM   12  H   UNL     1      33.542  52.649  42.016  1.00  0.00     0.279 HD
HETATM   13  H   UNL     1      33.685  51.077  41.633  1.00  0.00     0.279 HD
HETATM   14  C   UNL     1      31.575  50.039  42.661  1.00  0.00     0.046 C 
HETATM   15  C   UNL     1      32.691  51.721  44.098  1.00  0.00     0.046 C 
HETATM   16  C   UNL     1      30.784  52.488  42.661  1.00  0.00     0.063 C 
ENDBRANCH   1   5
BRANCH   2  17
HETATM   17  C   UNL     1      27.568  50.139  40.708  1.00  0.00     0.146 A 
HETATM   18  N   UNL     1      26.559  49.958  39.831  1.00  0.00    -0.169 NA
HETATM   19  N   UNL     1      26.380  48.622  39.829  1.00  0.00    -0.277 N 
HETATM   20  H   UNL     1      25.639  48.235  39.253  1.00  0.00     0.189 HD
HETATM   21  C   UNL     1      27.238  47.930  40.646  1.00  0.00     0.063 A 
HETATM   22  C   UNL     1      28.015  48.906  41.238  1.00  0.00     0.071 A 
BRANCH  21  23
HETATM   23  C   UNL     1      27.224  46.474  40.798  1.00  0.00    -0.008 A 
HETATM   24  C   UNL     1      26.381  45.842  41.723  1.00  0.00     0.014 A 
HETATM   25  C   UNL     1      26.381  44.450  41.856  1.00  0.00     0.001 A 
HETATM   26  C   UNL     1      27.221  43.673  41.065  1.00  0.00     0.000 A 
HETATM   27  C   UNL     1      28.061  44.284  40.138  1.00  0.00     0.001 A 
HETATM   28  C   UNL     1      28.061  45.675  40.005  1.00  0.00     0.014 A 
ENDBRANCH  21  23
ENDBRANCH   2  17
TORSDOF 3
ENDMDL
MODEL 9
REMARK VINA RESULT:      -7.7      6.985     10.437
REMARK  3 active torsions:
REMARK  status: ('A' for Active; 'I' for Inactive)
REMARK    1  A    between atoms: C_11  and  N_12 
REMARK       I    between atoms: N_12  and  C_13 
REMARK    2  A    between atoms: C_13  and  C_14 
REMARK    3  A    between atoms: C_18  and  C_19 
ROOT
HETATM    1  N   UNL     1      19.181  50.254  47.471  1.00  0.00    -0.351 N 
HETATM    2  C   UNL     1      20.158  51.015  48.095  1.00  0.00     0.272 C 
HETATM    3  O   UNL     1      20.075  52.227  48.252  1.00  0.00    -0.266 OA
HETATM    4  H   UNL     1      19.546  49.328  47.241  1.00  0.00     0.163 HD
ENDROOT
BRANCH   1   5
HETATM    5  C   UNL     1      18.093  50.831  46.710  1.00  0.00     0.089 C 
HETATM    6  C   UNL     1      17.357  51.984  47.409  1.00  0.00     0.063 C 
HETATM    7  C   UNL     1      16.475  51.570  48.591  1.00  0.00     0.121 C 
HETATM    8  N   UNL     1      15.581  50.418  48.176  1.00  0.00    -0.059 N 
HETATM    9  C   UNL     1      17.251  51.210  49.862  1.00  0.00     0.046 C 
HETATM   10  C   UNL     1      15.528  52.735  48.945  1.00  0.00     0.046 C 
HETATM   11  C   UNL     1      16.142  49.257  47.382  1.00  0.00     0.121 C 
HETATM   12  H   UNL     1      14.814  50.824  47.620  1.00  0.00     0.279 HD
HETATM   13  H   UNL     1      15.112  50.050  49.017  1.00  0.00     0.279 HD
HETATM   14  C   UNL     1      16.795  48.240  48.325  1.00  0.00     0.046 C 
HETATM   15  C   UNL     1      14.928  48.563  46.730  1.00  0.00     0.046 C 
HETATM   16  C   UNL     1      17.079  49.769  46.275  1.00  0.00     0.063 C 
ENDBRANCH   1   5
BRANCH   2  17
HETATM   17  C   UNL     1      21.295  50.208  48.554  1.00  0.00     0.146 A 
HETATM   18  N   UNL     1      21.112  49.117  49.327  1.00  0.00    -0.169 NA
HETATM   19  N   UNL     1      22.365  48.666  49.539  1.00  0.00    -0.277 N 
HETATM   20  H   UNL     1      22.491  47.851  50.130  1.00  0.00     0.189 HD
HETATM   21  C   UNL     1      23.346  49.401  48.923  1.00  0.00     0.063 A 
HETATM   22  C   UNL     1      22.667  50.420  48.284  1.00  0.00     0.071 A 
BRANCH  21  23
HETATM   23  C   UNL     1      24.775  49.093  49.014  1.00  0.00    -0.008 A 
HETATM   24  C   UNL     1      25.744  49.947  48.467  1.00  0.00     0.014 A 
HETATM   25  C   UNL     1      27.104  49.638  48.561  1.00  0.00     0.001 A 
HETATM   26  C   UNL     1      27.513  48.474  49.206  1.00  0.00     0.000 A 
HETATM   27  C   UNL     1      26.564  47.619  49.759  1.00  0.00     0.001 A 
HETATM   28  C   UNL     1      25.205  47.927  49.664  1.00  0.00     0.014 A 
ENDBRANCH  21  23
ENDBRANCH   2  17
TORSDOF 3
ENDMDL
MODEL 10
REMARK VINA RESULT:      -7.7     13.446     14.952
REMARK  3 active torsions:
REMARK  status: ('A' for Active; 'I' for Inactive)
REMARK    1  A    between atoms: C_11  and  N_12 
REMARK       I    between atoms: N_12  and  C_13 
REMARK    2  A    between atoms: C_13  and  C_14 
REMARK    3  A    between atoms: C_18  and  C_19 
ROOT
HETATM    1  N   UNL     1      33.987  51.743  40.708  1.00  0.00    -0.351 N 
HETATM    2  C   UNL     1      35.351  51.498  40.774  1.00  0.00     0.272 C 
HETATM    3  O   UNL     1      35.907  50.595  40.160  1.00  0.00    -0.266 OA
HETATM    4  H   UNL     1      33.704  52.374  41.460  1.00  0.00     0.163 HD
ENDROOT
BRANCH   1   5
HETATM    5  C   UNL     1      33.042  50.813  40.126  1.00  0.00     0.089 C 
HETATM    6  C   UNL     1      31.761  51.455  39.576  1.00  0.00     0.063 C 
HETATM    7  C   UNL     1      30.786  51.973  40.639  1.00  0.00     0.121 C 
HETATM    8  N   UNL     1      30.549  50.894  41.677  1.00  0.00    -0.059 N 
HETATM    9  C   UNL     1      31.224  53.276  41.316  1.00  0.00     0.046 C 
HETATM   10  C   UNL     1      29.416  52.236  39.980  1.00  0.00     0.046 C 
HETATM   11  C   UNL     1      31.708  50.095  42.233  1.00  0.00     0.121 C 
HETATM   12  H   UNL     1      29.889  50.222  41.259  1.00  0.00     0.279 HD
HETATM   13  H   UNL     1      30.023  51.306  42.461  1.00  0.00     0.279 HD
HETATM   14  C   UNL     1      32.379  50.865  43.376  1.00  0.00     0.046 C 
HETATM   15  C   UNL     1      31.090  48.818  42.842  1.00  0.00     0.046 C 
HETATM   16  C   UNL     1      32.673  49.694  41.104  1.00  0.00     0.063 C 
ENDBRANCH   1   5
BRANCH   2  17
HETATM   17  C   UNL     1      36.052  52.443  41.651  1.00  0.00     0.146 A 
HETATM   18  N   UNL     1      36.437  53.657  41.206  1.00  0.00    -0.169 NA
HETATM   19  N   UNL     1      37.042  54.209  42.278  1.00  0.00    -0.277 N 
HETATM   20  H   UNL     1      37.448  55.134  42.179  1.00  0.00     0.189 HD
HETATM   21  C   UNL     1      37.046  53.418  43.399  1.00  0.00     0.063 A 
HETATM   22  C   UNL     1      36.414  52.255  43.006  1.00  0.00     0.071 A 
BRANCH  21  23
HETATM   23  C   UNL     1      37.643  53.816  44.675  1.00  0.00    -0.008 A 
HETATM   24  C   UNL     1      38.016  55.145  44.926  1.00  0.00     0.014 A 
HETATM   25  C   UNL     1      38.587  55.507  46.150  1.00  0.00     0.001 A 
HETATM   26  C   UNL     1      38.788  54.549  47.139  1.00  0.00     0.000 A 
HETATM   27  C   UNL     1      38.419  53.227  46.907  1.00  0.00     0.001 A 
HETATM   28  C   UNL     1      37.849  52.864  45.684  1.00  0.00     0.014 A 
ENDBRANCH  21  23
ENDBRANCH   2  17
TORSDOF 3
ENDMDL
