MODEL 1
REMARK VINA RESULT:      -8.7      0.000      0.000
REMARK  5 active torsions:
REMARK  status: ('A' for Active; 'I' for Inactive)
REMARK    1  A    between atoms: C_2  and  C_3 
REMARK    2  A    between atoms: C_7  and  N_8 
REMARK    3  A    between atoms: N_8  and  C_9 
REMARK    4  A    between atoms: C_11  and  N_12 
REMARK    5  A    between atoms: C_14  and  N_15 
ROOT
HETATM    1  C   UNL     1      25.963  46.365  53.471  1.00  0.00     0.111 A 
HETATM    2  N   UNL     1      25.655  47.475  54.158  1.00  0.00    -0.206 NA
HETATM    3  C   UNL     1      26.446  47.826  55.175  1.00  0.00     0.202 A 
HETATM    4  N   UNL     1      27.514  47.145  55.580  1.00  0.00    -0.199 NA
HETATM    5  C   UNL     1      27.798  46.019  54.890  1.00  0.00     0.156 A 
HETATM    6  C   UNL     1      27.033  45.576  53.830  1.00  0.00     0.096 A 
ENDROOT
BRANCH   1   7
HETATM    7  N   UNL     1      25.157  45.948  52.409  1.00  0.00    -0.265 NA
HETATM    8  H   UNL     1      24.796  45.011  52.538  1.00  0.00     0.130 HD
BRANCH   7   9
HETATM    9  C   UNL     1      25.622  46.216  51.040  1.00  0.00     0.133 C 
HETATM   10  C   UNL     1      24.619  47.018  50.253  1.00  0.00     0.142 A 
HETATM   11  N   UNL     1      23.789  46.437  49.338  1.00  0.00    -0.253 N 
HETATM   12  N   UNL     1      24.361  48.311  50.293  1.00  0.00    -0.215 NA
HETATM   13  N   UNL     1      22.981  47.333  48.755  1.00  0.00    -0.155 NA
HETATM   14  C   UNL     1      23.808  45.056  48.914  1.00  0.00     0.153 C 
HETATM   15  C   UNL     1      23.355  48.465  49.369  1.00  0.00     0.151 A 
HETATM   16  C   UNL     1      24.629  44.179  49.855  1.00  0.00     0.024 C 
HETATM   17  C   UNL     1      25.917  44.891  50.287  1.00  0.00     0.029 C 
BRANCH  15  18
HETATM   18  C   UNL     1      22.741  49.790  49.056  1.00  0.00     0.051 C 
HETATM   19  C   UNL     1      21.282  49.634  48.626  1.00  0.00     0.018 C 
HETATM   20  C   UNL     1      23.538  50.537  47.987  1.00  0.00     0.018 C 
ENDBRANCH  15  18
ENDBRANCH   7   9
ENDBRANCH   1   7
BRANCH   3  21
HETATM   21  N   UNL     1      26.109  48.962  55.880  1.00  0.00    -0.271 NA
HETATM   22  H   UNL     1      26.497  48.905  56.811  1.00  0.00     0.127 HD
HETATM   23  H   UNL     1      26.345  49.782  55.336  1.00  0.00     0.127 HD
ENDBRANCH   3  21
BRANCH   5  24
HETATM   24  N   UNL     1      28.951  45.272  55.269  1.00  0.00    -0.227 N 
HETATM   25  N   UNL     1      29.793  45.681  56.259  1.00  0.00    -0.179 NA
HETATM   26  C   UNL     1      30.720  44.722  56.323  1.00  0.00     0.141 A 
HETATM   27  C   UNL     1      30.498  43.691  55.397  1.00  0.00     0.040 A 
HETATM   28  C   UNL     1      29.356  44.067  54.732  1.00  0.00     0.122 A 
ENDBRANCH   5  24
TORSDOF 5
ENDMDL
MODEL 2
REMARK VINA RESULT:      -8.3      3.409      7.806
REMARK  5 active torsions:
REMARK  status: ('A' for Active; 'I' for Inactive)
REMARK    1  A    between atoms: C_2  and  C_3 
REMARK    2  A    between atoms: C_7  and  N_8 
REMARK    3  A    between atoms: N_8  and  C_9 
REMARK    4  A    between atoms: C_11  and  N_12 
REMARK    5  A    between atoms: C_14  and  N_15 
ROOT
HETATM    1  C   UNL     1      25.696  43.716  52.412  1.00  0.00     0.111 A 
HETATM    2  N   UNL     1      24.436  43.789  51.957  1.00  0.00    -0.206 NA
HETATM    3  C   UNL     1      24.109  43.056  50.890  1.00  0.00     0.202 A 
HETATM    4  N   UNL     1      24.944  42.269  50.220  1.00  0.00    -0.199 NA
HETATM    5  C   UNL     1      26.215  42.223  50.679  1.00  0.00     0.156 A 
HETATM    6  C   UNL     1      26.645  42.951  51.770  1.00  0.00     0.096 A 
ENDROOT
BRANCH   1   7
HETATM    7  N   UNL     1      26.091  44.477  53.515  1.00  0.00    -0.265 NA
HETATM    8  H   UNL     1      25.307  44.793  54.072  1.00  0.00     0.130 HD
BRANCH   7   9
HETATM    9  C   UNL     1      27.122  45.505  53.312  1.00  0.00     0.133 C 
HETATM   10  C   UNL     1      28.108  45.544  54.450  1.00  0.00     0.142 A 
HETATM   11  N   UNL     1      28.044  46.493  55.430  1.00  0.00    -0.253 N 
HETATM   12  N   UNL     1      29.124  44.743  54.708  1.00  0.00    -0.215 NA
HETATM   13  N   UNL     1      29.016  46.341  56.339  1.00  0.00    -0.155 NA
HETATM   14  C   UNL     1      27.141  47.619  55.477  1.00  0.00     0.153 C 
HETATM   15  C   UNL     1      29.651  45.258  55.868  1.00  0.00     0.151 A 
HETATM   16  C   UNL     1      25.987  47.472  54.489  1.00  0.00     0.024 C 
HETATM   17  C   UNL     1      26.479  46.909  53.150  1.00  0.00     0.029 C 
BRANCH  15  18
HETATM   18  C   UNL     1      30.849  44.674  56.541  1.00  0.00     0.051 C 
HETATM   19  C   UNL     1      30.993  43.186  56.218  1.00  0.00     0.018 C 
HETATM   20  C   UNL     1      30.804  44.893  58.053  1.00  0.00     0.018 C 
ENDBRANCH  15  18
ENDBRANCH   7   9
ENDBRANCH   1   7
BRANCH   3  21
HETATM   21  N   UNL     1      22.814  43.152  50.427  1.00  0.00    -0.271 NA
HETATM   22  H   UNL     1      22.351  43.926  50.884  1.00  0.00     0.127 HD
HETATM   23  H   UNL     1      22.813  43.153  49.416  1.00  0.00     0.127 HD
ENDBRANCH   3  21
BRANCH   5  24
HETATM   24  N   UNL     1      27.140  41.369  50.012  1.00  0.00    -0.227 N 
HETATM   25  N   UNL     1      27.856  40.413  50.668  1.00  0.00    -0.179 NA
HETATM   26  C   UNL     1      28.579  39.826  49.712  1.00  0.00     0.141 A 
HETATM   27  C   UNL     1      28.347  40.376  48.442  1.00  0.00     0.040 A 
HETATM   28  C   UNL     1      27.419  41.364  48.660  1.00  0.00     0.122 A 
ENDBRANCH   5  24
TORSDOF 5
ENDMDL
MODEL 3
REMARK VINA RESULT:      -8.3      2.020      7.496
REMARK  5 active torsions:
REMARK  status: ('A' for Active; 'I' for Inactive)
REMARK    1  A    between atoms: C_2  and  C_3 
REMARK    2  A    between atoms: C_7  and  N_8 
REMARK    3  A    between atoms: N_8  and  C_9 
REMARK    4  A    between atoms: C_11  and  N_12 
REMARK    5  A    between atoms: C_14  and  N_15 
ROOT
HETATM    1  C   UNL     1      25.812  47.022  49.638  1.00  0.00     0.111 A 
HETATM    2  N   UNL     1      26.890  47.758  49.330  1.00  0.00    -0.206 NA
HETATM    3  C   UNL     1      26.702  49.030  48.971  1.00  0.00     0.202 A 
HETATM    4  N   UNL     1      25.519  49.628  48.871  1.00  0.00    -0.199 NA
HETATM    5  C   UNL     1      24.441  48.866  49.164  1.00  0.00     0.156 A 
HETATM    6  C   UNL     1      24.539  47.540  49.537  1.00  0.00     0.096 A 
ENDROOT
BRANCH   1   7
HETATM    7  N   UNL     1      25.956  45.681  50.003  1.00  0.00    -0.265 NA
HETATM    8  H   UNL     1      25.823  45.048  49.224  1.00  0.00     0.130 HD
BRANCH   7   9
HETATM    9  C   UNL     1      25.310  45.230  51.244  1.00  0.00     0.133 C 
HETATM   10  C   UNL     1      26.173  45.486  52.452  1.00  0.00     0.142 A 
HETATM   11  N   UNL     1      26.902  44.494  53.042  1.00  0.00    -0.253 N 
HETATM   12  N   UNL     1      26.386  46.610  53.109  1.00  0.00    -0.215 NA
HETATM   13  N   UNL     1      27.594  44.941  54.098  1.00  0.00    -0.155 NA
HETATM   14  C   UNL     1      26.881  43.091  52.698  1.00  0.00     0.153 C 
HETATM   15  C   UNL     1      27.259  46.239  54.103  1.00  0.00     0.151 A 
HETATM   16  C   UNL     1      26.220  42.842  51.345  1.00  0.00     0.024 C 
HETATM   17  C   UNL     1      24.972  43.716  51.174  1.00  0.00     0.029 C 
BRANCH  15  18
HETATM   18  C   UNL     1      27.778  47.199  55.123  1.00  0.00     0.051 C 
HETATM   19  C   UNL     1      28.439  46.463  56.289  1.00  0.00     0.018 C 
HETATM   20  C   UNL     1      26.674  48.126  55.630  1.00  0.00     0.018 C 
ENDBRANCH  15  18
ENDBRANCH   7   9
ENDBRANCH   1   7
BRANCH   3  21
HETATM   21  N   UNL     1      27.819  49.770  48.646  1.00  0.00    -0.271 NA
HETATM   22  H   UNL     1      28.359  49.274  47.950  1.00  0.00     0.127 HD
HETATM   23  H   UNL     1      27.545  50.717  48.420  1.00  0.00     0.127 HD
ENDBRANCH   3  21
BRANCH   5  24
HETATM   24  N   UNL     1      23.153  49.471  49.100  1.00  0.00    -0.227 N 
HETATM   25  N   UNL     1      22.002  48.743  49.140  1.00  0.00    -0.179 NA
HETATM   26  C   UNL     1      21.030  49.656  49.076  1.00  0.00     0.141 A 
HETATM   27  C   UNL     1      21.523  50.967  49.000  1.00  0.00     0.040 A 
HETATM   28  C   UNL     1      22.889  50.823  49.017  1.00  0.00     0.122 A 
ENDBRANCH   5  24
TORSDOF 5
ENDMDL
MODEL 4
REMARK VINA RESULT:      -8.2      3.398      4.373
REMARK  5 active torsions:
REMARK  status: ('A' for Active; 'I' for Inactive)
REMARK    1  A    between atoms: C_2  and  C_3 
REMARK    2  A    between atoms: C_7  and  N_8 
REMARK    3  A    between atoms: N_8  and  C_9 
REMARK    4  A    between atoms: C_11  and  N_12 
REMARK    5  A    between atoms: C_14  and  N_15 
ROOT
HETATM    1  C   UNL     1      25.586  45.144  49.910  1.00  0.00     0.111 A 
HETATM    2  N   UNL     1      24.382  44.559  50.009  1.00  0.00    -0.206 NA
HETATM    3  C   UNL     1      24.287  43.431  50.717  1.00  0.00     0.202 A 
HETATM    4  N   UNL     1      25.302  42.820  51.319  1.00  0.00    -0.199 NA
HETATM    5  C   UNL     1      26.511  43.410  51.192  1.00  0.00     0.156 A 
HETATM    6  C   UNL     1      26.706  44.574  50.475  1.00  0.00     0.096 A 
ENDROOT
BRANCH   1   7
HETATM    7  N   UNL     1      25.740  46.316  49.168  1.00  0.00    -0.265 NA
HETATM    8  H   UNL     1      26.557  46.295  48.570  1.00  0.00     0.130 HD
BRANCH   7   9
HETATM    9  C   UNL     1      25.548  47.601  49.857  1.00  0.00     0.133 C 
HETATM   10  C   UNL     1      24.672  48.537  49.065  1.00  0.00     0.142 A 
HETATM   11  N   UNL     1      25.193  49.563  48.329  1.00  0.00    -0.253 N 
HETATM   12  N   UNL     1      23.360  48.547  48.929  1.00  0.00    -0.215 NA
HETATM   13  N   UNL     1      24.238  50.268  47.708  1.00  0.00    -0.155 NA
HETATM   14  C   UNL     1      26.579  49.968  48.278  1.00  0.00     0.153 C 
HETATM   15  C   UNL     1      23.133  49.613  48.093  1.00  0.00     0.151 A 
HETATM   16  C   UNL     1      27.508  48.907  48.861  1.00  0.00     0.024 C 
HETATM   17  C   UNL     1      26.911  48.291  50.132  1.00  0.00     0.029 C 
BRANCH  15  18
HETATM   18  C   UNL     1      21.764  50.026  47.663  1.00  0.00     0.051 C 
HETATM   19  C   UNL     1      21.220  51.146  48.551  1.00  0.00     0.018 C 
HETATM   20  C   UNL     1      20.801  48.838  47.647  1.00  0.00     0.018 C 
ENDBRANCH  15  18
ENDBRANCH   7   9
ENDBRANCH   1   7
BRANCH   3  21
HETATM   21  N   UNL     1      23.046  42.836  50.798  1.00  0.00    -0.271 NA
HETATM   22  H   UNL     1      22.762  42.784  51.767  1.00  0.00     0.127 HD
HETATM   23  H   UNL     1      22.407  43.292  50.161  1.00  0.00     0.127 HD
ENDBRANCH   3  21
BRANCH   5  24
HETATM   24  N   UNL     1      27.625  42.808  51.846  1.00  0.00    -0.227 N 
HETATM   25  N   UNL     1      27.750  41.458  51.981  1.00  0.00    -0.179 NA
HETATM   26  C   UNL     1      28.911  41.295  52.619  1.00  0.00     0.141 A 
HETATM   27  C   UNL     1      29.550  42.512  52.900  1.00  0.00     0.040 A 
HETATM   28  C   UNL     1      28.706  43.469  52.393  1.00  0.00     0.122 A 
ENDBRANCH   5  24
TORSDOF 5
ENDMDL
MODEL 5
REMARK VINA RESULT:      -8.1      2.573      3.918
REMARK  5 active torsions:
REMARK  status: ('A' for Active; 'I' for Inactive)
REMARK    1  A    between atoms: C_2  and  C_3 
REMARK    2  A    between atoms: C_7  and  N_8 
REMARK    3  A    between atoms: N_8  and  C_9 
REMARK    4  A    between atoms: C_11  and  N_12 
REMARK    5  A    between atoms: C_14  and  N_15 
ROOT
HETATM    1  C   UNL     1      26.742  42.779  52.284  1.00  0.00     0.111 A 
HETATM    2  N   UNL     1      27.284  41.624  51.868  1.00  0.00    -0.206 NA
HETATM    3  C   UNL     1      28.439  41.239  52.415  1.00  0.00     0.202 A 
HETATM    4  N   UNL     1      29.117  41.924  53.331  1.00  0.00    -0.199 NA
HETATM    5  C   UNL     1      28.567  43.095  53.724  1.00  0.00     0.156 A 
HETATM    6  C   UNL     1      27.380  43.576  53.209  1.00  0.00     0.096 A 
ENDROOT
BRANCH   1   7
HETATM    7  N   UNL     1      25.542  43.233  51.731  1.00  0.00    -0.265 NA
HETATM    8  H   UNL     1      24.739  42.714  52.063  1.00  0.00     0.130 HD
BRANCH   7   9
HETATM    9  C   UNL     1      25.508  43.511  50.288  1.00  0.00     0.133 C 
HETATM   10  C   UNL     1      25.354  44.982  50.003  1.00  0.00     0.142 A 
HETATM   11  N   UNL     1      24.155  45.526  49.644  1.00  0.00    -0.253 N 
HETATM   12  N   UNL     1      26.255  45.945  50.048  1.00  0.00    -0.215 NA
HETATM   13  N   UNL     1      24.245  46.847  49.437  1.00  0.00    -0.155 NA
HETATM   14  C   UNL     1      22.929  44.808  49.383  1.00  0.00     0.153 C 
HETATM   15  C   UNL     1      25.541  47.067  49.701  1.00  0.00     0.151 A 
HETATM   16  C   UNL     1      22.985  43.371  49.895  1.00  0.00     0.024 C 
HETATM   17  C   UNL     1      24.350  42.737  49.602  1.00  0.00     0.029 C 
BRANCH  15  18
HETATM   18  C   UNL     1      26.163  48.421  49.603  1.00  0.00     0.051 C 
HETATM   19  C   UNL     1      25.295  49.368  48.772  1.00  0.00     0.018 C 
HETATM   20  C   UNL     1      27.577  48.347  49.028  1.00  0.00     0.018 C 
ENDBRANCH  15  18
ENDBRANCH   7   9
ENDBRANCH   1   7
BRANCH   3  21
HETATM   21  N   UNL     1      28.990  40.056  51.968  1.00  0.00    -0.271 NA
HETATM   22  H   UNL     1      29.279  39.501  52.761  1.00  0.00     0.127 HD
HETATM   23  H   UNL     1      28.362  39.617  51.309  1.00  0.00     0.127 HD
ENDBRANCH   3  21
BRANCH   5  24
HETATM   24  N   UNL     1      29.241  43.850  54.726  1.00  0.00    -0.227 N 
HETATM   25  N   UNL     1      30.414  43.440  55.285  1.00  0.00    -0.179 NA
HETATM   26  C   UNL     1      30.726  44.408  56.149  1.00  0.00     0.141 A 
HETATM   27  C   UNL     1      29.783  45.447  56.163  1.00  0.00     0.040 A 
HETATM   28  C   UNL     1      28.839  45.067  55.241  1.00  0.00     0.122 A 
ENDBRANCH   5  24
TORSDOF 5
ENDMDL
MODEL 6
REMARK VINA RESULT:      -8.1      2.275      8.050
REMARK  5 active torsions:
REMARK  status: ('A' for Active; 'I' for Inactive)
REMARK    1  A    between atoms: C_2  and  C_3 
REMARK    2  A    between atoms: C_7  and  N_8 
REMARK    3  A    between atoms: N_8  and  C_9 
REMARK    4  A    between atoms: C_11  and  N_12 
REMARK    5  A    between atoms: C_14  and  N_15 
ROOT
HETATM    1  C   UNL     1      26.326  45.153  51.011  1.00  0.00     0.111 A 
HETATM    2  N   UNL     1      25.149  44.513  51.077  1.00  0.00    -0.206 NA
HETATM    3  C   UNL     1      24.084  45.096  50.523  1.00  0.00     0.202 A 
HETATM    4  N   UNL     1      24.089  46.284  49.925  1.00  0.00    -0.199 NA
HETATM    5  C   UNL     1      25.278  46.924  49.886  1.00  0.00     0.156 A 
HETATM    6  C   UNL     1      26.431  46.401  50.438  1.00  0.00     0.096 A 
ENDROOT
BRANCH   1   7
HETATM    7  N   UNL     1      27.466  44.591  51.590  1.00  0.00    -0.265 NA
HETATM    8  H   UNL     1      28.124  44.246  50.902  1.00  0.00     0.130 HD
BRANCH   7   9
HETATM    9  C   UNL     1      27.286  43.687  52.736  1.00  0.00     0.133 C 
HETATM   10  C   UNL     1      28.443  43.761  53.697  1.00  0.00     0.142 A 
HETATM   11  N   UNL     1      29.423  42.811  53.722  1.00  0.00    -0.253 N 
HETATM   12  N   UNL     1      28.719  44.673  54.610  1.00  0.00    -0.215 NA
HETATM   13  N   UNL     1      30.351  43.073  54.653  1.00  0.00    -0.155 NA
HETATM   14  C   UNL     1      29.455  41.588  52.953  1.00  0.00     0.153 C 
HETATM   15  C   UNL     1      29.891  44.221  55.169  1.00  0.00     0.151 A 
HETATM   16  C   UNL     1      28.444  41.603  51.810  1.00  0.00     0.024 C 
HETATM   17  C   UNL     1      27.114  42.218  52.261  1.00  0.00     0.029 C 
BRANCH  15  18
HETATM   18  C   UNL     1      30.586  44.939  56.279  1.00  0.00     0.051 C 
HETATM   19  C   UNL     1      31.316  43.959  57.198  1.00  0.00     0.018 C 
HETATM   20  C   UNL     1      29.613  45.804  57.080  1.00  0.00     0.018 C 
ENDBRANCH  15  18
ENDBRANCH   7   9
ENDBRANCH   1   7
BRANCH   3  21
HETATM   21  N   UNL     1      22.879  44.432  50.610  1.00  0.00    -0.271 NA
HETATM   22  H   UNL     1      22.131  45.106  50.703  1.00  0.00     0.127 HD
HETATM   23  H   UNL     1      22.802  43.767  49.852  1.00  0.00     0.127 HD
ENDBRANCH   3  21
BRANCH   5  24
HETATM   24  N   UNL     1      25.340  48.186  49.228  1.00  0.00    -0.227 N 
HETATM   25  N   UNL     1      26.521  48.787  48.910  1.00  0.00    -0.179 NA
HETATM   26  C   UNL     1      26.164  49.919  48.300  1.00  0.00     0.141 A 
HETATM   27  C   UNL     1      24.772  50.069  48.209  1.00  0.00     0.040 A 
HETATM   28  C   UNL     1      24.265  48.944  48.811  1.00  0.00     0.122 A 
ENDBRANCH   5  24
TORSDOF 5
ENDMDL
MODEL 7
REMARK VINA RESULT:      -8.0      1.640      2.243
REMARK  5 active torsions:
REMARK  status: ('A' for Active; 'I' for Inactive)
REMARK    1  A    between atoms: C_2  and  C_3 
REMARK    2  A    between atoms: C_7  and  N_8 
REMARK    3  A    between atoms: N_8  and  C_9 
REMARK    4  A    between atoms: C_11  and  N_12 
REMARK    5  A    between atoms: C_14  and  N_15 
ROOT
HETATM    1  C   UNL     1      25.875  44.714  53.458  1.00  0.00     0.111 A 
HETATM    2  N   UNL     1      25.482  45.938  53.845  1.00  0.00    -0.206 NA
HETATM    3  C   UNL     1      26.296  46.637  54.639  1.00  0.00     0.202 A 
HETATM    4  N   UNL     1      27.466  46.208  55.102  1.00  0.00    -0.199 NA
HETATM    5  C   UNL     1      27.837  44.966  54.720  1.00  0.00     0.156 A 
HETATM    6  C   UNL     1      27.058  44.168  53.907  1.00  0.00     0.096 A 
ENDROOT
BRANCH   1   7
HETATM    7  N   UNL     1      25.052  43.936  52.641  1.00  0.00    -0.265 NA
HETATM    8  H   UNL     1      24.838  43.034  53.048  1.00  0.00     0.130 HD
BRANCH   7   9
HETATM    9  C   UNL     1      25.363  43.874  51.205  1.00  0.00     0.133 C 
HETATM   10  C   UNL     1      25.309  45.235  50.560  1.00  0.00     0.142 A 
HETATM   11  N   UNL     1      24.238  45.638  49.815  1.00  0.00    -0.253 N 
HETATM   12  N   UNL     1      26.192  46.214  50.590  1.00  0.00    -0.215 NA
HETATM   13  N   UNL     1      24.400  46.879  49.336  1.00  0.00    -0.155 NA
HETATM   14  C   UNL     1      23.094  44.835  49.449  1.00  0.00     0.153 C 
HETATM   15  C   UNL     1      25.602  47.200  49.836  1.00  0.00     0.151 A 
HETATM   16  C   UNL     1      23.001  43.557  50.278  1.00  0.00     0.024 C 
HETATM   17  C   UNL     1      24.384  42.923  50.466  1.00  0.00     0.029 C 
BRANCH  15  18
HETATM   18  C   UNL     1      26.254  48.518  49.575  1.00  0.00     0.051 C 
HETATM   19  C   UNL     1      25.404  49.380  48.641  1.00  0.00     0.018 C 
HETATM   20  C   UNL     1      27.663  48.340  49.007  1.00  0.00     0.018 C 
ENDBRANCH  15  18
ENDBRANCH   7   9
ENDBRANCH   1   7
BRANCH   3  21
HETATM   21  N   UNL     1      25.872  47.888  55.038  1.00  0.00    -0.271 NA
HETATM   22  H   UNL     1      26.522  48.260  55.717  1.00  0.00     0.127 HD
HETATM   23  H   UNL     1      25.687  48.459  54.224  1.00  0.00     0.127 HD
ENDBRANCH   3  21
BRANCH   5  24
HETATM   24  N   UNL     1      29.097  44.474  55.167  1.00  0.00    -0.227 N 
HETATM   25  N   UNL     1      29.589  43.265  54.775  1.00  0.00    -0.179 NA
HETATM   26  C   UNL     1      30.775  43.179  55.381  1.00  0.00     0.141 A 
HETATM   27  C   UNL     1      31.071  44.309  56.158  1.00  0.00     0.040 A 
HETATM   28  C   UNL     1      29.979  45.127  56.004  1.00  0.00     0.122 A 
ENDBRANCH   5  24
TORSDOF 5
ENDMDL
MODEL 8
REMARK VINA RESULT:      -7.9      4.032      9.915
REMARK  5 active torsions:
REMARK  status: ('A' for Active; 'I' for Inactive)
REMARK    1  A    between atoms: C_2  and  C_3 
REMARK    2  A    between atoms: C_7  and  N_8 
REMARK    3  A    between atoms: N_8  and  C_9 
REMARK    4  A    between atoms: C_11  and  N_12 
REMARK    5  A    between atoms: C_14  and  N_15 
ROOT
HETATM    1  C   UNL     1      19.874  48.671  49.451  1.00  0.00     0.111 A 
HETATM    2  N   UNL     1      19.274  47.513  49.135  1.00  0.00    -0.206 NA
HETATM    3  C   UNL     1      17.963  47.532  48.885  1.00  0.00     0.202 A 
HETATM    4  N   UNL     1      17.189  48.611  48.946  1.00  0.00    -0.199 NA
HETATM    5  C   UNL     1      17.805  49.765  49.286  1.00  0.00     0.156 A 
HETATM    6  C   UNL     1      19.154  49.840  49.568  1.00  0.00     0.096 A 
ENDROOT
BRANCH   1   7
HETATM    7  N   UNL     1      21.240  48.701  49.737  1.00  0.00    -0.265 NA
HETATM    8  H   UNL     1      21.516  49.537  50.237  1.00  0.00     0.130 HD
BRANCH   7   9
HETATM    9  C   UNL     1      22.178  48.315  48.672  1.00  0.00     0.133 C 
HETATM   10  C   UNL     1      23.551  48.015  49.215  1.00  0.00     0.142 A 
HETATM   11  N   UNL     1      24.575  48.913  49.124  1.00  0.00    -0.253 N 
HETATM   12  N   UNL     1      23.992  46.937  49.834  1.00  0.00    -0.215 NA
HETATM   13  N   UNL     1      25.705  48.441  49.669  1.00  0.00    -0.155 NA
HETATM   14  C   UNL     1      24.547  50.182  48.434  1.00  0.00     0.153 C 
HETATM   15  C   UNL     1      25.307  47.235  50.097  1.00  0.00     0.151 A 
HETATM   16  C   UNL     1      23.125  50.619  48.094  1.00  0.00     0.024 C 
HETATM   17  C   UNL     1      22.289  49.433  47.601  1.00  0.00     0.029 C 
BRANCH  15  18
HETATM   18  C   UNL     1      26.229  46.284  50.787  1.00  0.00     0.051 C 
HETATM   19  C   UNL     1      26.839  45.290  49.797  1.00  0.00     0.018 C 
HETATM   20  C   UNL     1      25.522  45.544  51.923  1.00  0.00     0.018 C 
ENDBRANCH  15  18
ENDBRANCH   7   9
ENDBRANCH   1   7
BRANCH   3  21
HETATM   21  N   UNL     1      17.359  46.332  48.574  1.00  0.00    -0.271 NA
HETATM   22  H   UNL     1      18.008  45.754  48.057  1.00  0.00     0.127 HD
HETATM   23  H   UNL     1      16.955  45.928  49.409  1.00  0.00     0.127 HD
ENDBRANCH   3  21
BRANCH   5  24
HETATM   24  N   UNL     1      17.023  50.955  49.335  1.00  0.00    -0.227 N 
HETATM   25  N   UNL     1      17.362  52.020  50.114  1.00  0.00    -0.179 NA
HETATM   26  C   UNL     1      16.410  52.924  49.873  1.00  0.00     0.141 A 
HETATM   27  C   UNL     1      15.456  52.472  48.948  1.00  0.00     0.040 A 
HETATM   28  C   UNL     1      15.871  51.206  48.617  1.00  0.00     0.122 A 
ENDBRANCH   5  24
TORSDOF 5
ENDMDL
MODEL 9
REMARK VINA RESULT:      -7.9     11.996     13.559
REMARK  5 active torsions:
REMARK  status: ('A' for Active; 'I' for Inactive)
REMARK    1  A    between atoms: C_2  and  C_3 
REMARK    2  A    between atoms: C_7  and  N_8 
REMARK    3  A    between atoms: N_8  and  C_9 
REMARK    4  A    between atoms: C_11  and  N_12 
REMARK    5  A    between atoms: C_14  and  N_15 
ROOT
HETATM    1  C   UNL     1      32.385  49.706  42.386  1.00  0.00     0.111 A 
HETATM    2  N   UNL     1      31.904  50.370  43.448  1.00  0.00    -0.206 NA
HETATM    3  C   UNL     1      32.637  51.364  43.954  1.00  0.00     0.202 A 
HETATM    4  N   UNL     1      33.830  51.740  43.501  1.00  0.00    -0.199 NA
HETATM    5  C   UNL     1      34.309  51.047  42.444  1.00  0.00     0.156 A 
HETATM    6  C   UNL     1      33.624  50.000  41.860  1.00  0.00     0.096 A 
ENDROOT
BRANCH   1   7
HETATM    7  N   UNL     1      31.663  48.648  41.831  1.00  0.00    -0.265 NA
HETATM    8  H   UNL     1      31.977  47.744  42.164  1.00  0.00     0.130 HD
BRANCH   7   9
HETATM    9  C   UNL     1      31.389  48.680  40.387  1.00  0.00     0.133 C 
HETATM   10  C   UNL     1      30.316  49.679  40.042  1.00  0.00     0.142 A 
HETATM   11  N   UNL     1      29.030  49.298  39.785  1.00  0.00    -0.253 N 
HETATM   12  N   UNL     1      30.392  50.992  39.938  1.00  0.00    -0.215 NA
HETATM   13  N   UNL     1      28.244  50.345  39.499  1.00  0.00    -0.155 NA
HETATM   14  C   UNL     1      28.536  47.943  39.697  1.00  0.00     0.153 C 
HETATM   15  C   UNL     1      29.110  51.362  39.610  1.00  0.00     0.151 A 
HETATM   16  C   UNL     1      29.523  46.933  40.276  1.00  0.00     0.024 C 
HETATM   17  C   UNL     1      30.962  47.278  39.873  1.00  0.00     0.029 C 
BRANCH  15  18
HETATM   18  C   UNL     1      28.715  52.783  39.372  1.00  0.00     0.051 C 
HETATM   19  C   UNL     1      28.753  53.125  37.882  1.00  0.00     0.018 C 
HETATM   20  C   UNL     1      29.596  53.748  40.166  1.00  0.00     0.018 C 
ENDBRANCH  15  18
ENDBRANCH   7   9
ENDBRANCH   1   7
BRANCH   3  21
HETATM   21  N   UNL     1      32.135  52.029  45.053  1.00  0.00    -0.271 NA
HETATM   22  H   UNL     1      32.802  52.725  45.357  1.00  0.00     0.127 HD
HETATM   23  H   UNL     1      31.197  52.351  44.855  1.00  0.00     0.127 HD
ENDBRANCH   3  21
BRANCH   5  24
HETATM   24  N   UNL     1      35.570  51.433  41.904  1.00  0.00    -0.227 N 
HETATM   25  N   UNL     1      35.764  52.633  41.289  1.00  0.00    -0.179 NA
HETATM   26  C   UNL     1      37.054  52.625  40.946  1.00  0.00     0.141 A 
HETATM   27  C   UNL     1      37.709  51.445  41.329  1.00  0.00     0.040 A 
HETATM   28  C   UNL     1      36.736  50.695  41.942  1.00  0.00     0.122 A 
ENDBRANCH   5  24
TORSDOF 5
ENDMDL
MODEL 10
REMARK VINA RESULT:      -7.9      4.230      8.545
REMARK  5 active torsions:
REMARK  status: ('A' for Active; 'I' for Inactive)
REMARK    1  A    between atoms: C_2  and  C_3 
REMARK    2  A    between atoms: C_7  and  N_8 
REMARK    3  A    between atoms: N_8  and  C_9 
REMARK    4  A    between atoms: C_11  and  N_12 
REMARK    5  A    between atoms: C_14  and  N_15 
ROOT
HETATM    1  C   UNL     1      27.425  41.735  51.370  1.00  0.00     0.111 A 
HETATM    2  N   UNL     1      28.239  40.783  51.851  1.00  0.00    -0.206 NA
HETATM    3  C   UNL     1      28.755  39.903  50.990  1.00  0.00     0.202 A 
HETATM    4  N   UNL     1      28.508  39.878  49.684  1.00  0.00    -0.199 NA
HETATM    5  C   UNL     1      27.670  40.832  49.219  1.00  0.00     0.156 A 
HETATM    6  C   UNL     1      27.085  41.778  50.036  1.00  0.00     0.096 A 
ENDROOT
BRANCH   1   7
HETATM    7  N   UNL     1      26.848  42.669  52.233  1.00  0.00    -0.265 NA
HETATM    8  H   UNL     1      25.838  42.594  52.271  1.00  0.00     0.130 HD
BRANCH   7   9
HETATM    9  C   UNL     1      27.332  44.056  52.176  1.00  0.00     0.133 C 
HETATM   10  C   UNL     1      27.996  44.473  53.462  1.00  0.00     0.142 A 
HETATM   11  N   UNL     1      27.355  45.247  54.387  1.00  0.00    -0.253 N 
HETATM   12  N   UNL     1      29.203  44.193  53.914  1.00  0.00    -0.215 NA
HETATM   13  N   UNL     1      28.129  45.498  55.452  1.00  0.00    -0.155 NA
HETATM   14  C   UNL     1      26.052  45.854  54.245  1.00  0.00     0.153 C 
HETATM   15  C   UNL     1      29.246  44.832  55.130  1.00  0.00     0.151 A 
HETATM   16  C   UNL     1      25.265  45.259  53.081  1.00  0.00     0.024 C 
HETATM   17  C   UNL     1      26.170  45.037  51.864  1.00  0.00     0.029 C 
BRANCH  15  18
HETATM   18  C   UNL     1      30.450  44.806  56.014  1.00  0.00     0.051 C 
HETATM   19  C   UNL     1      30.978  43.382  56.187  1.00  0.00     0.018 C 
HETATM   20  C   UNL     1      30.157  45.440  57.374  1.00  0.00     0.018 C 
ENDBRANCH  15  18
ENDBRANCH   7   9
ENDBRANCH   1   7
BRANCH   3  21
HETATM   21  N   UNL     1      29.579  38.923  51.501  1.00  0.00    -0.271 NA
HETATM   22  H   UNL     1      30.134  38.528  50.754  1.00  0.00     0.127 HD
HETATM   23  H   UNL     1      30.082  39.284  52.301  1.00  0.00     0.127 HD
ENDBRANCH   3  21
BRANCH   5  24
HETATM   24  N   UNL     1      27.400  40.865  47.821  1.00  0.00    -0.227 N 
HETATM   25  N   UNL     1      28.359  41.159  46.898  1.00  0.00    -0.179 NA
HETATM   26  C   UNL     1      27.728  41.071  45.726  1.00  0.00     0.141 A 
HETATM   27  C   UNL     1      26.377  40.720  45.862  1.00  0.00     0.040 A 
HETATM   28  C   UNL     1      26.190  40.593  47.216  1.00  0.00     0.122 A 
ENDBRANCH   5  24
TORSDOF 5
ENDMDL
