MODEL 1
REMARK VINA RESULT:     -10.2      0.000      0.000
REMARK  3 active torsions:
REMARK  status: ('A' for Active; 'I' for Inactive)
REMARK    1  A    between atoms: N_4  and  C_5 
REMARK    2  A    between atoms: C_15  and  C_16 
REMARK       I    between atoms: C_16  and  N_17 
REMARK    3  A    between atoms: N_17  and  C_18 
ROOT
HETATM    1  C   UNL     1      23.227  43.607  49.367  1.00  0.00     0.073 C 
HETATM    2  C   UNL     1      23.669  44.969  49.756  1.00  0.00     0.069 A 
HETATM    3  N   UNL     1      23.394  46.021  48.974  1.00  0.00    -0.170 NA
HETATM    4  N   UNL     1      23.892  47.110  49.637  1.00  0.00    -0.216 N 
HETATM    5  C   UNL     1      24.599  46.701  50.758  1.00  0.00     0.145 A 
HETATM    6  C   UNL     1      24.429  45.342  50.879  1.00  0.00     0.087 A 
HETATM    7  N   UNL     1      25.389  47.413  51.599  1.00  0.00    -0.349 N 
HETATM    8  C   UNL     1      26.054  46.729  52.603  1.00  0.00     0.111 A 
HETATM    9  C   UNL     1      25.934  45.405  52.850  1.00  0.00     0.098 A 
HETATM   10  C   UNL     1      25.030  44.593  51.963  1.00  0.00     0.205 A 
HETATM   11  O   UNL     1      24.840  43.393  52.144  1.00  0.00    -0.286 OA
HETATM   12  H   UNL     1      25.727  48.352  51.393  1.00  0.00     0.167 HD
ENDROOT
BRANCH   9  13
HETATM   13  C   UNL     1      26.740  44.819  53.968  1.00  0.00     0.261 C 
HETATM   14  N   UNL     1      28.083  45.129  53.933  1.00  0.00    -0.323 N 
HETATM   15  H   UNL     1      28.404  45.692  53.143  1.00  0.00     0.169 HD
HETATM   16  O   UNL     1      26.188  44.123  54.816  1.00  0.00    -0.267 OA
BRANCH  14  17
HETATM   17  C   UNL     1      29.080  44.776  54.865  1.00  0.00     0.035 A 
HETATM   18  C   UNL     1      29.466  45.579  55.942  1.00  0.00     0.032 A 
HETATM   19  C   UNL     1      30.479  45.159  56.811  1.00  0.00     0.044 A 
HETATM   20  C   UNL     1      31.099  43.934  56.604  1.00  0.00     0.116 A 
HETATM   21  F   UNL     1      32.069  43.533  57.437  1.00  0.00    -0.206 F 
HETATM   22  C   UNL     1      30.729  43.120  55.542  1.00  0.00     0.044 A 
HETATM   23  C   UNL     1      29.722  43.543  54.672  1.00  0.00     0.032 A 
ENDBRANCH  14  17
ENDBRANCH   9  13
BRANCH   4  24
HETATM   24  C   UNL     1      23.637  48.421  49.143  1.00  0.00     0.060 A 
HETATM   25  C   UNL     1      24.653  49.217  48.600  1.00  0.00     0.031 A 
HETATM   26  C   UNL     1      24.362  50.498  48.124  1.00  0.00     0.002 A 
HETATM   27  C   UNL     1      23.062  50.996  48.193  1.00  0.00     0.000 A 
HETATM   28  C   UNL     1      22.050  50.221  48.754  1.00  0.00     0.002 A 
HETATM   29  C   UNL     1      22.336  48.942  49.237  1.00  0.00     0.031 A 
ENDBRANCH   4  24
TORSDOF 3
ENDMDL
MODEL 2
REMARK VINA RESULT:      -9.9      4.177      9.127
REMARK  3 active torsions:
REMARK  status: ('A' for Active; 'I' for Inactive)
REMARK    1  A    between atoms: N_4  and  C_5 
REMARK    2  A    between atoms: C_15  and  C_16 
REMARK       I    between atoms: C_16  and  N_17 
REMARK    3  A    between atoms: N_17  and  C_18 
ROOT
HETATM    1  C   UNL     1      23.777  42.631  50.290  1.00  0.00     0.073 C 
HETATM    2  C   UNL     1      24.824  43.508  50.868  1.00  0.00     0.069 A 
HETATM    3  N   UNL     1      25.728  43.014  51.725  1.00  0.00    -0.170 NA
HETATM    4  N   UNL     1      26.560  44.058  52.023  1.00  0.00    -0.216 N 
HETATM    5  C   UNL     1      26.077  45.228  51.455  1.00  0.00     0.145 A 
HETATM    6  C   UNL     1      24.996  44.891  50.675  1.00  0.00     0.087 A 
HETATM    7  N   UNL     1      26.478  46.511  51.626  1.00  0.00    -0.349 N 
HETATM    8  C   UNL     1      25.755  47.510  50.996  1.00  0.00     0.111 A 
HETATM    9  C   UNL     1      24.703  47.302  50.171  1.00  0.00     0.098 A 
HETATM   10  C   UNL     1      24.260  45.886  49.924  1.00  0.00     0.205 A 
HETATM   11  O   UNL     1      23.337  45.613  49.161  1.00  0.00    -0.286 OA
HETATM   12  H   UNL     1      27.102  46.811  52.375  1.00  0.00     0.167 HD
ENDROOT
BRANCH   9  13
HETATM   13  C   UNL     1      24.020  48.498  49.583  1.00  0.00     0.261 C 
HETATM   14  N   UNL     1      22.643  48.427  49.574  1.00  0.00    -0.323 N 
HETATM   15  H   UNL     1      22.225  47.566  49.932  1.00  0.00     0.169 HD
HETATM   16  O   UNL     1      24.691  49.434  49.156  1.00  0.00    -0.267 OA
BRANCH  14  17
HETATM   17  C   UNL     1      21.726  49.406  49.141  1.00  0.00     0.035 A 
HETATM   18  C   UNL     1      21.229  49.494  47.838  1.00  0.00     0.032 A 
HETATM   19  C   UNL     1      20.334  50.510  47.489  1.00  0.00     0.044 A 
HETATM   20  C   UNL     1      19.933  51.433  48.445  1.00  0.00     0.116 A 
HETATM   21  F   UNL     1      19.076  52.407  48.108  1.00  0.00    -0.206 F 
HETATM   22  C   UNL     1      20.412  51.363  49.746  1.00  0.00     0.044 A 
HETATM   23  C   UNL     1      21.311  50.351  50.092  1.00  0.00     0.032 A 
ENDBRANCH  14  17
ENDBRANCH   9  13
BRANCH   4  24
HETATM   24  C   UNL     1      27.730  43.835  52.804  1.00  0.00     0.060 A 
HETATM   25  C   UNL     1      27.876  44.376  54.088  1.00  0.00     0.031 A 
HETATM   26  C   UNL     1      29.038  44.131  54.824  1.00  0.00     0.002 A 
HETATM   27  C   UNL     1      30.063  43.356  54.284  1.00  0.00     0.000 A 
HETATM   28  C   UNL     1      29.937  42.835  52.998  1.00  0.00     0.002 A 
HETATM   29  C   UNL     1      28.780  43.080  52.256  1.00  0.00     0.031 A 
ENDBRANCH   4  24
TORSDOF 3
ENDMDL
MODEL 3
REMARK VINA RESULT:      -9.4      4.373      9.007
REMARK  3 active torsions:
REMARK  status: ('A' for Active; 'I' for Inactive)
REMARK    1  A    between atoms: N_4  and  C_5 
REMARK    2  A    between atoms: C_15  and  C_16 
REMARK       I    between atoms: C_16  and  N_17 
REMARK    3  A    between atoms: N_17  and  C_18 
ROOT
HETATM    1  C   UNL     1      26.089  47.951  54.636  1.00  0.00     0.073 C 
HETATM    2  C   UNL     1      27.045  46.817  54.606  1.00  0.00     0.069 A 
HETATM    3  N   UNL     1      28.022  46.727  55.518  1.00  0.00    -0.170 NA
HETATM    4  N   UNL     1      28.681  45.561  55.237  1.00  0.00    -0.216 N 
HETATM    5  C   UNL     1      28.190  45.011  54.062  1.00  0.00     0.145 A 
HETATM    6  C   UNL     1      27.114  45.771  53.668  1.00  0.00     0.087 A 
HETATM    7  N   UNL     1      28.651  43.969  53.328  1.00  0.00    -0.349 N 
HETATM    8  C   UNL     1      28.013  43.680  52.132  1.00  0.00     0.111 A 
HETATM    9  C   UNL     1      26.922  44.326  51.661  1.00  0.00     0.098 A 
HETATM   10  C   UNL     1      26.358  45.459  52.474  1.00  0.00     0.205 A 
HETATM   11  O   UNL     1      25.349  46.070  52.132  1.00  0.00    -0.286 OA
HETATM   12  H   UNL     1      29.573  43.553  53.458  1.00  0.00     0.167 HD
ENDROOT
BRANCH   9  13
HETATM   13  C   UNL     1      26.365  43.898  50.338  1.00  0.00     0.261 C 
HETATM   14  N   UNL     1      24.997  43.726  50.319  1.00  0.00    -0.323 N 
HETATM   15  H   UNL     1      24.503  43.871  51.202  1.00  0.00     0.169 HD
HETATM   16  O   UNL     1      27.122  43.727  49.386  1.00  0.00    -0.267 OA
BRANCH  14  17
HETATM   17  C   UNL     1      24.181  43.384  49.222  1.00  0.00     0.035 A 
HETATM   18  C   UNL     1      23.778  44.286  48.233  1.00  0.00     0.032 A 
HETATM   19  C   UNL     1      22.951  43.865  47.187  1.00  0.00     0.044 A 
HETATM   20  C   UNL     1      22.534  42.542  47.127  1.00  0.00     0.116 A 
HETATM   21  F   UNL     1      21.741  42.142  46.124  1.00  0.00    -0.206 F 
HETATM   22  C   UNL     1      22.925  41.629  48.097  1.00  0.00     0.044 A 
HETATM   23  C   UNL     1      23.746  42.052  49.146  1.00  0.00     0.032 A 
ENDBRANCH  14  17
ENDBRANCH   9  13
BRANCH   4  24
HETATM   24  C   UNL     1      29.695  45.087  56.116  1.00  0.00     0.060 A 
HETATM   25  C   UNL     1      30.526  44.012  55.775  1.00  0.00     0.031 A 
HETATM   26  C   UNL     1      31.512  43.578  56.665  1.00  0.00     0.002 A 
HETATM   27  C   UNL     1      31.670  44.204  57.900  1.00  0.00     0.000 A 
HETATM   28  C   UNL     1      30.833  45.258  58.258  1.00  0.00     0.002 A 
HETATM   29  C   UNL     1      29.842  45.693  57.375  1.00  0.00     0.031 A 
ENDBRANCH   4  24
TORSDOF 3
ENDMDL
MODEL 4
REMARK VINA RESULT:      -9.4      4.957      8.930
REMARK  3 active torsions:
REMARK  status: ('A' for Active; 'I' for Inactive)
REMARK    1  A    between atoms: N_4  and  C_5 
REMARK    2  A    between atoms: C_15  and  C_16 
REMARK       I    between atoms: C_16  and  N_17 
REMARK    3  A    between atoms: N_17  and  C_18 
ROOT
HETATM    1  C   UNL     1      26.281  46.235  53.220  1.00  0.00     0.073 C 
HETATM    2  C   UNL     1      27.313  45.302  53.735  1.00  0.00     0.069 A 
HETATM    3  N   UNL     1      28.162  45.690  54.696  1.00  0.00    -0.170 NA
HETATM    4  N   UNL     1      28.937  44.595  54.966  1.00  0.00    -0.216 N 
HETATM    5  C   UNL     1      28.653  43.580  54.064  1.00  0.00     0.145 A 
HETATM    6  C   UNL     1      27.587  43.992  53.300  1.00  0.00     0.087 A 
HETATM    7  N   UNL     1      29.286  42.399  53.852  1.00  0.00    -0.349 N 
HETATM    8  C   UNL     1      28.839  41.598  52.815  1.00  0.00     0.111 A 
HETATM    9  C   UNL     1      27.777  41.873  52.024  1.00  0.00     0.098 A 
HETATM   10  C   UNL     1      27.025  43.154  52.262  1.00  0.00     0.205 A 
HETATM   11  O   UNL     1      26.029  43.459  51.610  1.00  0.00    -0.286 OA
HETATM   12  H   UNL     1      30.209  42.181  54.225  1.00  0.00     0.167 HD
ENDROOT
BRANCH   9  13
HETATM   13  C   UNL     1      27.438  40.904  50.934  1.00  0.00     0.261 C 
HETATM   14  N   UNL     1      28.417  40.752  49.975  1.00  0.00    -0.323 N 
HETATM   15  H   UNL     1      29.254  41.329  50.077  1.00  0.00     0.169 HD
HETATM   16  O   UNL     1      26.354  40.327  50.948  1.00  0.00    -0.267 OA
BRANCH  14  17
HETATM   17  C   UNL     1      28.417  39.883  48.866  1.00  0.00     0.035 A 
HETATM   18  C   UNL     1      28.873  38.562  48.904  1.00  0.00     0.032 A 
HETATM   19  C   UNL     1      28.853  37.773  47.750  1.00  0.00     0.044 A 
HETATM   20  C   UNL     1      28.374  38.304  46.560  1.00  0.00     0.116 A 
HETATM   21  F   UNL     1      28.357  37.546  45.455  1.00  0.00    -0.206 F 
HETATM   22  C   UNL     1      27.914  39.612  46.500  1.00  0.00     0.044 A 
HETATM   23  C   UNL     1      27.939  40.402  47.652  1.00  0.00     0.032 A 
ENDBRANCH  14  17
ENDBRANCH   9  13
BRANCH   4  24
HETATM   24  C   UNL     1      29.855  44.624  56.053  1.00  0.00     0.060 A 
HETATM   25  C   UNL     1      30.861  43.660  56.197  1.00  0.00     0.031 A 
HETATM   26  C   UNL     1      31.744  43.724  57.278  1.00  0.00     0.002 A 
HETATM   27  C   UNL     1      31.626  44.741  58.224  1.00  0.00     0.000 A 
HETATM   28  C   UNL     1      30.614  45.689  58.102  1.00  0.00     0.002 A 
HETATM   29  C   UNL     1      29.724  45.628  57.028  1.00  0.00     0.031 A 
ENDBRANCH   4  24
TORSDOF 3
ENDMDL
MODEL 5
REMARK VINA RESULT:      -9.3      5.238      9.709
REMARK  3 active torsions:
REMARK  status: ('A' for Active; 'I' for Inactive)
REMARK    1  A    between atoms: N_4  and  C_5 
REMARK    2  A    between atoms: C_15  and  C_16 
REMARK       I    between atoms: C_16  and  N_17 
REMARK    3  A    between atoms: N_17  and  C_18 
ROOT
HETATM    1  C   UNL     1      27.649  49.006  49.204  1.00  0.00     0.073 C 
HETATM    2  C   UNL     1      26.889  47.749  49.407  1.00  0.00     0.069 A 
HETATM    3  N   UNL     1      27.532  46.588  49.590  1.00  0.00    -0.170 NA
HETATM    4  N   UNL     1      26.552  45.653  49.791  1.00  0.00    -0.216 N 
HETATM    5  C   UNL     1      25.304  46.224  49.588  1.00  0.00     0.145 A 
HETATM    6  C   UNL     1      25.493  47.571  49.388  1.00  0.00     0.087 A 
HETATM    7  N   UNL     1      24.081  45.643  49.514  1.00  0.00    -0.349 N 
HETATM    8  C   UNL     1      22.995  46.447  49.212  1.00  0.00     0.111 A 
HETATM    9  C   UNL     1      23.047  47.788  49.038  1.00  0.00     0.098 A 
HETATM   10  C   UNL     1      24.382  48.470  49.157  1.00  0.00     0.205 A 
HETATM   11  O   UNL     1      24.507  49.687  49.049  1.00  0.00    -0.286 OA
HETATM   12  H   UNL     1      23.941  44.639  49.410  1.00  0.00     0.167 HD
ENDROOT
BRANCH   9  13
HETATM   13  C   UNL     1      21.778  48.506  48.698  1.00  0.00     0.261 C 
HETATM   14  N   UNL     1      21.405  49.476  49.605  1.00  0.00    -0.323 N 
HETATM   15  H   UNL     1      22.001  49.589  50.427  1.00  0.00     0.169 HD
HETATM   16  O   UNL     1      21.163  48.205  47.679  1.00  0.00    -0.267 OA
BRANCH  14  17
HETATM   17  C   UNL     1      20.302  50.350  49.536  1.00  0.00     0.035 A 
HETATM   18  C   UNL     1      19.114  50.172  50.251  1.00  0.00     0.032 A 
HETATM   19  C   UNL     1      18.060  51.080  50.110  1.00  0.00     0.044 A 
HETATM   20  C   UNL     1      18.198  52.168  49.258  1.00  0.00     0.116 A 
HETATM   21  F   UNL     1      17.187  53.037  49.124  1.00  0.00    -0.206 F 
HETATM   22  C   UNL     1      19.370  52.366  48.541  1.00  0.00     0.044 A 
HETATM   23  C   UNL     1      20.420  51.455  48.678  1.00  0.00     0.032 A 
ENDBRANCH  14  17
ENDBRANCH   9  13
BRANCH   4  24
HETATM   24  C   UNL     1      26.902  44.325  50.164  1.00  0.00     0.060 A 
HETATM   25  C   UNL     1      26.551  43.220  49.378  1.00  0.00     0.031 A 
HETATM   26  C   UNL     1      26.915  41.931  49.777  1.00  0.00     0.002 A 
HETATM   27  C   UNL     1      27.621  41.735  50.963  1.00  0.00     0.000 A 
HETATM   28  C   UNL     1      27.953  42.826  51.763  1.00  0.00     0.002 A 
HETATM   29  C   UNL     1      27.587  44.115  51.372  1.00  0.00     0.031 A 
ENDBRANCH   4  24
TORSDOF 3
ENDMDL
MODEL 6
REMARK VINA RESULT:      -9.2      2.371      3.380
REMARK  3 active torsions:
REMARK  status: ('A' for Active; 'I' for Inactive)
REMARK    1  A    between atoms: N_4  and  C_5 
REMARK    2  A    between atoms: C_15  and  C_16 
REMARK       I    between atoms: C_16  and  N_17 
REMARK    3  A    between atoms: N_17  and  C_18 
ROOT
HETATM    1  C   UNL     1      21.529  44.803  46.979  1.00  0.00     0.073 C 
HETATM    2  C   UNL     1      21.811  46.004  47.804  1.00  0.00     0.069 A 
HETATM    3  N   UNL     1      21.033  47.091  47.710  1.00  0.00    -0.170 NA
HETATM    4  N   UNL     1      21.533  47.980  48.623  1.00  0.00    -0.216 N 
HETATM    5  C   UNL     1      22.706  47.485  49.173  1.00  0.00     0.145 A 
HETATM    6  C   UNL     1      22.876  46.205  48.700  1.00  0.00     0.087 A 
HETATM    7  N   UNL     1      23.614  48.088  49.979  1.00  0.00    -0.349 N 
HETATM    8  C   UNL     1      24.757  47.382  50.317  1.00  0.00     0.111 A 
HETATM    9  C   UNL     1      25.016  46.106  49.951  1.00  0.00     0.098 A 
HETATM   10  C   UNL     1      24.007  45.392  49.094  1.00  0.00     0.205 A 
HETATM   11  O   UNL     1      24.153  44.221  48.750  1.00  0.00    -0.286 OA
HETATM   12  H   UNL     1      23.642  49.094  50.140  1.00  0.00     0.167 HD
ENDROOT
BRANCH   9  13
HETATM   13  C   UNL     1      26.311  45.495  50.390  1.00  0.00     0.261 C 
HETATM   14  N   UNL     1      26.352  45.125  51.717  1.00  0.00    -0.323 N 
HETATM   15  H   UNL     1      25.522  45.329  52.277  1.00  0.00     0.169 HD
HETATM   16  O   UNL     1      27.227  45.365  49.582  1.00  0.00    -0.267 OA
BRANCH  14  17
HETATM   17  C   UNL     1      27.399  44.482  52.407  1.00  0.00     0.035 A 
HETATM   18  C   UNL     1      28.131  43.406  51.895  1.00  0.00     0.032 A 
HETATM   19  C   UNL     1      29.145  42.814  52.656  1.00  0.00     0.044 A 
HETATM   20  C   UNL     1      29.429  43.303  53.924  1.00  0.00     0.116 A 
HETATM   21  F   UNL     1      30.400  42.734  54.651  1.00  0.00    -0.206 F 
HETATM   22  C   UNL     1      28.717  44.372  54.449  1.00  0.00     0.044 A 
HETATM   23  C   UNL     1      27.701  44.958  53.692  1.00  0.00     0.032 A 
ENDBRANCH  14  17
ENDBRANCH   9  13
BRANCH   4  24
HETATM   24  C   UNL     1      20.841  49.196  48.884  1.00  0.00     0.060 A 
HETATM   25  C   UNL     1      21.198  50.398  48.259  1.00  0.00     0.031 A 
HETATM   26  C   UNL     1      20.492  51.571  48.540  1.00  0.00     0.002 A 
HETATM   27  C   UNL     1      19.436  51.556  49.448  1.00  0.00     0.000 A 
HETATM   28  C   UNL     1      19.090  50.370  50.093  1.00  0.00     0.002 A 
HETATM   29  C   UNL     1      19.794  49.196  49.821  1.00  0.00     0.031 A 
ENDBRANCH   4  24
TORSDOF 3
ENDMDL
MODEL 7
REMARK VINA RESULT:      -9.0      4.855      6.361
REMARK  3 active torsions:
REMARK  status: ('A' for Active; 'I' for Inactive)
REMARK    1  A    between atoms: N_4  and  C_5 
REMARK    2  A    between atoms: C_15  and  C_16 
REMARK       I    between atoms: C_16  and  N_17 
REMARK    3  A    between atoms: N_17  and  C_18 
ROOT
HETATM    1  C   UNL     1      29.599  38.194  50.468  1.00  0.00     0.073 C 
HETATM    2  C   UNL     1      28.822  39.288  49.835  1.00  0.00     0.069 A 
HETATM    3  N   UNL     1      28.572  39.271  48.519  1.00  0.00    -0.170 NA
HETATM    4  N   UNL     1      27.807  40.380  48.276  1.00  0.00    -0.216 N 
HETATM    5  C   UNL     1      27.711  41.150  49.426  1.00  0.00     0.145 A 
HETATM    6  C   UNL     1      28.311  40.449  50.444  1.00  0.00     0.087 A 
HETATM    7  N   UNL     1      27.202  42.395  49.601  1.00  0.00    -0.349 N 
HETATM    8  C   UNL     1      27.312  42.973  50.856  1.00  0.00     0.111 A 
HETATM    9  C   UNL     1      27.840  42.368  51.944  1.00  0.00     0.098 A 
HETATM   10  C   UNL     1      28.373  40.969  51.794  1.00  0.00     0.205 A 
HETATM   11  O   UNL     1      28.835  40.340  52.742  1.00  0.00    -0.286 OA
HETATM   12  H   UNL     1      26.982  43.026  48.832  1.00  0.00     0.167 HD
ENDROOT
BRANCH   9  13
HETATM   13  C   UNL     1      27.899  43.143  53.224  1.00  0.00     0.261 C 
HETATM   14  N   UNL     1      29.169  43.329  53.727  1.00  0.00    -0.323 N 
HETATM   15  H   UNL     1      29.936  42.899  53.207  1.00  0.00     0.169 HD
HETATM   16  O   UNL     1      26.859  43.550  53.736  1.00  0.00    -0.267 OA
BRANCH  14  17
HETATM   17  C   UNL     1      29.551  44.055  54.873  1.00  0.00     0.035 A 
HETATM   18  C   UNL     1      28.943  45.243  55.288  1.00  0.00     0.032 A 
HETATM   19  C   UNL     1      29.398  45.909  56.430  1.00  0.00     0.044 A 
HETATM   20  C   UNL     1      30.456  45.383  57.159  1.00  0.00     0.116 A 
HETATM   21  F   UNL     1      30.890  46.024  58.253  1.00  0.00    -0.206 F 
HETATM   22  C   UNL     1      31.072  44.203  56.766  1.00  0.00     0.044 A 
HETATM   23  C   UNL     1      30.622  43.542  55.622  1.00  0.00     0.032 A 
ENDBRANCH  14  17
ENDBRANCH   9  13
BRANCH   4  24
HETATM   24  C   UNL     1      27.241  40.585  46.986  1.00  0.00     0.060 A 
HETATM   25  C   UNL     1      28.033  40.888  45.871  1.00  0.00     0.031 A 
HETATM   26  C   UNL     1      27.440  41.080  44.620  1.00  0.00     0.002 A 
HETATM   27  C   UNL     1      26.057  40.980  44.475  1.00  0.00     0.000 A 
HETATM   28  C   UNL     1      25.260  40.704  45.583  1.00  0.00     0.002 A 
HETATM   29  C   UNL     1      25.846  40.516  46.836  1.00  0.00     0.031 A 
ENDBRANCH   4  24
TORSDOF 3
ENDMDL
MODEL 8
REMARK VINA RESULT:      -9.0      4.548      9.242
REMARK  3 active torsions:
REMARK  status: ('A' for Active; 'I' for Inactive)
REMARK    1  A    between atoms: N_4  and  C_5 
REMARK    2  A    between atoms: C_15  and  C_16 
REMARK       I    between atoms: C_16  and  N_17 
REMARK    3  A    between atoms: N_17  and  C_18 
ROOT
HETATM    1  C   UNL     1      26.946  45.634  54.197  1.00  0.00     0.073 C 
HETATM    2  C   UNL     1      26.636  44.958  52.913  1.00  0.00     0.069 A 
HETATM    3  N   UNL     1      27.109  43.731  52.660  1.00  0.00    -0.170 NA
HETATM    4  N   UNL     1      26.607  43.390  51.433  1.00  0.00    -0.216 N 
HETATM    5  C   UNL     1      25.943  44.473  50.875  1.00  0.00     0.145 A 
HETATM    6  C   UNL     1      25.909  45.469  51.822  1.00  0.00     0.087 A 
HETATM    7  N   UNL     1      25.445  44.641  49.625  1.00  0.00    -0.349 N 
HETATM    8  C   UNL     1      24.899  45.872  49.302  1.00  0.00     0.111 A 
HETATM    9  C   UNL     1      24.769  46.912  50.157  1.00  0.00     0.098 A 
HETATM   10  C   UNL     1      25.270  46.743  51.565  1.00  0.00     0.205 A 
HETATM   11  O   UNL     1      25.157  47.626  52.411  1.00  0.00    -0.286 OA
HETATM   12  H   UNL     1      25.672  44.030  48.842  1.00  0.00     0.167 HD
ENDROOT
BRANCH   9  13
HETATM   13  C   UNL     1      24.169  48.182  49.639  1.00  0.00     0.261 C 
HETATM   14  N   UNL     1      22.795  48.165  49.526  1.00  0.00    -0.323 N 
HETATM   15  H   UNL     1      22.325  47.292  49.770  1.00  0.00     0.169 HD
HETATM   16  O   UNL     1      24.899  49.127  49.352  1.00  0.00    -0.267 OA
BRANCH  14  17
HETATM   17  C   UNL     1      21.944  49.215  49.125  1.00  0.00     0.035 A 
HETATM   18  C   UNL     1      21.449  49.371  47.827  1.00  0.00     0.032 A 
HETATM   19  C   UNL     1      20.623  50.454  47.511  1.00  0.00     0.044 A 
HETATM   20  C   UNL     1      20.289  51.376  48.494  1.00  0.00     0.116 A 
HETATM   21  F   UNL     1      19.497  52.413  48.188  1.00  0.00    -0.206 F 
HETATM   22  C   UNL     1      20.766  51.238  49.789  1.00  0.00     0.044 A 
HETATM   23  C   UNL     1      21.597  50.160  50.103  1.00  0.00     0.032 A 
ENDBRANCH  14  17
ENDBRANCH   9  13
BRANCH   4  24
HETATM   24  C   UNL     1      26.800  42.074  50.925  1.00  0.00     0.060 A 
HETATM   25  C   UNL     1      25.752  41.339  50.358  1.00  0.00     0.031 A 
HETATM   26  C   UNL     1      25.983  40.051  49.868  1.00  0.00     0.002 A 
HETATM   27  C   UNL     1      27.254  39.486  49.948  1.00  0.00     0.000 A 
HETATM   28  C   UNL     1      28.298  40.200  50.532  1.00  0.00     0.002 A 
HETATM   29  C   UNL     1      28.072  41.485  51.028  1.00  0.00     0.031 A 
ENDBRANCH   4  24
TORSDOF 3
ENDMDL
MODEL 9
REMARK VINA RESULT:      -9.0      4.263      5.262
REMARK  3 active torsions:
REMARK  status: ('A' for Active; 'I' for Inactive)
REMARK    1  A    between atoms: N_4  and  C_5 
REMARK    2  A    between atoms: C_15  and  C_16 
REMARK       I    between atoms: C_16  and  N_17 
REMARK    3  A    between atoms: N_17  and  C_18 
ROOT
HETATM    1  C   UNL     1      27.636  49.122  49.181  1.00  0.00     0.073 C 
HETATM    2  C   UNL     1      26.199  48.751  49.203  1.00  0.00     0.069 A 
HETATM    3  N   UNL     1      25.252  49.698  49.162  1.00  0.00    -0.170 NA
HETATM    4  N   UNL     1      24.061  49.025  49.151  1.00  0.00    -0.216 N 
HETATM    5  C   UNL     1      24.281  47.668  49.329  1.00  0.00     0.145 A 
HETATM    6  C   UNL     1      25.641  47.465  49.318  1.00  0.00     0.087 A 
HETATM    7  N   UNL     1      23.399  46.662  49.549  1.00  0.00    -0.349 N 
HETATM    8  C   UNL     1      23.902  45.393  49.782  1.00  0.00     0.111 A 
HETATM    9  C   UNL     1      25.213  45.061  49.753  1.00  0.00     0.098 A 
HETATM   10  C   UNL     1      26.216  46.145  49.468  1.00  0.00     0.205 A 
HETATM   11  O   UNL     1      27.420  45.917  49.389  1.00  0.00    -0.286 OA
HETATM   12  H   UNL     1      22.425  46.815  49.807  1.00  0.00     0.167 HD
ENDROOT
BRANCH   9  13
HETATM   13  C   UNL     1      25.589  43.641  50.046  1.00  0.00     0.261 C 
HETATM   14  N   UNL     1      26.610  43.144  49.264  1.00  0.00    -0.323 N 
HETATM   15  H   UNL     1      26.986  43.768  48.548  1.00  0.00     0.169 HD
HETATM   16  O   UNL     1      24.992  43.022  50.923  1.00  0.00    -0.267 OA
BRANCH  14  17
HETATM   17  C   UNL     1      27.218  41.875  49.335  1.00  0.00     0.035 A 
HETATM   18  C   UNL     1      27.732  41.316  50.509  1.00  0.00     0.032 A 
HETATM   19  C   UNL     1      28.336  40.054  50.487  1.00  0.00     0.044 A 
HETATM   20  C   UNL     1      28.420  39.352  49.292  1.00  0.00     0.116 A 
HETATM   21  F   UNL     1      29.000  38.144  49.273  1.00  0.00    -0.206 F 
HETATM   22  C   UNL     1      27.914  39.887  48.115  1.00  0.00     0.044 A 
HETATM   23  C   UNL     1      27.316  41.149  48.137  1.00  0.00     0.032 A 
ENDBRANCH  14  17
ENDBRANCH   9  13
BRANCH   4  24
HETATM   24  C   UNL     1      22.843  49.738  48.962  1.00  0.00     0.060 A 
HETATM   25  C   UNL     1      22.265  50.499  49.986  1.00  0.00     0.031 A 
HETATM   26  C   UNL     1      21.070  51.187  49.760  1.00  0.00     0.002 A 
HETATM   27  C   UNL     1      20.440  51.114  48.519  1.00  0.00     0.000 A 
HETATM   28  C   UNL     1      20.995  50.339  47.502  1.00  0.00     0.002 A 
HETATM   29  C   UNL     1      22.186  49.646  47.723  1.00  0.00     0.031 A 
ENDBRANCH   4  24
TORSDOF 3
ENDMDL
MODEL 10
REMARK VINA RESULT:      -8.8      4.016      9.087
REMARK  3 active torsions:
REMARK  status: ('A' for Active; 'I' for Inactive)
REMARK    1  A    between atoms: N_4  and  C_5 
REMARK    2  A    between atoms: C_15  and  C_16 
REMARK       I    between atoms: C_16  and  N_17 
REMARK    3  A    between atoms: N_17  and  C_18 
ROOT
HETATM    1  C   UNL     1      26.368  42.041  51.138  1.00  0.00     0.073 C 
HETATM    2  C   UNL     1      26.698  43.272  51.899  1.00  0.00     0.069 A 
HETATM    3  N   UNL     1      27.401  43.199  53.038  1.00  0.00    -0.170 NA
HETATM    4  N   UNL     1      27.566  44.493  53.450  1.00  0.00    -0.216 N 
HETATM    5  C   UNL     1      26.838  45.347  52.635  1.00  0.00     0.145 A 
HETATM    6  C   UNL     1      26.315  44.594  51.611  1.00  0.00     0.087 A 
HETATM    7  N   UNL     1      26.577  46.671  52.771  1.00  0.00    -0.349 N 
HETATM    8  C   UNL     1      25.738  47.268  51.844  1.00  0.00     0.111 A 
HETATM    9  C   UNL     1      25.199  46.645  50.772  1.00  0.00     0.098 A 
HETATM   10  C   UNL     1      25.506  45.186  50.567  1.00  0.00     0.205 A 
HETATM   11  O   UNL     1      25.084  44.559  49.598  1.00  0.00    -0.286 OA
HETATM   12  H   UNL     1      26.739  47.190  53.633  1.00  0.00     0.167 HD
ENDROOT
BRANCH   9  13
HETATM   13  C   UNL     1      24.297  47.435  49.875  1.00  0.00     0.261 C 
HETATM   14  N   UNL     1      23.170  46.761  49.454  1.00  0.00    -0.323 N 
HETATM   15  H   UNL     1      23.074  45.792  49.760  1.00  0.00     0.169 HD
HETATM   16  O   UNL     1      24.597  48.587  49.573  1.00  0.00    -0.267 OA
BRANCH  14  17
HETATM   17  C   UNL     1      22.116  47.249  48.657  1.00  0.00     0.035 A 
HETATM   18  C   UNL     1      21.646  46.613  47.503  1.00  0.00     0.032 A 
HETATM   19  C   UNL     1      20.604  47.177  46.760  1.00  0.00     0.044 A 
HETATM   20  C   UNL     1      20.029  48.371  47.174  1.00  0.00     0.116 A 
HETATM   21  F   UNL     1      19.031  48.909  46.460  1.00  0.00    -0.206 F 
HETATM   22  C   UNL     1      20.478  49.017  48.318  1.00  0.00     0.044 A 
HETATM   23  C   UNL     1      21.523  48.457  49.056  1.00  0.00     0.032 A 
ENDBRANCH  14  17
ENDBRANCH   9  13
BRANCH   4  24
HETATM   24  C   UNL     1      28.403  44.783  54.565  1.00  0.00     0.060 A 
HETATM   25  C   UNL     1      28.124  45.836  55.445  1.00  0.00     0.031 A 
HETATM   26  C   UNL     1      28.969  46.087  56.529  1.00  0.00     0.002 A 
HETATM   27  C   UNL     1      30.099  45.298  56.738  1.00  0.00     0.000 A 
HETATM   28  C   UNL     1      30.398  44.264  55.854  1.00  0.00     0.002 A 
HETATM   29  C   UNL     1      29.560  44.012  54.765  1.00  0.00     0.031 A 
ENDBRANCH   4  24
TORSDOF 3
ENDMDL
