MODEL 1
REMARK VINA RESULT:     -10.0      0.000      0.000
REMARK  7 active torsions:
REMARK  status: ('A' for Active; 'I' for Inactive)
REMARK    1  A    between atoms: C_8  and  C_9 
REMARK    2  A    between atoms: N_10  and  C_11 
REMARK    3  A    between atoms: C_14  and  S_15 
REMARK    4  A    between atoms: S_15  and  C_16 
REMARK    5  A    between atoms: C_16  and  C_17 
REMARK       I    between atoms: C_17  and  N_18 
REMARK    6  A    between atoms: N_21  and  C_22 
REMARK    7  A    between atoms: C_25  and  O_26 
ROOT
HETATM    1  C   UNL     1      21.970  47.519  48.405  1.00  0.00     0.167 A 
HETATM    2  N   UNL     1      23.256  47.780  48.850  1.00  0.00    -0.302 N 
HETATM    3  C   UNL     1      23.793  46.556  49.171  1.00  0.00     0.192 A 
HETATM    4  N   UNL     1      22.927  45.607  48.900  1.00  0.00    -0.122 NA
HETATM    5  N   UNL     1      21.792  46.207  48.423  1.00  0.00    -0.128 NA
ENDROOT
BRANCH   3   6
HETATM    6  S   UNL     1      25.286  46.284  49.997  1.00  0.00    -0.081 SA
BRANCH   6   7
HETATM    7  C   UNL     1      25.127  44.511  50.362  1.00  0.00     0.185 C 
BRANCH   7   8
HETATM    8  C   UNL     1      26.480  43.802  50.382  1.00  0.00     0.229 C 
HETATM    9  N   UNL     1      27.203  43.877  51.578  1.00  0.00    -0.348 N 
HETATM   10  C   UNL     1      28.415  43.054  51.679  1.00  0.00     0.145 C 
HETATM   11  C   UNL     1      26.599  44.245  52.869  1.00  0.00     0.145 C 
HETATM   12  C   UNL     1      29.427  43.585  52.708  1.00  0.00     0.143 C 
HETATM   13  N   UNL     1      28.767  43.819  54.009  1.00  0.00    -0.378 N 
HETATM   14  C   UNL     1      27.627  44.757  53.899  1.00  0.00     0.143 C 
HETATM   15  O   UNL     1      26.939  43.211  49.402  1.00  0.00    -0.273 OA
BRANCH  13  16
HETATM   16  C   UNL     1      29.577  44.023  55.136  1.00  0.00     0.030 A 
HETATM   17  C   UNL     1      30.562  43.116  55.560  1.00  0.00     0.032 A 
HETATM   18  C   UNL     1      31.328  43.346  56.711  1.00  0.00     0.039 A 
HETATM   19  C   UNL     1      31.110  44.494  57.460  1.00  0.00     0.065 A 
HETATM   20  C   UNL     1      30.142  45.408  57.078  1.00  0.00     0.039 A 
HETATM   21  C   UNL     1      29.382  45.168  55.929  1.00  0.00     0.032 A 
BRANCH  19  22
HETATM   22  O   UNL     1      31.825  44.755  58.590  1.00  0.00    -0.361 OA
HETATM   23  H   UNL     1      31.348  44.386  59.350  1.00  0.00     0.217 HD
ENDBRANCH  19  22
ENDBRANCH  13  16
ENDBRANCH   7   8
ENDBRANCH   6   7
ENDBRANCH   3   6
BRANCH   2  24
HETATM   24  C   UNL     1      23.836  49.097  49.008  1.00  0.00     0.094 A 
HETATM   25  C   UNL     1      25.211  49.577  48.615  1.00  0.00     0.028 A 
HETATM   26  C   UNL     1      24.019  50.007  47.812  1.00  0.00     0.028 A 
ENDBRANCH   2  24
BRANCH   1  27
HETATM   27  C   UNL     1      20.898  48.452  47.922  1.00  0.00     0.040 A 
HETATM   28  C   UNL     1      20.406  49.600  48.632  1.00  0.00     0.006 A 
HETATM   29  C   UNL     1      20.686  50.192  49.883  1.00  0.00     0.014 A 
HETATM   30  C   UNL     1      19.429  50.197  47.832  1.00  0.00     0.043 A 
HETATM   31  C   UNL     1      19.993  51.341  50.283  1.00  0.00     0.001 A 
HETATM   32  C   UNL     1      19.031  51.912  49.455  1.00  0.00     0.002 A 
HETATM   33  C   UNL     1      18.731  51.351  48.211  1.00  0.00     0.030 A 
HETATM   34  N   UNL     1      19.325  49.443  46.689  1.00  0.00    -0.364 N 
HETATM   35  H   UNL     1      18.690  49.642  45.929  1.00  0.00     0.165 HD
HETATM   36  C   UNL     1      20.191  48.378  46.740  1.00  0.00     0.104 A 
ENDBRANCH   1  27
TORSDOF 7
ENDMDL
MODEL 2
REMARK VINA RESULT:      -9.9      1.279      2.065
REMARK  7 active torsions:
REMARK  status: ('A' for Active; 'I' for Inactive)
REMARK    1  A    between atoms: C_8  and  C_9 
REMARK    2  A    between atoms: N_10  and  C_11 
REMARK    3  A    between atoms: C_14  and  S_15 
REMARK    4  A    between atoms: S_15  and  C_16 
REMARK    5  A    between atoms: C_16  and  C_17 
REMARK       I    between atoms: C_17  and  N_18 
REMARK    6  A    between atoms: N_21  and  C_22 
REMARK    7  A    between atoms: C_25  and  O_26 
ROOT
HETATM    1  C   UNL     1      23.258  48.172  49.228  1.00  0.00     0.167 A 
HETATM    2  N   UNL     1      23.073  46.897  48.719  1.00  0.00    -0.302 N 
HETATM    3  C   UNL     1      23.950  46.092  49.406  1.00  0.00     0.192 A 
HETATM    4  N   UNL     1      24.592  46.802  50.304  1.00  0.00    -0.122 NA
HETATM    5  N   UNL     1      24.161  48.097  50.194  1.00  0.00    -0.128 NA
ENDROOT
BRANCH   3   6
HETATM    6  S   UNL     1      24.328  44.447  49.036  1.00  0.00    -0.081 SA
BRANCH   6   7
HETATM    7  C   UNL     1      24.897  43.878  50.665  1.00  0.00     0.185 C 
BRANCH   7   8
HETATM    8  C   UNL     1      26.333  43.356  50.624  1.00  0.00     0.229 C 
HETATM    9  N   UNL     1      27.084  43.516  51.794  1.00  0.00    -0.348 N 
HETATM   10  C   UNL     1      28.398  42.862  51.838  1.00  0.00     0.145 C 
HETATM   11  C   UNL     1      26.487  43.790  53.111  1.00  0.00     0.145 C 
HETATM   12  C   UNL     1      29.369  43.515  52.836  1.00  0.00     0.143 C 
HETATM   13  N   UNL     1      28.735  43.647  54.164  1.00  0.00    -0.378 N 
HETATM   14  C   UNL     1      27.477  44.426  54.109  1.00  0.00     0.143 C 
HETATM   15  O   UNL     1      26.828  42.840  49.620  1.00  0.00    -0.273 OA
BRANCH  13  16
HETATM   16  C   UNL     1      29.553  43.949  55.263  1.00  0.00     0.030 A 
HETATM   17  C   UNL     1      30.598  43.120  55.704  1.00  0.00     0.032 A 
HETATM   18  C   UNL     1      31.372  43.445  56.826  1.00  0.00     0.039 A 
HETATM   19  C   UNL     1      31.101  44.610  57.529  1.00  0.00     0.065 A 
HETATM   20  C   UNL     1      30.074  45.449  57.130  1.00  0.00     0.039 A 
HETATM   21  C   UNL     1      29.307  45.114  56.010  1.00  0.00     0.032 A 
BRANCH  19  22
HETATM   22  O   UNL     1      31.822  44.963  58.631  1.00  0.00    -0.361 OA
HETATM   23  H   UNL     1      32.207  45.841  58.481  1.00  0.00     0.217 HD
ENDBRANCH  19  22
ENDBRANCH  13  16
ENDBRANCH   7   8
ENDBRANCH   6   7
ENDBRANCH   3   6
BRANCH   2  24
HETATM   24  C   UNL     1      22.188  46.552  47.626  1.00  0.00     0.094 A 
HETATM   25  C   UNL     1      21.503  45.238  47.344  1.00  0.00     0.028 A 
HETATM   26  C   UNL     1      20.700  46.396  47.859  1.00  0.00     0.028 A 
ENDBRANCH   2  24
BRANCH   1  27
HETATM   27  C   UNL     1      22.591  49.469  48.873  1.00  0.00     0.040 A 
HETATM   28  C   UNL     1      21.261  49.856  49.251  1.00  0.00     0.006 A 
HETATM   29  C   UNL     1      20.215  49.246  49.978  1.00  0.00     0.014 A 
HETATM   30  C   UNL     1      21.035  51.134  48.732  1.00  0.00     0.043 A 
HETATM   31  C   UNL     1      19.003  49.923  50.160  1.00  0.00     0.001 A 
HETATM   32  C   UNL     1      18.818  51.198  49.634  1.00  0.00     0.002 A 
HETATM   33  C   UNL     1      19.833  51.829  48.911  1.00  0.00     0.030 A 
HETATM   34  N   UNL     1      22.175  51.504  48.062  1.00  0.00    -0.364 N 
HETATM   35  H   UNL     1      22.294  52.386  47.583  1.00  0.00     0.165 HD
HETATM   36  C   UNL     1      23.111  50.503  48.122  1.00  0.00     0.104 A 
ENDBRANCH   1  27
TORSDOF 7
ENDMDL
MODEL 3
REMARK VINA RESULT:      -9.8      1.615      2.901
REMARK  7 active torsions:
REMARK  status: ('A' for Active; 'I' for Inactive)
REMARK    1  A    between atoms: C_8  and  C_9 
REMARK    2  A    between atoms: N_10  and  C_11 
REMARK    3  A    between atoms: C_14  and  S_15 
REMARK    4  A    between atoms: S_15  and  C_16 
REMARK    5  A    between atoms: C_16  and  C_17 
REMARK       I    between atoms: C_17  and  N_18 
REMARK    6  A    between atoms: N_21  and  C_22 
REMARK    7  A    between atoms: C_25  and  O_26 
ROOT
HETATM    1  C   UNL     1      21.408  49.844  49.233  1.00  0.00     0.167 A 
HETATM    2  N   UNL     1      21.543  48.489  48.979  1.00  0.00    -0.302 N 
HETATM    3  C   UNL     1      22.844  48.181  49.296  1.00  0.00     0.192 A 
HETATM    4  N   UNL     1      23.454  49.249  49.756  1.00  0.00    -0.122 NA
HETATM    5  N   UNL     1      22.560  50.284  49.718  1.00  0.00    -0.128 NA
ENDROOT
BRANCH   3   6
HETATM    6  S   UNL     1      23.649  46.689  48.960  1.00  0.00    -0.081 SA
BRANCH   6   7
HETATM    7  C   UNL     1      24.553  46.457  50.519  1.00  0.00     0.185 C 
BRANCH   7   8
HETATM    8  C   UNL     1      25.511  45.269  50.459  1.00  0.00     0.229 C 
HETATM    9  N   UNL     1      26.352  45.093  51.564  1.00  0.00    -0.348 N 
HETATM   10  C   UNL     1      27.146  43.860  51.609  1.00  0.00     0.145 C 
HETATM   11  C   UNL     1      26.111  45.719  52.874  1.00  0.00     0.145 C 
HETATM   12  C   UNL     1      28.408  43.981  52.481  1.00  0.00     0.143 C 
HETATM   13  N   UNL     1      28.065  44.505  53.818  1.00  0.00    -0.378 N 
HETATM   14  C   UNL     1      27.379  45.816  53.747  1.00  0.00     0.143 C 
HETATM   15  O   UNL     1      25.573  44.509  49.490  1.00  0.00    -0.273 OA
BRANCH  13  16
HETATM   16  C   UNL     1      29.026  44.411  54.835  1.00  0.00     0.030 A 
HETATM   17  C   UNL     1      29.207  45.391  55.826  1.00  0.00     0.032 A 
HETATM   18  C   UNL     1      30.201  45.271  56.806  1.00  0.00     0.039 A 
HETATM   19  C   UNL     1      31.036  44.162  56.802  1.00  0.00     0.065 A 
HETATM   20  C   UNL     1      30.894  43.179  55.837  1.00  0.00     0.039 A 
HETATM   21  C   UNL     1      29.899  43.310  54.862  1.00  0.00     0.032 A 
BRANCH  19  22
HETATM   22  O   UNL     1      32.021  44.007  57.731  1.00  0.00    -0.361 OA
HETATM   23  H   UNL     1      31.714  44.380  58.573  1.00  0.00     0.217 HD
ENDBRANCH  19  22
ENDBRANCH  13  16
ENDBRANCH   7   8
ENDBRANCH   6   7
ENDBRANCH   3   6
BRANCH   2  24
HETATM   24  C   UNL     1      20.519  47.637  48.414  1.00  0.00     0.094 A 
HETATM   25  C   UNL     1      20.137  46.231  48.805  1.00  0.00     0.028 A 
HETATM   26  C   UNL     1      19.234  47.372  49.169  1.00  0.00     0.028 A 
ENDBRANCH   2  24
BRANCH   1  27
HETATM   27  C   UNL     1      20.222  50.752  49.076  1.00  0.00     0.040 A 
HETATM   28  C   UNL     1      19.453  50.922  47.875  1.00  0.00     0.006 A 
HETATM   29  C   UNL     1      19.520  50.394  46.566  1.00  0.00     0.014 A 
HETATM   30  C   UNL     1      18.438  51.839  48.157  1.00  0.00     0.043 A 
HETATM   31  C   UNL     1      18.584  50.793  45.604  1.00  0.00     0.001 A 
HETATM   32  C   UNL     1      17.582  51.704  45.925  1.00  0.00     0.002 A 
HETATM   33  C   UNL     1      17.489  52.244  47.210  1.00  0.00     0.030 A 
HETATM   34  N   UNL     1      18.587  52.216  49.469  1.00  0.00    -0.364 N 
HETATM   35  H   UNL     1      17.988  52.877  49.945  1.00  0.00     0.165 HD
HETATM   36  C   UNL     1      19.670  51.584  50.027  1.00  0.00     0.104 A 
ENDBRANCH   1  27
TORSDOF 7
ENDMDL
MODEL 4
REMARK VINA RESULT:      -9.6      1.307      1.863
REMARK  7 active torsions:
REMARK  status: ('A' for Active; 'I' for Inactive)
REMARK    1  A    between atoms: C_8  and  C_9 
REMARK    2  A    between atoms: N_10  and  C_11 
REMARK    3  A    between atoms: C_14  and  S_15 
REMARK    4  A    between atoms: S_15  and  C_16 
REMARK    5  A    between atoms: C_16  and  C_17 
REMARK       I    between atoms: C_17  and  N_18 
REMARK    6  A    between atoms: N_21  and  C_22 
REMARK    7  A    between atoms: C_25  and  O_26 
ROOT
HETATM    1  C   UNL     1      22.912  47.324  48.759  1.00  0.00     0.167 A 
HETATM    2  N   UNL     1      23.873  46.787  49.600  1.00  0.00    -0.302 N 
HETATM    3  C   UNL     1      23.783  45.424  49.443  1.00  0.00     0.192 A 
HETATM    4  N   UNL     1      22.872  45.141  48.541  1.00  0.00    -0.122 NA
HETATM    5  N   UNL     1      22.330  46.324  48.114  1.00  0.00    -0.128 NA
ENDROOT
BRANCH   3   6
HETATM    6  S   UNL     1      24.575  44.233  50.412  1.00  0.00    -0.081 SA
BRANCH   6   7
HETATM    7  C   UNL     1      26.197  44.185  49.594  1.00  0.00     0.185 C 
BRANCH   7   8
HETATM    8  C   UNL     1      27.096  43.088  50.159  1.00  0.00     0.229 C 
HETATM    9  N   UNL     1      27.678  43.343  51.406  1.00  0.00    -0.348 N 
HETATM   10  C   UNL     1      28.394  42.234  52.048  1.00  0.00     0.145 C 
HETATM   11  C   UNL     1      27.195  44.381  52.330  1.00  0.00     0.145 C 
HETATM   12  C   UNL     1      29.449  42.700  53.066  1.00  0.00     0.143 C 
HETATM   13  N   UNL     1      28.855  43.650  54.029  1.00  0.00    -0.378 N 
HETATM   14  C   UNL     1      28.255  44.825  53.358  1.00  0.00     0.143 C 
HETATM   15  O   UNL     1      27.328  42.037  49.556  1.00  0.00    -0.273 OA
BRANCH  13  16
HETATM   16  C   UNL     1      29.578  43.955  55.192  1.00  0.00     0.030 A 
HETATM   17  C   UNL     1      29.401  45.138  55.929  1.00  0.00     0.032 A 
HETATM   18  C   UNL     1      30.166  45.417  57.069  1.00  0.00     0.039 A 
HETATM   19  C   UNL     1      31.130  44.509  57.485  1.00  0.00     0.065 A 
HETATM   20  C   UNL     1      31.340  43.335  56.780  1.00  0.00     0.039 A 
HETATM   21  C   UNL     1      30.572  43.068  55.642  1.00  0.00     0.032 A 
BRANCH  19  22
HETATM   22  O   UNL     1      31.903  44.742  58.583  1.00  0.00    -0.361 OA
HETATM   23  H   UNL     1      31.576  44.192  59.313  1.00  0.00     0.217 HD
ENDBRANCH  19  22
ENDBRANCH  13  16
ENDBRANCH   7   8
ENDBRANCH   6   7
ENDBRANCH   3   6
BRANCH   2  24
HETATM   24  C   UNL     1      24.714  47.544  50.502  1.00  0.00     0.094 A 
HETATM   25  C   UNL     1      25.900  47.074  51.307  1.00  0.00     0.028 A 
HETATM   26  C   UNL     1      26.120  47.935  50.099  1.00  0.00     0.028 A 
ENDBRANCH   2  24
BRANCH   1  27
HETATM   27  C   UNL     1      22.534  48.753  48.500  1.00  0.00     0.040 A 
HETATM   28  C   UNL     1      21.297  49.374  48.885  1.00  0.00     0.006 A 
HETATM   29  C   UNL     1      20.125  48.936  49.541  1.00  0.00     0.014 A 
HETATM   30  C   UNL     1      21.351  50.707  48.469  1.00  0.00     0.043 A 
HETATM   31  C   UNL     1      19.069  49.831  49.756  1.00  0.00     0.001 A 
HETATM   32  C   UNL     1      19.165  51.153  49.334  1.00  0.00     0.002 A 
HETATM   33  C   UNL     1      20.310  51.617  48.682  1.00  0.00     0.030 A 
HETATM   34  N   UNL     1      22.565  50.887  47.851  1.00  0.00    -0.364 N 
HETATM   35  H   UNL     1      22.876  51.760  47.448  1.00  0.00     0.165 HD
HETATM   36  C   UNL     1      23.277  49.713  47.846  1.00  0.00     0.104 A 
ENDBRANCH   1  27
TORSDOF 7
ENDMDL
MODEL 5
REMARK VINA RESULT:      -9.6      2.935     11.585
REMARK  7 active torsions:
REMARK  status: ('A' for Active; 'I' for Inactive)
REMARK    1  A    between atoms: C_8  and  C_9 
REMARK    2  A    between atoms: N_10  and  C_11 
REMARK    3  A    between atoms: C_14  and  S_15 
REMARK    4  A    between atoms: S_15  and  C_16 
REMARK    5  A    between atoms: C_16  and  C_17 
REMARK       I    between atoms: C_17  and  N_18 
REMARK    6  A    between atoms: N_21  and  C_22 
REMARK    7  A    between atoms: C_25  and  O_26 
ROOT
HETATM    1  C   UNL     1      27.650  44.043  52.170  1.00  0.00     0.167 A 
HETATM    2  N   UNL     1      26.270  44.025  52.290  1.00  0.00    -0.302 N 
HETATM    3  C   UNL     1      25.788  44.514  51.100  1.00  0.00     0.192 A 
HETATM    4  N   UNL     1      26.788  44.769  50.288  1.00  0.00    -0.122 NA
HETATM    5  N   UNL     1      27.947  44.474  50.953  1.00  0.00    -0.128 NA
ENDROOT
BRANCH   3   6
HETATM    6  S   UNL     1      24.148  44.940  50.763  1.00  0.00    -0.081 SA
BRANCH   6   7
HETATM    7  C   UNL     1      24.383  45.968  49.284  1.00  0.00     0.185 C 
BRANCH   7   8
HETATM    8  C   UNL     1      24.343  47.460  49.606  1.00  0.00     0.229 C 
HETATM    9  N   UNL     1      23.219  48.162  49.155  1.00  0.00    -0.348 N 
HETATM   10  C   UNL     1      23.072  49.550  49.609  1.00  0.00     0.145 C 
HETATM   11  C   UNL     1      21.963  47.510  48.752  1.00  0.00     0.145 C 
HETATM   12  C   UNL     1      22.199  50.407  48.676  1.00  0.00     0.143 C 
HETATM   13  N   UNL     1      20.910  49.736  48.415  1.00  0.00    -0.378 N 
HETATM   14  C   UNL     1      21.087  48.386  47.833  1.00  0.00     0.143 C 
HETATM   15  O   UNL     1      25.250  48.039  50.208  1.00  0.00    -0.273 OA
BRANCH  13  16
HETATM   16  C   UNL     1      19.878  50.486  47.829  1.00  0.00     0.030 A 
HETATM   17  C   UNL     1      19.250  50.133  46.623  1.00  0.00     0.032 A 
HETATM   18  C   UNL     1      18.244  50.928  46.058  1.00  0.00     0.039 A 
HETATM   19  C   UNL     1      17.856  52.098  46.695  1.00  0.00     0.065 A 
HETATM   20  C   UNL     1      18.458  52.483  47.882  1.00  0.00     0.039 A 
HETATM   21  C   UNL     1      19.463  51.684  48.437  1.00  0.00     0.032 A 
BRANCH  19  22
HETATM   22  O   UNL     1      16.888  52.906  46.178  1.00  0.00    -0.361 OA
HETATM   23  H   UNL     1      16.062  52.748  46.664  1.00  0.00     0.217 HD
ENDBRANCH  19  22
ENDBRANCH  13  16
ENDBRANCH   7   8
ENDBRANCH   6   7
ENDBRANCH   3   6
BRANCH   2  24
HETATM   24  C   UNL     1      25.539  43.643  53.479  1.00  0.00     0.094 A 
HETATM   25  C   UNL     1      26.033  43.541  54.901  1.00  0.00     0.028 A 
HETATM   26  C   UNL     1      25.142  44.682  54.507  1.00  0.00     0.028 A 
ENDBRANCH   2  24
BRANCH   1  27
HETATM   27  C   UNL     1      28.719  43.632  53.141  1.00  0.00     0.040 A 
HETATM   28  C   UNL     1      29.129  44.378  54.298  1.00  0.00     0.006 A 
HETATM   29  C   UNL     1      28.753  45.614  54.871  1.00  0.00     0.014 A 
HETATM   30  C   UNL     1      30.133  43.644  54.934  1.00  0.00     0.043 A 
HETATM   31  C   UNL     1      29.383  46.062  56.038  1.00  0.00     0.001 A 
HETATM   32  C   UNL     1      30.374  45.299  56.646  1.00  0.00     0.002 A 
HETATM   33  C   UNL     1      30.768  44.072  56.106  1.00  0.00     0.030 A 
HETATM   34  N   UNL     1      30.331  42.505  54.192  1.00  0.00    -0.364 N 
HETATM   35  H   UNL     1      31.005  41.786  54.419  1.00  0.00     0.165 HD
HETATM   36  C   UNL     1      29.499  42.495  53.100  1.00  0.00     0.104 A 
ENDBRANCH   1  27
TORSDOF 7
ENDMDL
MODEL 6
REMARK VINA RESULT:      -9.6      2.749     11.498
REMARK  7 active torsions:
REMARK  status: ('A' for Active; 'I' for Inactive)
REMARK    1  A    between atoms: C_8  and  C_9 
REMARK    2  A    between atoms: N_10  and  C_11 
REMARK    3  A    between atoms: C_14  and  S_15 
REMARK    4  A    between atoms: S_15  and  C_16 
REMARK    5  A    between atoms: C_16  and  C_17 
REMARK       I    between atoms: C_17  and  N_18 
REMARK    6  A    between atoms: N_21  and  C_22 
REMARK    7  A    between atoms: C_25  and  O_26 
ROOT
HETATM    1  C   UNL     1      27.900  44.968  53.934  1.00  0.00     0.167 A 
HETATM    2  N   UNL     1      27.031  44.388  53.025  1.00  0.00    -0.302 N 
HETATM    3  C   UNL     1      26.123  45.368  52.704  1.00  0.00     0.192 A 
HETATM    4  N   UNL     1      26.433  46.482  53.327  1.00  0.00    -0.122 NA
HETATM    5  N   UNL     1      27.541  46.233  54.092  1.00  0.00    -0.128 NA
ENDROOT
BRANCH   3   6
HETATM    6  S   UNL     1      24.669  45.152  51.795  1.00  0.00    -0.081 SA
BRANCH   6   7
HETATM    7  C   UNL     1      25.242  45.673  50.151  1.00  0.00     0.185 C 
BRANCH   7   8
HETATM    8  C   UNL     1      24.178  45.461  49.075  1.00  0.00     0.229 C 
HETATM    9  N   UNL     1      23.315  46.537  48.836  1.00  0.00    -0.348 N 
HETATM   10  C   UNL     1      22.409  46.423  47.687  1.00  0.00     0.145 C 
HETATM   11  C   UNL     1      23.601  47.917  49.260  1.00  0.00     0.145 C 
HETATM   12  C   UNL     1      21.156  47.307  47.811  1.00  0.00     0.143 C 
HETATM   13  N   UNL     1      21.534  48.700  48.123  1.00  0.00    -0.378 N 
HETATM   14  C   UNL     1      22.339  48.798  49.361  1.00  0.00     0.143 C 
HETATM   15  O   UNL     1      24.055  44.402  48.457  1.00  0.00    -0.273 OA
BRANCH  13  16
HETATM   16  C   UNL     1      20.559  49.699  47.987  1.00  0.00     0.030 A 
HETATM   17  C   UNL     1      19.400  49.552  47.207  1.00  0.00     0.032 A 
HETATM   18  C   UNL     1      18.465  50.588  47.075  1.00  0.00     0.039 A 
HETATM   19  C   UNL     1      18.686  51.795  47.724  1.00  0.00     0.065 A 
HETATM   20  C   UNL     1      19.821  51.981  48.495  1.00  0.00     0.039 A 
HETATM   21  C   UNL     1      20.748  50.941  48.619  1.00  0.00     0.032 A 
BRANCH  19  22
HETATM   22  O   UNL     1      17.809  52.833  47.618  1.00  0.00    -0.361 OA
HETATM   23  H   UNL     1      17.707  53.242  48.492  1.00  0.00     0.217 HD
ENDBRANCH  19  22
ENDBRANCH  13  16
ENDBRANCH   7   8
ENDBRANCH   6   7
ENDBRANCH   3   6
BRANCH   2  24
HETATM   24  C   UNL     1      27.063  43.005  52.600  1.00  0.00     0.094 A 
HETATM   25  C   UNL     1      26.449  42.378  51.373  1.00  0.00     0.028 A 
HETATM   26  C   UNL     1      27.935  42.576  51.438  1.00  0.00     0.028 A 
ENDBRANCH   2  24
BRANCH   1  27
HETATM   27  C   UNL     1      29.093  44.395  54.643  1.00  0.00     0.040 A 
HETATM   28  C   UNL     1      29.590  44.820  55.922  1.00  0.00     0.006 A 
HETATM   29  C   UNL     1      29.214  45.810  56.857  1.00  0.00     0.014 A 
HETATM   30  C   UNL     1      30.699  44.026  56.224  1.00  0.00     0.043 A 
HETATM   31  C   UNL     1      29.946  45.967  58.041  1.00  0.00     0.001 A 
HETATM   32  C   UNL     1      31.041  45.151  58.309  1.00  0.00     0.002 A 
HETATM   33  C   UNL     1      31.438  44.163  57.405  1.00  0.00     0.030 A 
HETATM   34  N   UNL     1      30.874  43.161  55.172  1.00  0.00    -0.364 N 
HETATM   35  H   UNL     1      31.608  42.468  55.119  1.00  0.00     0.165 HD
HETATM   36  C   UNL     1      29.926  43.386  54.205  1.00  0.00     0.104 A 
ENDBRANCH   1  27
TORSDOF 7
ENDMDL
MODEL 7
REMARK VINA RESULT:      -9.5      2.805     10.725
REMARK  7 active torsions:
REMARK  status: ('A' for Active; 'I' for Inactive)
REMARK    1  A    between atoms: C_8  and  C_9 
REMARK    2  A    between atoms: N_10  and  C_11 
REMARK    3  A    between atoms: C_14  and  S_15 
REMARK    4  A    between atoms: S_15  and  C_16 
REMARK    5  A    between atoms: C_16  and  C_17 
REMARK       I    between atoms: C_17  and  N_18 
REMARK    6  A    between atoms: N_21  and  C_22 
REMARK    7  A    between atoms: C_25  and  O_26 
ROOT
HETATM    1  C   UNL     1      28.430  43.853  53.474  1.00  0.00     0.167 A 
HETATM    2  N   UNL     1      27.168  43.496  53.028  1.00  0.00    -0.302 N 
HETATM    3  C   UNL     1      27.375  42.701  51.927  1.00  0.00     0.192 A 
HETATM    4  N   UNL     1      28.663  42.538  51.733  1.00  0.00    -0.122 NA
HETATM    5  N   UNL     1      29.320  43.254  52.697  1.00  0.00    -0.128 NA
ENDROOT
BRANCH   3   6
HETATM    6  S   UNL     1      26.164  42.156  50.821  1.00  0.00    -0.081 SA
BRANCH   6   7
HETATM    7  C   UNL     1      26.090  43.585  49.701  1.00  0.00     0.185 C 
BRANCH   7   8
HETATM    8  C   UNL     1      24.772  43.648  48.932  1.00  0.00     0.229 C 
HETATM    9  N   UNL     1      24.135  44.894  48.894  1.00  0.00    -0.348 N 
HETATM   10  C   UNL     1      22.968  45.020  48.013  1.00  0.00     0.145 C 
HETATM   11  C   UNL     1      24.814  46.162  49.202  1.00  0.00     0.145 C 
HETATM   12  C   UNL     1      22.012  46.152  48.428  1.00  0.00     0.143 C 
HETATM   13  N   UNL     1      22.754  47.417  48.603  1.00  0.00    -0.378 N 
HETATM   14  C   UNL     1      23.844  47.294  49.598  1.00  0.00     0.143 C 
HETATM   15  O   UNL     1      24.268  42.663  48.388  1.00  0.00    -0.273 OA
BRANCH  13  16
HETATM   16  C   UNL     1      22.020  48.609  48.695  1.00  0.00     0.030 A 
HETATM   17  C   UNL     1      22.556  49.875  48.405  1.00  0.00     0.032 A 
HETATM   18  C   UNL     1      21.795  51.045  48.539  1.00  0.00     0.039 A 
HETATM   19  C   UNL     1      20.480  50.960  48.976  1.00  0.00     0.065 A 
HETATM   20  C   UNL     1      19.920  49.730  49.279  1.00  0.00     0.039 A 
HETATM   21  C   UNL     1      20.688  48.569  49.143  1.00  0.00     0.032 A 
BRANCH  19  22
HETATM   22  O   UNL     1      19.706  52.070  49.129  1.00  0.00    -0.361 OA
HETATM   23  H   UNL     1      19.611  52.503  48.265  1.00  0.00     0.217 HD
ENDBRANCH  19  22
ENDBRANCH  13  16
ENDBRANCH   7   8
ENDBRANCH   6   7
ENDBRANCH   3   6
BRANCH   2  24
HETATM   24  C   UNL     1      25.919  43.962  53.591  1.00  0.00     0.094 A 
HETATM   25  C   UNL     1      25.605  45.297  54.219  1.00  0.00     0.028 A 
HETATM   26  C   UNL     1      25.073  44.979  52.853  1.00  0.00     0.028 A 
ENDBRANCH   2  24
BRANCH   1  27
HETATM   27  C   UNL     1      28.848  44.711  54.633  1.00  0.00     0.040 A 
HETATM   28  C   UNL     1      29.813  44.351  55.635  1.00  0.00     0.006 A 
HETATM   29  C   UNL     1      30.608  43.211  55.887  1.00  0.00     0.014 A 
HETATM   30  C   UNL     1      29.917  45.427  56.519  1.00  0.00     0.043 A 
HETATM   31  C   UNL     1      31.466  43.189  56.994  1.00  0.00     0.001 A 
HETATM   32  C   UNL     1      31.547  44.285  57.848  1.00  0.00     0.002 A 
HETATM   33  C   UNL     1      30.775  45.427  57.626  1.00  0.00     0.030 A 
HETATM   34  N   UNL     1      29.049  46.396  56.080  1.00  0.00    -0.364 N 
HETATM   35  H   UNL     1      28.913  47.289  56.533  1.00  0.00     0.165 HD
HETATM   36  C   UNL     1      28.385  45.969  54.957  1.00  0.00     0.104 A 
ENDBRANCH   1  27
TORSDOF 7
ENDMDL
MODEL 8
REMARK VINA RESULT:      -9.5      4.569      8.297
REMARK  7 active torsions:
REMARK  status: ('A' for Active; 'I' for Inactive)
REMARK    1  A    between atoms: C_8  and  C_9 
REMARK    2  A    between atoms: N_10  and  C_11 
REMARK    3  A    between atoms: C_14  and  S_15 
REMARK    4  A    between atoms: S_15  and  C_16 
REMARK    5  A    between atoms: C_16  and  C_17 
REMARK       I    between atoms: C_17  and  N_18 
REMARK    6  A    between atoms: N_21  and  C_22 
REMARK    7  A    between atoms: C_25  and  O_26 
ROOT
HETATM    1  C   UNL     1      25.390  44.776  51.992  1.00  0.00     0.167 A 
HETATM    2  N   UNL     1      25.257  45.483  50.808  1.00  0.00    -0.302 N 
HETATM    3  C   UNL     1      24.097  45.025  50.232  1.00  0.00     0.192 A 
HETATM    4  N   UNL     1      23.529  44.141  51.019  1.00  0.00    -0.122 NA
HETATM    5  N   UNL     1      24.333  43.987  52.116  1.00  0.00    -0.128 NA
ENDROOT
BRANCH   3   6
HETATM    6  S   UNL     1      23.546  45.377  48.632  1.00  0.00    -0.081 SA
BRANCH   6   7
HETATM    7  C   UNL     1      22.740  43.801  48.220  1.00  0.00     0.185 C 
BRANCH   7   8
HETATM    8  C   UNL     1      23.573  42.962  47.253  1.00  0.00     0.229 C 
HETATM    9  N   UNL     1      24.442  42.029  47.831  1.00  0.00    -0.348 N 
HETATM   10  C   UNL     1      25.113  41.091  46.923  1.00  0.00     0.145 C 
HETATM   11  C   UNL     1      24.324  41.563  49.222  1.00  0.00     0.145 C 
HETATM   12  C   UNL     1      26.419  40.517  47.498  1.00  0.00     0.143 C 
HETATM   13  N   UNL     1      26.191  39.965  48.849  1.00  0.00    -0.378 N 
HETATM   14  C   UNL     1      25.635  40.972  49.780  1.00  0.00     0.143 C 
HETATM   15  O   UNL     1      23.515  43.099  46.029  1.00  0.00    -0.273 OA
BRANCH  13  16
HETATM   16  C   UNL     1      27.185  39.147  49.409  1.00  0.00     0.030 A 
HETATM   17  C   UNL     1      28.361  39.645  49.994  1.00  0.00     0.032 A 
HETATM   18  C   UNL     1      29.342  38.790  50.514  1.00  0.00     0.039 A 
HETATM   19  C   UNL     1      29.158  37.416  50.449  1.00  0.00     0.065 A 
HETATM   20  C   UNL     1      28.015  36.888  49.873  1.00  0.00     0.039 A 
HETATM   21  C   UNL     1      27.042  37.750  49.355  1.00  0.00     0.032 A 
BRANCH  19  22
HETATM   22  O   UNL     1      30.088  36.547  50.935  1.00  0.00    -0.361 OA
HETATM   23  H   UNL     1      29.706  36.078  51.694  1.00  0.00     0.217 HD
ENDBRANCH  19  22
ENDBRANCH  13  16
ENDBRANCH   7   8
ENDBRANCH   6   7
ENDBRANCH   3   6
BRANCH   2  24
HETATM   24  C   UNL     1      26.217  46.433  50.288  1.00  0.00     0.094 A 
HETATM   25  C   UNL     1      25.966  47.778  49.653  1.00  0.00     0.028 A 
HETATM   26  C   UNL     1      26.526  47.708  51.043  1.00  0.00     0.028 A 
ENDBRANCH   2  24
BRANCH   1  27
HETATM   27  C   UNL     1      26.456  44.835  53.048  1.00  0.00     0.040 A 
HETATM   28  C   UNL     1      27.670  44.068  53.053  1.00  0.00     0.006 A 
HETATM   29  C   UNL     1      28.236  43.093  52.201  1.00  0.00     0.014 A 
HETATM   30  C   UNL     1      28.387  44.429  54.197  1.00  0.00     0.043 A 
HETATM   31  C   UNL     1      29.476  42.524  52.518  1.00  0.00     0.001 A 
HETATM   32  C   UNL     1      30.163  42.915  53.663  1.00  0.00     0.002 A 
HETATM   33  C   UNL     1      29.631  43.877  54.525  1.00  0.00     0.030 A 
HETATM   34  N   UNL     1      27.638  45.368  54.862  1.00  0.00    -0.364 N 
HETATM   35  H   UNL     1      27.912  45.806  55.730  1.00  0.00     0.165 HD
HETATM   36  C   UNL     1      26.464  45.606  54.191  1.00  0.00     0.104 A 
ENDBRANCH   1  27
TORSDOF 7
ENDMDL
MODEL 9
REMARK VINA RESULT:      -9.3      3.035     11.142
REMARK  7 active torsions:
REMARK  status: ('A' for Active; 'I' for Inactive)
REMARK    1  A    between atoms: C_8  and  C_9 
REMARK    2  A    between atoms: N_10  and  C_11 
REMARK    3  A    between atoms: C_14  and  S_15 
REMARK    4  A    between atoms: S_15  and  C_16 
REMARK    5  A    between atoms: C_16  and  C_17 
REMARK       I    between atoms: C_17  and  N_18 
REMARK    6  A    between atoms: N_21  and  C_22 
REMARK    7  A    between atoms: C_25  and  O_26 
ROOT
HETATM    1  C   UNL     1      26.904  44.567  52.805  1.00  0.00     0.167 A 
HETATM    2  N   UNL     1      26.386  45.138  51.654  1.00  0.00    -0.302 N 
HETATM    3  C   UNL     1      25.891  44.092  50.913  1.00  0.00     0.192 A 
HETATM    4  N   UNL     1      26.044  42.968  51.574  1.00  0.00    -0.122 NA
HETATM    5  N   UNL     1      26.675  43.264  52.753  1.00  0.00    -0.128 NA
ENDROOT
BRANCH   3   6
HETATM    6  S   UNL     1      25.336  44.174  49.278  1.00  0.00    -0.081 SA
BRANCH   6   7
HETATM    7  C   UNL     1      23.587  44.579  49.556  1.00  0.00     0.185 C 
BRANCH   7   8
HETATM    8  C   UNL     1      22.816  44.734  48.247  1.00  0.00     0.229 C 
HETATM    9  N   UNL     1      22.135  45.944  48.066  1.00  0.00    -0.348 N 
HETATM   10  C   UNL     1      21.542  46.186  46.745  1.00  0.00     0.145 C 
HETATM   11  C   UNL     1      22.420  47.159  48.846  1.00  0.00     0.145 C 
HETATM   12  C   UNL     1      20.378  47.191  46.776  1.00  0.00     0.143 C 
HETATM   13  N   UNL     1      20.782  48.429  47.473  1.00  0.00    -0.378 N 
HETATM   14  C   UNL     1      21.253  48.167  48.853  1.00  0.00     0.143 C 
HETATM   15  O   UNL     1      22.764  43.846  47.393  1.00  0.00    -0.273 OA
BRANCH  13  16
HETATM   16  C   UNL     1      19.960  49.559  47.348  1.00  0.00     0.030 A 
HETATM   17  C   UNL     1      20.033  50.670  48.205  1.00  0.00     0.032 A 
HETATM   18  C   UNL     1      19.171  51.767  48.062  1.00  0.00     0.039 A 
HETATM   19  C   UNL     1      18.216  51.760  47.056  1.00  0.00     0.065 A 
HETATM   20  C   UNL     1      18.109  50.679  46.197  1.00  0.00     0.039 A 
HETATM   21  C   UNL     1      18.972  49.589  46.349  1.00  0.00     0.032 A 
BRANCH  19  22
HETATM   22  O   UNL     1      17.352  52.800  46.884  1.00  0.00    -0.361 OA
HETATM   23  H   UNL     1      17.695  53.570  47.365  1.00  0.00     0.217 HD
ENDBRANCH  19  22
ENDBRANCH  13  16
ENDBRANCH   7   8
ENDBRANCH   6   7
ENDBRANCH   3   6
BRANCH   2  24
HETATM   24  C   UNL     1      26.457  46.542  51.310  1.00  0.00     0.094 A 
HETATM   25  C   UNL     1      25.975  47.234  50.059  1.00  0.00     0.028 A 
HETATM   26  C   UNL     1      25.214  47.406  51.341  1.00  0.00     0.028 A 
ENDBRANCH   2  24
BRANCH   1  27
HETATM   27  C   UNL     1      27.580  45.201  53.987  1.00  0.00     0.040 A 
HETATM   28  C   UNL     1      28.759  44.705  54.641  1.00  0.00     0.006 A 
HETATM   29  C   UNL     1      29.600  43.584  54.462  1.00  0.00     0.014 A 
HETATM   30  C   UNL     1      29.063  45.589  55.679  1.00  0.00     0.043 A 
HETATM   31  C   UNL     1      30.697  43.392  55.311  1.00  0.00     0.001 A 
HETATM   32  C   UNL     1      30.972  44.299  56.329  1.00  0.00     0.002 A 
HETATM   33  C   UNL     1      30.160  45.417  56.532  1.00  0.00     0.030 A 
HETATM   34  N   UNL     1      28.107  46.575  55.662  1.00  0.00    -0.364 N 
HETATM   35  H   UNL     1      28.077  47.352  56.308  1.00  0.00     0.165 HD
HETATM   36  C   UNL     1      27.198  46.341  54.661  1.00  0.00     0.104 A 
ENDBRANCH   1  27
TORSDOF 7
ENDMDL
MODEL 10
REMARK VINA RESULT:      -9.2      1.534      2.367
REMARK  7 active torsions:
REMARK  status: ('A' for Active; 'I' for Inactive)
REMARK    1  A    between atoms: C_8  and  C_9 
REMARK    2  A    between atoms: N_10  and  C_11 
REMARK    3  A    between atoms: C_14  and  S_15 
REMARK    4  A    between atoms: S_15  and  C_16 
REMARK    5  A    between atoms: C_16  and  C_17 
REMARK       I    between atoms: C_17  and  N_18 
REMARK    6  A    between atoms: N_21  and  C_22 
REMARK    7  A    between atoms: C_25  and  O_26 
ROOT
HETATM    1  C   UNL     1      21.138  48.476  47.815  1.00  0.00     0.167 A 
HETATM    2  N   UNL     1      21.162  47.248  48.456  1.00  0.00    -0.302 N 
HETATM    3  C   UNL     1      22.491  46.922  48.582  1.00  0.00     0.192 A 
HETATM    4  N   UNL     1      23.234  47.892  48.100  1.00  0.00    -0.122 NA
HETATM    5  N   UNL     1      22.391  48.860  47.624  1.00  0.00    -0.128 NA
ENDROOT
BRANCH   3   6
HETATM    6  S   UNL     1      23.122  45.397  49.093  1.00  0.00    -0.081 SA
BRANCH   6   7
HETATM    7  C   UNL     1      24.479  45.957  50.164  1.00  0.00     0.185 C 
BRANCH   7   8
HETATM    8  C   UNL     1      25.563  44.892  50.326  1.00  0.00     0.229 C 
HETATM    9  N   UNL     1      26.308  44.942  51.510  1.00  0.00    -0.348 N 
HETATM   10  C   UNL     1      27.225  43.825  51.768  1.00  0.00     0.145 C 
HETATM   11  C   UNL     1      25.877  45.675  52.711  1.00  0.00     0.145 C 
HETATM   12  C   UNL     1      28.377  44.191  52.719  1.00  0.00     0.143 C 
HETATM   13  N   UNL     1      27.853  44.816  53.950  1.00  0.00    -0.378 N 
HETATM   14  C   UNL     1      27.038  46.019  53.665  1.00  0.00     0.143 C 
HETATM   15  O   UNL     1      25.799  44.042  49.465  1.00  0.00    -0.273 OA
BRANCH  13  16
HETATM   16  C   UNL     1      28.718  44.951  55.047  1.00  0.00     0.030 A 
HETATM   17  C   UNL     1      29.887  44.190  55.212  1.00  0.00     0.032 A 
HETATM   18  C   UNL     1      30.707  44.336  56.338  1.00  0.00     0.039 A 
HETATM   19  C   UNL     1      30.360  45.249  57.324  1.00  0.00     0.065 A 
HETATM   20  C   UNL     1      29.211  46.012  57.201  1.00  0.00     0.039 A 
HETATM   21  C   UNL     1      28.398  45.857  56.073  1.00  0.00     0.032 A 
BRANCH  19  22
HETATM   22  O   UNL     1      31.123  45.419  58.440  1.00  0.00    -0.361 OA
HETATM   23  H   UNL     1      31.845  46.034  58.231  1.00  0.00     0.217 HD
ENDBRANCH  19  22
ENDBRANCH  13  16
ENDBRANCH   7   8
ENDBRANCH   6   7
ENDBRANCH   3   6
BRANCH   2  24
HETATM   24  C   UNL     1      19.997  46.471  48.820  1.00  0.00     0.094 A 
HETATM   25  C   UNL     1      18.576  46.613  48.334  1.00  0.00     0.028 A 
HETATM   26  C   UNL     1      19.411  45.463  47.854  1.00  0.00     0.028 A 
ENDBRANCH   2  24
BRANCH   1  27
HETATM   27  C   UNL     1      19.979  49.336  47.400  1.00  0.00     0.040 A 
HETATM   28  C   UNL     1      19.408  50.400  48.178  1.00  0.00     0.006 A 
HETATM   29  C   UNL     1      19.666  50.953  49.452  1.00  0.00     0.014 A 
HETATM   30  C   UNL     1      18.365  50.950  47.429  1.00  0.00     0.043 A 
HETATM   31  C   UNL     1      18.888  52.016  49.923  1.00  0.00     0.001 A 
HETATM   32  C   UNL     1      17.861  52.542  49.144  1.00  0.00     0.002 A 
HETATM   33  C   UNL     1      17.581  52.019  47.880  1.00  0.00     0.030 A 
HETATM   34  N   UNL     1      18.299  50.247  46.251  1.00  0.00    -0.364 N 
HETATM   35  H   UNL     1      17.631  50.428  45.515  1.00  0.00     0.165 HD
HETATM   36  C   UNL     1      19.253  49.260  46.231  1.00  0.00     0.104 A 
ENDBRANCH   1  27
TORSDOF 7
ENDMDL
