MODEL 1
REMARK VINA RESULT:      -8.7      0.000      0.000
REMARK  6 active torsions:
REMARK  status: ('A' for Active; 'I' for Inactive)
REMARK    1  A    between atoms: C_8  and  N_9 
REMARK       I    between atoms: N_9  and  C_10 
REMARK    2  A    between atoms: C_10  and  C_11 
REMARK    3  A    between atoms: C_11  and  N_12 
REMARK    4  A    between atoms: N_12  and  C_15 
REMARK    5  A    between atoms: C_15  and  C_16 
REMARK    6  A    between atoms: C_16  and  C_17 
ROOT
HETATM    1  N   UNL     1      26.465  45.687  51.748  1.00  0.00    -0.062 N 
HETATM    2  H   UNL     1      27.053  45.954  50.945  1.00  0.00     0.278 HD
HETATM    3  H   UNL     1      26.444  46.512  52.367  1.00  0.00     0.278 HD
ENDROOT
BRANCH   1   4
HETATM    4  C   UNL     1      25.024  45.525  51.327  1.00  0.00     0.335 C 
BRANCH   4   5
HETATM    5  C   UNL     1      24.698  46.364  50.091  1.00  0.00     0.248 C 
HETATM    6  N   UNL     1      25.108  47.674  50.178  1.00  0.00    -0.322 N 
HETATM    7  H   UNL     1      25.483  48.023  51.054  1.00  0.00     0.169 HD
HETATM    8  O   UNL     1      24.146  45.807  49.146  1.00  0.00    -0.271 OA
BRANCH   6   9
HETATM    9  C   UNL     1      25.045  48.633  49.175  1.00  0.00     0.085 A 
HETATM   10  C   UNL     1      26.189  49.257  48.708  1.00  0.00     0.052 A 
HETATM   11  C   UNL     1      27.623  49.140  49.066  1.00  0.00     0.072 C 
HETATM   12  N   UNL     1      25.774  50.122  47.734  1.00  0.00    -0.280 N 
HETATM   13  H   UNL     1      26.334  50.755  47.170  1.00  0.00     0.189 HD
HETATM   14  N   UNL     1      24.458  50.095  47.525  1.00  0.00    -0.177 NA
HETATM   15  C   UNL     1      23.988  49.197  48.401  1.00  0.00     0.079 A 
HETATM   16  C   UNL     1      22.526  48.948  48.404  1.00  0.00     0.075 C 
ENDBRANCH   6   9
ENDBRANCH   4   5
ENDBRANCH   1   4
BRANCH   1  17
HETATM   17  C   UNL     1      27.140  44.571  52.545  1.00  0.00     0.194 C 
HETATM   18  C   UNL     1      26.502  43.268  52.039  1.00  0.00     0.041 C 
BRANCH  17  19
HETATM   19  C   UNL     1      27.077  44.796  54.113  1.00  0.00     0.007 C 
HETATM   20  C   UNL     1      26.566  46.227  54.444  1.00  0.00     0.022 C 
HETATM   21  C   UNL     1      25.968  43.880  54.708  1.00  0.00     0.022 C 
BRANCH  19  22
HETATM   22  C   UNL     1      28.453  44.561  54.772  1.00  0.00    -0.048 A 
HETATM   23  C   UNL     1      29.000  45.509  55.659  1.00  0.00     0.008 A 
HETATM   24  C   UNL     1      30.262  45.329  56.234  1.00  0.00     0.001 A 
HETATM   25  C   UNL     1      31.011  44.200  55.935  1.00  0.00     0.000 A 
HETATM   26  C   UNL     1      30.495  43.244  55.069  1.00  0.00     0.001 A 
HETATM   27  C   UNL     1      29.231  43.420  54.498  1.00  0.00     0.008 A 
ENDBRANCH  19  22
ENDBRANCH  17  19
ENDBRANCH   1  17
TORSDOF 6
ENDMDL
MODEL 2
REMARK VINA RESULT:      -8.4      0.689      2.124
REMARK  6 active torsions:
REMARK  status: ('A' for Active; 'I' for Inactive)
REMARK    1  A    between atoms: C_8  and  N_9 
REMARK       I    between atoms: N_9  and  C_10 
REMARK    2  A    between atoms: C_10  and  C_11 
REMARK    3  A    between atoms: C_11  and  N_12 
REMARK    4  A    between atoms: N_12  and  C_15 
REMARK    5  A    between atoms: C_15  and  C_16 
REMARK    6  A    between atoms: C_16  and  C_17 
ROOT
HETATM    1  N   UNL     1      26.070  46.024  51.798  1.00  0.00    -0.062 N 
HETATM    2  H   UNL     1      26.609  46.463  51.038  1.00  0.00     0.278 HD
HETATM    3  H   UNL     1      25.951  46.756  52.516  1.00  0.00     0.278 HD
ENDROOT
BRANCH   1   4
HETATM    4  C   UNL     1      24.657  45.731  51.355  1.00  0.00     0.335 C 
BRANCH   4   5
HETATM    5  C   UNL     1      24.319  46.435  50.041  1.00  0.00     0.248 C 
HETATM    6  N   UNL     1      24.147  47.795  50.161  1.00  0.00    -0.322 N 
HETATM    7  H   UNL     1      24.142  48.218  51.082  1.00  0.00     0.169 HD
HETATM    8  O   UNL     1      24.265  45.754  49.020  1.00  0.00    -0.271 OA
BRANCH   6   9
HETATM    9  C   UNL     1      23.943  48.701  49.128  1.00  0.00     0.085 A 
HETATM   10  C   UNL     1      22.672  48.958  48.643  1.00  0.00     0.052 A 
HETATM   11  C   UNL     1      21.329  48.438  48.995  1.00  0.00     0.072 C 
HETATM   12  N   UNL     1      22.830  49.889  47.653  1.00  0.00    -0.280 N 
HETATM   13  H   UNL     1      22.117  50.315  47.067  1.00  0.00     0.189 HD
HETATM   14  N   UNL     1      24.096  50.263  47.471  1.00  0.00    -0.177 NA
HETATM   15  C   UNL     1      24.798  49.543  48.357  1.00  0.00     0.079 A 
HETATM   16  C   UNL     1      26.267  49.747  48.390  1.00  0.00     0.075 C 
ENDBRANCH   6   9
ENDBRANCH   4   5
ENDBRANCH   1   4
BRANCH   1  17
HETATM   17  C   UNL     1      26.893  44.914  52.452  1.00  0.00     0.194 C 
HETATM   18  C   UNL     1      26.354  43.605  51.856  1.00  0.00     0.041 C 
BRANCH  17  19
HETATM   19  C   UNL     1      26.898  44.990  54.036  1.00  0.00     0.007 C 
HETATM   20  C   UNL     1      26.450  46.398  54.521  1.00  0.00     0.022 C 
HETATM   21  C   UNL     1      25.783  44.055  54.588  1.00  0.00     0.022 C 
BRANCH  19  22
HETATM   22  C   UNL     1      28.290  44.651  54.612  1.00  0.00    -0.048 A 
HETATM   23  C   UNL     1      28.940  43.449  54.268  1.00  0.00     0.008 A 
HETATM   24  C   UNL     1      30.183  43.109  54.811  1.00  0.00     0.001 A 
HETATM   25  C   UNL     1      30.807  43.958  55.714  1.00  0.00     0.000 A 
HETATM   26  C   UNL     1      30.193  45.153  56.067  1.00  0.00     0.001 A 
HETATM   27  C   UNL     1      28.952  45.498  55.521  1.00  0.00     0.008 A 
ENDBRANCH  19  22
ENDBRANCH  17  19
ENDBRANCH   1  17
TORSDOF 6
ENDMDL
MODEL 3
REMARK VINA RESULT:      -7.8      2.735      7.825
REMARK  6 active torsions:
REMARK  status: ('A' for Active; 'I' for Inactive)
REMARK    1  A    between atoms: C_8  and  N_9 
REMARK       I    between atoms: N_9  and  C_10 
REMARK    2  A    between atoms: C_10  and  C_11 
REMARK    3  A    between atoms: C_11  and  N_12 
REMARK    4  A    between atoms: N_12  and  C_15 
REMARK    5  A    between atoms: C_15  and  C_16 
REMARK    6  A    between atoms: C_16  and  C_17 
ROOT
HETATM    1  N   UNL     1      26.217  47.080  52.534  1.00  0.00    -0.062 N 
HETATM    2  H   UNL     1      26.271  48.057  52.212  1.00  0.00     0.278 HD
HETATM    3  H   UNL     1      27.137  46.663  52.322  1.00  0.00     0.278 HD
ENDROOT
BRANCH   1   4
HETATM    4  C   UNL     1      26.139  47.016  54.040  1.00  0.00     0.335 C 
BRANCH   4   5
HETATM    5  C   UNL     1      27.503  46.722  54.665  1.00  0.00     0.248 C 
HETATM    6  N   UNL     1      27.805  45.384  54.750  1.00  0.00    -0.322 N 
HETATM    7  H   UNL     1      27.099  44.696  54.512  1.00  0.00     0.169 HD
HETATM    8  O   UNL     1      28.203  47.677  54.995  1.00  0.00    -0.271 OA
BRANCH   6   9
HETATM    9  C   UNL     1      29.008  44.828  55.168  1.00  0.00     0.085 A 
HETATM   10  C   UNL     1      29.641  43.848  54.423  1.00  0.00     0.052 A 
HETATM   11  C   UNL     1      29.304  43.169  53.149  1.00  0.00     0.072 C 
HETATM   12  N   UNL     1      30.784  43.536  55.107  1.00  0.00    -0.280 N 
HETATM   13  H   UNL     1      31.498  42.855  54.867  1.00  0.00     0.189 HD
HETATM   14  N   UNL     1      30.946  44.246  56.223  1.00  0.00    -0.177 NA
HETATM   15  C   UNL     1      29.868  45.038  56.287  1.00  0.00     0.079 A 
HETATM   16  C   UNL     1      29.766  45.960  57.445  1.00  0.00     0.075 C 
ENDBRANCH   6   9
ENDBRANCH   4   5
ENDBRANCH   1   4
BRANCH   1  17
HETATM   17  C   UNL     1      25.194  46.308  51.700  1.00  0.00     0.194 C 
HETATM   18  C   UNL     1      25.021  44.961  52.417  1.00  0.00     0.041 C 
BRANCH  17  19
HETATM   19  C   UNL     1      25.580  46.218  50.164  1.00  0.00     0.007 C 
HETATM   20  C   UNL     1      26.795  45.271  49.957  1.00  0.00     0.022 C 
HETATM   21  C   UNL     1      24.433  45.494  49.400  1.00  0.00     0.022 C 
BRANCH  19  22
HETATM   22  C   UNL     1      25.890  47.612  49.578  1.00  0.00    -0.048 A 
HETATM   23  C   UNL     1      24.851  48.473  49.175  1.00  0.00     0.008 A 
HETATM   24  C   UNL     1      25.116  49.723  48.606  1.00  0.00     0.001 A 
HETATM   25  C   UNL     1      26.426  50.144  48.423  1.00  0.00     0.000 A 
HETATM   26  C   UNL     1      27.472  49.319  48.817  1.00  0.00     0.001 A 
HETATM   27  C   UNL     1      27.208  48.070  49.391  1.00  0.00     0.008 A 
ENDBRANCH  19  22
ENDBRANCH  17  19
ENDBRANCH   1  17
TORSDOF 6
ENDMDL
MODEL 4
REMARK VINA RESULT:      -7.7      2.306      3.787
REMARK  6 active torsions:
REMARK  status: ('A' for Active; 'I' for Inactive)
REMARK    1  A    between atoms: C_8  and  N_9 
REMARK       I    between atoms: N_9  and  C_10 
REMARK    2  A    between atoms: C_10  and  C_11 
REMARK    3  A    between atoms: C_11  and  N_12 
REMARK    4  A    between atoms: N_12  and  C_15 
REMARK    5  A    between atoms: C_15  and  C_16 
REMARK    6  A    between atoms: C_16  and  C_17 
ROOT
HETATM    1  N   UNL     1      24.105  46.943  50.790  1.00  0.00    -0.062 N 
HETATM    2  H   UNL     1      23.543  47.749  51.099  1.00  0.00     0.278 HD
HETATM    3  H   UNL     1      23.684  46.117  51.244  1.00  0.00     0.278 HD
ENDROOT
BRANCH   1   4
HETATM    4  C   UNL     1      23.900  46.678  49.318  1.00  0.00     0.335 C 
BRANCH   4   5
HETATM    5  C   UNL     1      22.794  47.558  48.734  1.00  0.00     0.248 C 
HETATM    6  N   UNL     1      22.296  48.491  49.613  1.00  0.00    -0.322 N 
HETATM    7  H   UNL     1      22.592  48.472  50.582  1.00  0.00     0.169 HD
HETATM    8  O   UNL     1      22.480  47.383  47.559  1.00  0.00    -0.271 OA
BRANCH   6   9
HETATM    9  C   UNL     1      21.371  49.488  49.330  1.00  0.00     0.085 A 
HETATM   10  C   UNL     1      21.764  50.689  48.766  1.00  0.00     0.052 A 
HETATM   11  C   UNL     1      23.080  51.230  48.351  1.00  0.00     0.072 C 
HETATM   12  N   UNL     1      20.621  51.425  48.616  1.00  0.00    -0.280 N 
HETATM   13  H   UNL     1      20.518  52.363  48.239  1.00  0.00     0.189 HD
HETATM   14  N   UNL     1      19.522  50.790  49.023  1.00  0.00    -0.177 NA
HETATM   15  C   UNL     1      19.956  49.605  49.472  1.00  0.00     0.079 A 
HETATM   16  C   UNL     1      18.940  48.661  50.001  1.00  0.00     0.075 C 
ENDBRANCH   6   9
ENDBRANCH   4   5
ENDBRANCH   1   4
BRANCH   1  17
HETATM   17  C   UNL     1      25.528  47.054  51.338  1.00  0.00     0.194 C 
HETATM   18  C   UNL     1      26.375  47.566  50.163  1.00  0.00     0.041 C 
BRANCH  17  19
HETATM   19  C   UNL     1      26.043  45.716  52.016  1.00  0.00     0.007 C 
HETATM   20  C   UNL     1      24.850  44.777  52.356  1.00  0.00     0.022 C 
HETATM   21  C   UNL     1      26.849  44.897  50.966  1.00  0.00     0.022 C 
BRANCH  19  22
HETATM   22  C   UNL     1      26.862  46.010  53.291  1.00  0.00    -0.048 A 
HETATM   23  C   UNL     1      27.668  45.014  53.876  1.00  0.00     0.008 A 
HETATM   24  C   UNL     1      28.386  45.252  55.053  1.00  0.00     0.001 A 
HETATM   25  C   UNL     1      28.315  46.490  55.676  1.00  0.00     0.000 A 
HETATM   26  C   UNL     1      27.533  47.494  55.118  1.00  0.00     0.001 A 
HETATM   27  C   UNL     1      26.819  47.259  53.939  1.00  0.00     0.008 A 
ENDBRANCH  19  22
ENDBRANCH  17  19
ENDBRANCH   1  17
TORSDOF 6
ENDMDL
MODEL 5
REMARK VINA RESULT:      -7.7      2.209      2.815
REMARK  6 active torsions:
REMARK  status: ('A' for Active; 'I' for Inactive)
REMARK    1  A    between atoms: C_8  and  N_9 
REMARK       I    between atoms: N_9  and  C_10 
REMARK    2  A    between atoms: C_10  and  C_11 
REMARK    3  A    between atoms: C_11  and  N_12 
REMARK    4  A    between atoms: N_12  and  C_15 
REMARK    5  A    between atoms: C_15  and  C_16 
REMARK    6  A    between atoms: C_16  and  C_17 
ROOT
HETATM    1  N   UNL     1      27.573  43.312  51.290  1.00  0.00    -0.062 N 
HETATM    2  H   UNL     1      28.283  43.371  50.546  1.00  0.00     0.278 HD
HETATM    3  H   UNL     1      27.210  44.270  51.409  1.00  0.00     0.278 HD
ENDROOT
BRANCH   1   4
HETATM    4  C   UNL     1      26.367  42.534  50.819  1.00  0.00     0.335 C 
BRANCH   4   5
HETATM    5  C   UNL     1      25.119  43.414  50.747  1.00  0.00     0.248 C 
HETATM    6  N   UNL     1      25.205  44.438  49.833  1.00  0.00    -0.322 N 
HETATM    7  H   UNL     1      26.086  44.614  49.362  1.00  0.00     0.169 HD
HETATM    8  O   UNL     1      24.165  43.121  51.464  1.00  0.00    -0.271 OA
BRANCH   6   9
HETATM    9  C   UNL     1      24.195  45.321  49.476  1.00  0.00     0.085 A 
HETATM   10  C   UNL     1      24.230  46.648  49.871  1.00  0.00     0.052 A 
HETATM   11  C   UNL     1      25.191  47.437  50.678  1.00  0.00     0.072 C 
HETATM   12  N   UNL     1      23.106  47.225  49.350  1.00  0.00    -0.280 N 
HETATM   13  H   UNL     1      22.792  48.187  49.436  1.00  0.00     0.189 HD
HETATM   14  N   UNL     1      22.357  46.383  48.638  1.00  0.00    -0.177 NA
HETATM   15  C   UNL     1      22.998  45.209  48.708  1.00  0.00     0.079 A 
HETATM   16  C   UNL     1      22.390  44.057  47.998  1.00  0.00     0.075 C 
ENDBRANCH   6   9
ENDBRANCH   4   5
ENDBRANCH   1   4
BRANCH   1  17
HETATM   17  C   UNL     1      28.231  42.936  52.617  1.00  0.00     0.194 C 
HETATM   18  C   UNL     1      27.921  41.444  52.815  1.00  0.00     0.041 C 
BRANCH  17  19
HETATM   19  C   UNL     1      27.808  43.884  53.816  1.00  0.00     0.007 C 
HETATM   20  C   UNL     1      27.297  45.252  53.281  1.00  0.00     0.022 C 
HETATM   21  C   UNL     1      26.551  43.285  54.512  1.00  0.00     0.022 C 
BRANCH  19  22
HETATM   22  C   UNL     1      28.978  44.105  54.799  1.00  0.00    -0.048 A 
HETATM   23  C   UNL     1      29.088  45.303  55.532  1.00  0.00     0.008 A 
HETATM   24  C   UNL     1      30.162  45.535  56.397  1.00  0.00     0.001 A 
HETATM   25  C   UNL     1      31.155  44.578  56.549  1.00  0.00     0.000 A 
HETATM   26  C   UNL     1      31.071  43.384  55.844  1.00  0.00     0.001 A 
HETATM   27  C   UNL     1      29.994  43.148  54.983  1.00  0.00     0.008 A 
ENDBRANCH  19  22
ENDBRANCH  17  19
ENDBRANCH   1  17
TORSDOF 6
ENDMDL
MODEL 6
REMARK VINA RESULT:      -7.6      1.122      1.837
REMARK  6 active torsions:
REMARK  status: ('A' for Active; 'I' for Inactive)
REMARK    1  A    between atoms: C_8  and  N_9 
REMARK       I    between atoms: N_9  and  C_10 
REMARK    2  A    between atoms: C_10  and  C_11 
REMARK    3  A    between atoms: C_11  and  N_12 
REMARK    4  A    between atoms: N_12  and  C_15 
REMARK    5  A    between atoms: C_15  and  C_16 
REMARK    6  A    between atoms: C_16  and  C_17 
ROOT
HETATM    1  N   UNL     1      26.900  44.495  51.643  1.00  0.00    -0.062 N 
HETATM    2  H   UNL     1      26.611  43.990  50.793  1.00  0.00     0.278 HD
HETATM    3  H   UNL     1      27.887  44.754  51.494  1.00  0.00     0.278 HD
ENDROOT
BRANCH   1   4
HETATM    4  C   UNL     1      26.196  45.828  51.739  1.00  0.00     0.335 C 
BRANCH   4   5
HETATM    5  C   UNL     1      26.045  46.488  50.368  1.00  0.00     0.248 C 
HETATM    6  N   UNL     1      25.455  47.729  50.405  1.00  0.00    -0.322 N 
HETATM    7  H   UNL     1      25.069  48.073  51.277  1.00  0.00     0.169 HD
HETATM    8  O   UNL     1      26.480  45.887  49.389  1.00  0.00    -0.271 OA
BRANCH   6   9
HETATM    9  C   UNL     1      25.288  48.602  49.337  1.00  0.00     0.085 A 
HETATM   10  C   UNL     1      26.367  49.268  48.782  1.00  0.00     0.052 A 
HETATM   11  C   UNL     1      27.817  49.281  49.092  1.00  0.00     0.072 C 
HETATM   12  N   UNL     1      25.858  50.025  47.764  1.00  0.00    -0.280 N 
HETATM   13  H   UNL     1      26.351  50.651  47.134  1.00  0.00     0.189 HD
HETATM   14  N   UNL     1      24.541  49.889  47.607  1.00  0.00    -0.177 NA
HETATM   15  C   UNL     1      24.168  49.029  48.564  1.00  0.00     0.079 A 
HETATM   16  C   UNL     1      22.728  48.678  48.642  1.00  0.00     0.075 C 
ENDBRANCH   6   9
ENDBRANCH   4   5
ENDBRANCH   1   4
BRANCH   1  17
HETATM   17  C   UNL     1      26.881  43.553  52.847  1.00  0.00     0.194 C 
HETATM   18  C   UNL     1      26.133  44.318  53.949  1.00  0.00     0.041 C 
BRANCH  17  19
HETATM   19  C   UNL     1      28.320  43.019  53.245  1.00  0.00     0.007 C 
HETATM   20  C   UNL     1      28.243  41.546  53.738  1.00  0.00     0.022 C 
HETATM   21  C   UNL     1      29.192  42.916  51.960  1.00  0.00     0.022 C 
BRANCH  19  22
HETATM   22  C   UNL     1      28.970  43.906  54.329  1.00  0.00    -0.048 A 
HETATM   23  C   UNL     1      28.510  45.217  54.559  1.00  0.00     0.008 A 
HETATM   24  C   UNL     1      29.113  46.047  55.510  1.00  0.00     0.001 A 
HETATM   25  C   UNL     1      30.193  45.589  56.253  1.00  0.00     0.000 A 
HETATM   26  C   UNL     1      30.664  44.298  56.052  1.00  0.00     0.001 A 
HETATM   27  C   UNL     1      30.059  43.465  55.105  1.00  0.00     0.008 A 
ENDBRANCH  19  22
ENDBRANCH  17  19
ENDBRANCH   1  17
TORSDOF 6
ENDMDL
MODEL 7
REMARK VINA RESULT:      -7.6      3.751      5.758
REMARK  6 active torsions:
REMARK  status: ('A' for Active; 'I' for Inactive)
REMARK    1  A    between atoms: C_8  and  N_9 
REMARK       I    between atoms: N_9  and  C_10 
REMARK    2  A    between atoms: C_10  and  C_11 
REMARK    3  A    between atoms: C_11  and  N_12 
REMARK    4  A    between atoms: N_12  and  C_15 
REMARK    5  A    between atoms: C_15  and  C_16 
REMARK    6  A    between atoms: C_16  and  C_17 
ROOT
HETATM    1  N   UNL     1      26.815  45.854  53.284  1.00  0.00    -0.062 N 
HETATM    2  H   UNL     1      27.493  46.468  52.810  1.00  0.00     0.278 HD
HETATM    3  H   UNL     1      26.127  46.484  53.725  1.00  0.00     0.278 HD
ENDROOT
BRANCH   1   4
HETATM    4  C   UNL     1      25.994  45.084  52.278  1.00  0.00     0.335 C 
BRANCH   4   5
HETATM    5  C   UNL     1      26.838  44.052  51.530  1.00  0.00     0.248 C 
HETATM    6  N   UNL     1      26.624  42.754  51.930  1.00  0.00    -0.322 N 
HETATM    7  H   UNL     1      26.034  42.571  52.734  1.00  0.00     0.169 HD
HETATM    8  O   UNL     1      27.586  44.454  50.641  1.00  0.00    -0.271 OA
BRANCH   6   9
HETATM    9  C   UNL     1      27.163  41.608  51.360  1.00  0.00     0.085 A 
HETATM   10  C   UNL     1      28.331  41.047  51.848  1.00  0.00     0.052 A 
HETATM   11  C   UNL     1      29.249  41.420  52.951  1.00  0.00     0.072 C 
HETATM   12  N   UNL     1      28.569  39.945  51.075  1.00  0.00    -0.280 N 
HETATM   13  H   UNL     1      29.340  39.286  51.134  1.00  0.00     0.189 HD
HETATM   14  N   UNL     1      27.643  39.741  50.138  1.00  0.00    -0.177 NA
HETATM   15  C   UNL     1      26.776  40.751  50.288  1.00  0.00     0.079 A 
HETATM   16  C   UNL     1      25.613  40.794  49.366  1.00  0.00     0.075 C 
ENDBRANCH   6   9
ENDBRANCH   4   5
ENDBRANCH   1   4
BRANCH   1  17
HETATM   17  C   UNL     1      27.498  45.099  54.424  1.00  0.00     0.194 C 
HETATM   18  C   UNL     1      26.378  44.301  55.109  1.00  0.00     0.041 C 
BRANCH  17  19
HETATM   19  C   UNL     1      28.344  46.041  55.379  1.00  0.00     0.007 C 
HETATM   20  C   UNL     1      28.919  47.251  54.590  1.00  0.00     0.022 C 
HETATM   21  C   UNL     1      27.384  46.713  56.404  1.00  0.00     0.022 C 
BRANCH  19  22
HETATM   22  C   UNL     1      29.489  45.266  56.065  1.00  0.00    -0.048 A 
HETATM   23  C   UNL     1      30.082  44.152  55.439  1.00  0.00     0.008 A 
HETATM   24  C   UNL     1      31.093  43.415  56.064  1.00  0.00     0.001 A 
HETATM   25  C   UNL     1      31.536  43.769  57.331  1.00  0.00     0.000 A 
HETATM   26  C   UNL     1      30.974  44.867  57.970  1.00  0.00     0.001 A 
HETATM   27  C   UNL     1      29.966  45.608  57.345  1.00  0.00     0.008 A 
ENDBRANCH  19  22
ENDBRANCH  17  19
ENDBRANCH   1  17
TORSDOF 6
ENDMDL
MODEL 8
REMARK VINA RESULT:      -7.6     11.574     13.520
REMARK  6 active torsions:
REMARK  status: ('A' for Active; 'I' for Inactive)
REMARK    1  A    between atoms: C_8  and  N_9 
REMARK       I    between atoms: N_9  and  C_10 
REMARK    2  A    between atoms: C_10  and  C_11 
REMARK    3  A    between atoms: C_11  and  N_12 
REMARK    4  A    between atoms: N_12  and  C_15 
REMARK    5  A    between atoms: C_15  and  C_16 
REMARK    6  A    between atoms: C_16  and  C_17 
ROOT
HETATM    1  N   UNL     1      29.271  51.811  39.496  1.00  0.00    -0.062 N 
HETATM    2  H   UNL     1      29.345  51.812  38.468  1.00  0.00     0.278 HD
HETATM    3  H   UNL     1      30.067  51.248  39.834  1.00  0.00     0.278 HD
ENDROOT
BRANCH   1   4
HETATM    4  C   UNL     1      29.550  53.186  40.055  1.00  0.00     0.335 C 
BRANCH   4   5
HETATM    5  C   UNL     1      30.917  53.253  40.736  1.00  0.00     0.248 C 
HETATM    6  N   UNL     1      31.388  52.036  41.170  1.00  0.00    -0.322 N 
HETATM    7  H   UNL     1      30.787  51.221  41.119  1.00  0.00     0.169 HD
HETATM    8  O   UNL     1      31.472  54.346  40.805  1.00  0.00    -0.271 OA
BRANCH   6   9
HETATM    9  C   UNL     1      32.637  51.777  41.720  1.00  0.00     0.085 A 
HETATM   10  C   UNL     1      33.747  51.581  40.916  1.00  0.00     0.052 A 
HETATM   11  C   UNL     1      33.944  51.573  39.447  1.00  0.00     0.072 C 
HETATM   12  N   UNL     1      34.794  51.362  41.769  1.00  0.00    -0.280 N 
HETATM   13  H   UNL     1      35.766  51.176  41.540  1.00  0.00     0.189 HD
HETATM   14  N   UNL     1      34.452  51.417  43.056  1.00  0.00    -0.177 NA
HETATM   15  C   UNL     1      33.135  51.661  43.052  1.00  0.00     0.079 A 
HETATM   16  C   UNL     1      32.459  51.777  44.367  1.00  0.00     0.075 C 
ENDBRANCH   6   9
ENDBRANCH   4   5
ENDBRANCH   1   4
BRANCH   1  17
HETATM   17  C   UNL     1      28.007  51.071  39.931  1.00  0.00     0.194 C 
HETATM   18  C   UNL     1      27.584  51.731  41.251  1.00  0.00     0.041 C 
BRANCH  17  19
HETATM   19  C   UNL     1      28.191  49.496  39.985  1.00  0.00     0.007 C 
HETATM   20  C   UNL     1      26.998  48.828  40.725  1.00  0.00     0.022 C 
HETATM   21  C   UNL     1      28.076  48.926  38.542  1.00  0.00     0.022 C 
BRANCH  19  22
HETATM   22  C   UNL     1      29.520  49.108  40.668  1.00  0.00    -0.048 A 
HETATM   23  C   UNL     1      30.641  48.731  39.903  1.00  0.00     0.008 A 
HETATM   24  C   UNL     1      31.840  48.339  40.507  1.00  0.00     0.001 A 
HETATM   25  C   UNL     1      31.949  48.310  41.890  1.00  0.00     0.000 A 
HETATM   26  C   UNL     1      30.862  48.683  42.671  1.00  0.00     0.001 A 
HETATM   27  C   UNL     1      29.664  49.081  42.068  1.00  0.00     0.008 A 
ENDBRANCH  19  22
ENDBRANCH  17  19
ENDBRANCH   1  17
TORSDOF 6
ENDMDL
MODEL 9
REMARK VINA RESULT:      -7.6     11.602     13.349
REMARK  6 active torsions:
REMARK  status: ('A' for Active; 'I' for Inactive)
REMARK    1  A    between atoms: C_8  and  N_9 
REMARK       I    between atoms: N_9  and  C_10 
REMARK    2  A    between atoms: C_10  and  C_11 
REMARK    3  A    between atoms: C_11  and  N_12 
REMARK    4  A    between atoms: N_12  and  C_15 
REMARK    5  A    between atoms: C_15  and  C_16 
REMARK    6  A    between atoms: C_16  and  C_17 
ROOT
HETATM    1  N   UNL     1      27.519  49.500  39.354  1.00  0.00    -0.062 N 
HETATM    2  H   UNL     1      27.849  49.741  40.299  1.00  0.00     0.278 HD
HETATM    3  H   UNL     1      26.517  49.272  39.456  1.00  0.00     0.278 HD
ENDROOT
BRANCH   1   4
HETATM    4  C   UNL     1      27.514  50.718  38.460  1.00  0.00     0.335 C 
BRANCH   4   5
HETATM    5  C   UNL     1      28.830  51.491  38.552  1.00  0.00     0.248 C 
HETATM    6  N   UNL     1      29.507  51.308  39.735  1.00  0.00    -0.322 N 
HETATM    7  H   UNL     1      29.068  50.789  40.487  1.00  0.00     0.169 HD
HETATM    8  O   UNL     1      29.173  52.160  37.580  1.00  0.00    -0.271 OA
BRANCH   6   9
HETATM    9  C   UNL     1      30.770  51.793  40.052  1.00  0.00     0.085 A 
HETATM   10  C   UNL     1      31.004  52.450  41.249  1.00  0.00     0.052 A 
HETATM   11  C   UNL     1      30.134  52.805  42.395  1.00  0.00     0.072 C 
HETATM   12  N   UNL     1      32.331  52.779  41.242  1.00  0.00    -0.280 N 
HETATM   13  H   UNL     1      32.863  53.274  41.952  1.00  0.00     0.189 HD
HETATM   14  N   UNL     1      32.974  52.375  40.147  1.00  0.00    -0.177 NA
HETATM   15  C   UNL     1      32.038  51.776  39.399  1.00  0.00     0.079 A 
HETATM   16  C   UNL     1      32.463  51.215  38.093  1.00  0.00     0.075 C 
ENDBRANCH   6   9
ENDBRANCH   4   5
ENDBRANCH   1   4
BRANCH   1  17
HETATM   17  C   UNL     1      28.201  48.221  38.868  1.00  0.00     0.194 C 
HETATM   18  C   UNL     1      27.198  47.566  37.907  1.00  0.00     0.041 C 
BRANCH  17  19
HETATM   19  C   UNL     1      28.713  47.298  40.052  1.00  0.00     0.007 C 
HETATM   20  C   UNL     1      27.571  47.028  41.073  1.00  0.00     0.022 C 
HETATM   21  C   UNL     1      29.023  45.881  39.486  1.00  0.00     0.022 C 
BRANCH  19  22
HETATM   22  C   UNL     1      29.927  47.924  40.771  1.00  0.00    -0.048 A 
HETATM   23  C   UNL     1      31.213  47.866  40.199  1.00  0.00     0.008 A 
HETATM   24  C   UNL     1      32.330  48.394  40.855  1.00  0.00     0.001 A 
HETATM   25  C   UNL     1      32.191  48.991  42.100  1.00  0.00     0.000 A 
HETATM   26  C   UNL     1      30.934  49.068  42.686  1.00  0.00     0.001 A 
HETATM   27  C   UNL     1      29.815  48.546  42.029  1.00  0.00     0.008 A 
ENDBRANCH  19  22
ENDBRANCH  17  19
ENDBRANCH   1  17
TORSDOF 6
ENDMDL
MODEL 10
REMARK VINA RESULT:      -7.6      4.446     10.380
REMARK  6 active torsions:
REMARK  status: ('A' for Active; 'I' for Inactive)
REMARK    1  A    between atoms: C_8  and  N_9 
REMARK       I    between atoms: N_9  and  C_10 
REMARK    2  A    between atoms: C_10  and  C_11 
REMARK    3  A    between atoms: C_11  and  N_12 
REMARK    4  A    between atoms: N_12  and  C_15 
REMARK    5  A    between atoms: C_15  and  C_16 
REMARK    6  A    between atoms: C_16  and  C_17 
ROOT
HETATM    1  N   UNL     1      19.865  48.552  49.898  1.00  0.00    -0.062 N 
HETATM    2  H   UNL     1      19.808  48.259  50.885  1.00  0.00     0.278 HD
HETATM    3  H   UNL     1      20.610  49.264  49.859  1.00  0.00     0.278 HD
ENDROOT
BRANCH   1   4
HETATM    4  C   UNL     1      20.400  47.433  49.037  1.00  0.00     0.335 C 
BRANCH   4   5
HETATM    5  C   UNL     1      21.798  47.748  48.505  1.00  0.00     0.248 C 
HETATM    6  N   UNL     1      22.662  48.244  49.454  1.00  0.00    -0.322 N 
HETATM    7  H   UNL     1      22.312  48.468  50.379  1.00  0.00     0.169 HD
HETATM    8  O   UNL     1      22.032  47.508  47.323  1.00  0.00    -0.271 OA
BRANCH   6   9
HETATM    9  C   UNL     1      24.014  48.514  49.287  1.00  0.00     0.085 A 
HETATM   10  C   UNL     1      24.440  49.625  48.579  1.00  0.00     0.052 A 
HETATM   11  C   UNL     1      23.720  50.712  47.873  1.00  0.00     0.072 C 
HETATM   12  N   UNL     1      25.807  49.592  48.616  1.00  0.00    -0.280 N 
HETATM   13  H   UNL     1      26.466  50.243  48.200  1.00  0.00     0.189 HD
HETATM   14  N   UNL     1      26.295  48.560  49.303  1.00  0.00    -0.177 NA
HETATM   15  C   UNL     1      25.218  47.880  49.717  1.00  0.00     0.079 A 
HETATM   16  C   UNL     1      25.450  46.656  50.522  1.00  0.00     0.075 C 
ENDBRANCH   6   9
ENDBRANCH   4   5
ENDBRANCH   1   4
BRANCH   1  17
HETATM   17  C   UNL     1      18.574  49.259  49.485  1.00  0.00     0.194 C 
HETATM   18  C   UNL     1      17.768  48.209  48.706  1.00  0.00     0.041 C 
BRANCH  17  19
HETATM   19  C   UNL     1      18.827  50.626  48.722  1.00  0.00     0.007 C 
HETATM   20  C   UNL     1      20.078  51.352  49.294  1.00  0.00     0.022 C 
HETATM   21  C   UNL     1      19.241  50.314  47.254  1.00  0.00     0.022 C 
BRANCH  19  22
HETATM   22  C   UNL     1      17.595  51.553  48.803  1.00  0.00    -0.048 A 
HETATM   23  C   UNL     1      17.380  52.370  49.930  1.00  0.00     0.008 A 
HETATM   24  C   UNL     1      16.250  53.186  50.037  1.00  0.00     0.001 A 
HETATM   25  C   UNL     1      15.303  53.204  49.022  1.00  0.00     0.000 A 
HETATM   26  C   UNL     1      15.491  52.413  47.896  1.00  0.00     0.001 A 
HETATM   27  C   UNL     1      16.624  51.601  47.785  1.00  0.00     0.008 A 
ENDBRANCH  19  22
ENDBRANCH  17  19
ENDBRANCH   1  17
TORSDOF 6
ENDMDL
