MODEL 1
REMARK VINA RESULT:      -8.5      0.000      0.000
REMARK  3 active torsions:
REMARK  status: ('A' for Active; 'I' for Inactive)
REMARK    1  A    between atoms: N_7  and  C_9 
REMARK    2  A    between atoms: C_9  and  C_10 
REMARK    3  A    between atoms: C_13  and  C_14 
ROOT
HETATM    1  C   UNL     1      27.766  37.399  45.026  1.00  0.00     0.269 C 
HETATM    2  N   UNL     1      27.317  38.788  45.410  1.00  0.00    -0.074 N 
HETATM    3  H   UNL     1      27.426  39.301  44.520  1.00  0.00     0.279 HD
HETATM    4  C   UNL     1      28.188  39.535  46.388  1.00  0.00     0.245 C 
HETATM    5  C   UNL     1      27.919  39.217  47.895  1.00  0.00     0.008 C 
HETATM    6  C   UNL     1      28.677  40.313  48.713  1.00  0.00     0.246 C 
HETATM    7  N   UNL     1      28.821  40.029  50.191  1.00  0.00    -0.063 N 
HETATM    8  H   UNL     1      29.560  40.681  50.509  1.00  0.00     0.280 HD
HETATM    9  C   UNL     1      29.375  38.667  50.502  1.00  0.00     0.235 C 
HETATM   10  C   UNL     1      28.558  37.599  49.800  1.00  0.00     0.029 C 
HETATM   11  C   UNL     1      28.492  37.832  48.287  1.00  0.00     0.014 C 
HETATM   12  C   UNL     1      26.390  39.282  48.140  1.00  0.00     0.014 C 
HETATM   13  C   UNL     1      25.564  38.475  47.136  1.00  0.00     0.029 C 
HETATM   14  C   UNL     1      25.843  38.886  45.702  1.00  0.00     0.234 C 
ENDROOT
BRANCH   7  15
HETATM   15  C   UNL     1      27.663  40.461  51.107  1.00  0.00     0.323 C 
BRANCH  15  16
HETATM   16  C   UNL     1      27.956  41.725  51.826  1.00  0.00     0.199 A 
HETATM   17  O   UNL     1      27.789  42.885  51.140  1.00  0.00    -0.194 OA
HETATM   18  N   UNL     1      28.278  43.892  51.961  1.00  0.00    -0.106 NA
HETATM   19  C   UNL     1      28.661  43.255  53.080  1.00  0.00     0.189 A 
HETATM   20  N   UNL     1      28.536  41.878  52.992  1.00  0.00    -0.202 NA
BRANCH  19  21
HETATM   21  C   UNL     1      29.200  43.917  54.261  1.00  0.00     0.016 A 
HETATM   22  C   UNL     1      30.260  43.350  54.984  1.00  0.00     0.039 A 
HETATM   23  C   UNL     1      30.761  43.996  56.114  1.00  0.00     0.035 A 
HETATM   24 CL   UNL     1      32.046  43.277  57.003  1.00  0.00    -0.084 Cl
HETATM   25  C   UNL     1      30.227  45.213  56.532  1.00  0.00     0.024 A 
HETATM   26  C   UNL     1      29.178  45.789  55.817  1.00  0.00     0.003 A 
HETATM   27  C   UNL     1      28.664  45.142  54.690  1.00  0.00     0.015 A 
ENDBRANCH  19  21
ENDBRANCH  15  16
ENDBRANCH   7  15
TORSDOF 3
ENDMDL
MODEL 2
REMARK VINA RESULT:      -8.2      9.568     11.122
REMARK  3 active torsions:
REMARK  status: ('A' for Active; 'I' for Inactive)
REMARK    1  A    between atoms: N_7  and  C_9 
REMARK    2  A    between atoms: C_9  and  C_10 
REMARK    3  A    between atoms: C_13  and  C_14 
ROOT
HETATM    1  C   UNL     1      15.906  50.973  47.911  1.00  0.00     0.269 C 
HETATM    2  N   UNL     1      16.443  49.563  47.854  1.00  0.00    -0.074 N 
HETATM    3  H   UNL     1      15.608  49.007  48.098  1.00  0.00     0.279 HD
HETATM    4  C   UNL     1      17.468  49.186  48.894  1.00  0.00     0.245 C 
HETATM    5  C   UNL     1      18.941  49.580  48.548  1.00  0.00     0.008 C 
HETATM    6  C   UNL     1      19.846  48.821  49.574  1.00  0.00     0.246 C 
HETATM    7  N   UNL     1      21.282  49.290  49.634  1.00  0.00    -0.063 N 
HETATM    8  H   UNL     1      21.645  48.898  50.523  1.00  0.00     0.280 HD
HETATM    9  C   UNL     1      21.435  50.776  49.799  1.00  0.00     0.235 C 
HETATM   10  C   UNL     1      20.650  51.504  48.725  1.00  0.00     0.029 C 
HETATM   11  C   UNL     1      19.172  51.102  48.725  1.00  0.00     0.014 C 
HETATM   12  C   UNL     1      19.235  49.132  47.094  1.00  0.00     0.014 C 
HETATM   13  C   UNL     1      18.177  49.576  46.080  1.00  0.00     0.029 C 
HETATM   14  C   UNL     1      16.785  49.104  46.461  1.00  0.00     0.234 C 
ENDROOT
BRANCH   7  15
HETATM   15  C   UNL     1      22.270  48.662  48.636  1.00  0.00     0.323 C 
BRANCH  15  16
HETATM   16  C   UNL     1      23.500  48.165  49.299  1.00  0.00     0.199 A 
HETATM   17  O   UNL     1      24.504  49.057  49.499  1.00  0.00    -0.194 OA
HETATM   18  N   UNL     1      25.583  48.324  49.973  1.00  0.00    -0.106 NA
HETATM   19  C   UNL     1      25.122  47.064  50.053  1.00  0.00     0.189 A 
HETATM   20  N   UNL     1      23.833  46.925  49.565  1.00  0.00    -0.202 NA
BRANCH  19  21
HETATM   21  C   UNL     1      25.895  45.934  50.552  1.00  0.00     0.016 A 
HETATM   22  C   UNL     1      26.238  45.839  51.909  1.00  0.00     0.039 A 
HETATM   23  C   UNL     1      26.981  44.752  52.369  1.00  0.00     0.035 A 
HETATM   24 CL   UNL     1      27.412  44.661  54.030  1.00  0.00    -0.084 Cl
HETATM   25  C   UNL     1      27.382  43.744  51.494  1.00  0.00     0.024 A 
HETATM   26  C   UNL     1      27.041  43.826  50.144  1.00  0.00     0.003 A 
HETATM   27  C   UNL     1      26.305  44.917  49.675  1.00  0.00     0.015 A 
ENDBRANCH  19  21
ENDBRANCH  15  16
ENDBRANCH   7  15
TORSDOF 3
ENDMDL
MODEL 3
REMARK VINA RESULT:      -8.2      2.119      3.405
REMARK  3 active torsions:
REMARK  status: ('A' for Active; 'I' for Inactive)
REMARK    1  A    between atoms: N_7  and  C_9 
REMARK    2  A    between atoms: C_9  and  C_10 
REMARK    3  A    between atoms: C_13  and  C_14 
ROOT
HETATM    1  C   UNL     1      27.386  37.154  48.048  1.00  0.00     0.269 C 
HETATM    2  N   UNL     1      27.804  37.933  49.271  1.00  0.00    -0.074 N 
HETATM    3  H   UNL     1      28.025  37.177  49.940  1.00  0.00     0.279 HD
HETATM    4  C   UNL     1      26.734  38.745  49.956  1.00  0.00     0.245 C 
HETATM    5  C   UNL     1      26.485  40.164  49.348  1.00  0.00     0.008 C 
HETATM    6  C   UNL     1      25.602  40.932  50.384  1.00  0.00     0.246 C 
HETATM    7  N   UNL     1      24.975  42.210  49.873  1.00  0.00    -0.063 N 
HETATM    8  H   UNL     1      24.230  42.425  50.560  1.00  0.00     0.280 HD
HETATM    9  C   UNL     1      24.240  42.054  48.572  1.00  0.00     0.235 C 
HETATM   10  C   UNL     1      25.145  41.417  47.535  1.00  0.00     0.029 C 
HETATM   11  C   UNL     1      25.705  40.073  48.012  1.00  0.00     0.014 C 
HETATM   12  C   UNL     1      27.858  40.855  49.151  1.00  0.00     0.014 C 
HETATM   13  C   UNL     1      28.890  39.993  48.418  1.00  0.00     0.029 C 
HETATM   14  C   UNL     1      29.114  38.659  49.106  1.00  0.00     0.234 C 
ENDROOT
BRANCH   7  15
HETATM   15  C   UNL     1      25.816  43.494  49.972  1.00  0.00     0.323 C 
BRANCH  15  16
HETATM   16  C   UNL     1      26.321  43.731  51.346  1.00  0.00     0.199 A 
HETATM   17  O   UNL     1      25.477  44.330  52.225  1.00  0.00    -0.194 OA
HETATM   18  N   UNL     1      26.226  44.586  53.366  1.00  0.00    -0.106 NA
HETATM   19  C   UNL     1      27.442  44.086  53.087  1.00  0.00     0.189 A 
HETATM   20  N   UNL     1      27.549  43.606  51.792  1.00  0.00    -0.202 NA
BRANCH  19  21
HETATM   21  C   UNL     1      28.563  44.080  54.017  1.00  0.00     0.016 A 
HETATM   22  C   UNL     1      28.614  44.980  55.091  1.00  0.00     0.039 A 
HETATM   23  C   UNL     1      29.698  44.962  55.969  1.00  0.00     0.035 A 
HETATM   24 CL   UNL     1      29.756  46.087  57.268  1.00  0.00    -0.084 Cl
HETATM   25  C   UNL     1      30.734  44.047  55.800  1.00  0.00     0.024 A 
HETATM   26  C   UNL     1      30.691  43.143  54.740  1.00  0.00     0.003 A 
HETATM   27  C   UNL     1      29.613  43.162  53.850  1.00  0.00     0.015 A 
ENDBRANCH  19  21
ENDBRANCH  15  16
ENDBRANCH   7  15
TORSDOF 3
ENDMDL
MODEL 4
REMARK VINA RESULT:      -8.1      8.236     10.592
REMARK  3 active torsions:
REMARK  status: ('A' for Active; 'I' for Inactive)
REMARK    1  A    between atoms: N_7  and  C_9 
REMARK    2  A    between atoms: C_9  and  C_10 
REMARK    3  A    between atoms: C_13  and  C_14 
ROOT
HETATM    1  C   UNL     1      27.277  42.656  54.443  1.00  0.00     0.269 C 
HETATM    2  N   UNL     1      26.419  43.873  54.688  1.00  0.00    -0.074 N 
HETATM    3  H   UNL     1      25.835  43.566  55.483  1.00  0.00     0.279 HD
HETATM    4  C   UNL     1      25.431  44.233  53.608  1.00  0.00     0.245 C 
HETATM    5  C   UNL     1      26.011  45.089  52.435  1.00  0.00     0.008 C 
HETATM    6  C   UNL     1      24.778  45.611  51.626  1.00  0.00     0.246 C 
HETATM    7  N   UNL     1      25.100  46.199  50.271  1.00  0.00    -0.063 N 
HETATM    8  H   UNL     1      24.189  46.227  49.778  1.00  0.00     0.280 HD
HETATM    9  C   UNL     1      25.956  45.315  49.408  1.00  0.00     0.235 C 
HETATM   10  C   UNL     1      27.210  44.910  50.158  1.00  0.00     0.029 C 
HETATM   11  C   UNL     1      26.885  44.226  51.489  1.00  0.00     0.014 C 
HETATM   12  C   UNL     1      26.826  46.258  53.043  1.00  0.00     0.014 C 
HETATM   13  C   UNL     1      27.837  45.823  54.108  1.00  0.00     0.029 C 
HETATM   14  C   UNL     1      27.182  45.049  55.238  1.00  0.00     0.234 C 
ENDROOT
BRANCH   7  15
HETATM   15  C   UNL     1      25.483  47.688  50.222  1.00  0.00     0.323 C 
BRANCH  15  16
HETATM   16  C   UNL     1      24.576  48.473  49.350  1.00  0.00     0.199 A 
HETATM   17  O   UNL     1      25.140  49.171  48.332  1.00  0.00    -0.194 OA
HETATM   18  N   UNL     1      24.124  49.938  47.779  1.00  0.00    -0.106 NA
HETATM   19  C   UNL     1      23.031  49.606  48.487  1.00  0.00     0.189 A 
HETATM   20  N   UNL     1      23.304  48.738  49.532  1.00  0.00    -0.202 NA
BRANCH  19  21
HETATM   21  C   UNL     1      21.695  50.128  48.234  1.00  0.00     0.016 A 
HETATM   22  C   UNL     1      20.769  49.400  47.472  1.00  0.00     0.039 A 
HETATM   23  C   UNL     1      19.495  49.917  47.237  1.00  0.00     0.035 A 
HETATM   24 CL   UNL     1      18.379  49.023  46.283  1.00  0.00    -0.084 Cl
HETATM   25  C   UNL     1      19.122  51.153  47.762  1.00  0.00     0.024 A 
HETATM   26  C   UNL     1      20.032  51.882  48.526  1.00  0.00     0.003 A 
HETATM   27  C   UNL     1      21.314  51.374  48.757  1.00  0.00     0.015 A 
ENDBRANCH  19  21
ENDBRANCH  15  16
ENDBRANCH   7  15
TORSDOF 3
ENDMDL
MODEL 5
REMARK VINA RESULT:      -8.0      1.452      1.807
REMARK  3 active torsions:
REMARK  status: ('A' for Active; 'I' for Inactive)
REMARK    1  A    between atoms: N_7  and  C_9 
REMARK    2  A    between atoms: C_9  and  C_10 
REMARK    3  A    between atoms: C_13  and  C_14 
ROOT
HETATM    1  C   UNL     1      27.668  39.214  43.691  1.00  0.00     0.269 C 
HETATM    2  N   UNL     1      27.296  40.416  44.524  1.00  0.00    -0.074 N 
HETATM    3  H   UNL     1      27.439  41.191  43.856  1.00  0.00     0.279 HD
HETATM    4  C   UNL     1      28.200  40.743  45.684  1.00  0.00     0.245 C 
HETATM    5  C   UNL     1      27.905  39.953  47.001  1.00  0.00     0.008 C 
HETATM    6  C   UNL     1      28.718  40.669  48.129  1.00  0.00     0.246 C 
HETATM    7  N   UNL     1      28.836  39.898  49.424  1.00  0.00    -0.063 N 
HETATM    8  H   UNL     1      29.609  40.364  49.933  1.00  0.00     0.280 HD
HETATM    9  C   UNL     1      29.311  38.482  49.254  1.00  0.00     0.235 C 
HETATM   10  C   UNL     1      28.440  37.758  48.245  1.00  0.00     0.029 C 
HETATM   11  C   UNL     1      28.397  38.488  46.899  1.00  0.00     0.014 C 
HETATM   12  C   UNL     1      26.381  40.017  47.274  1.00  0.00     0.014 C 
HETATM   13  C   UNL     1      25.516  39.640  46.068  1.00  0.00     0.029 C 
HETATM   14  C   UNL     1      25.827  40.492  44.851  1.00  0.00     0.234 C 
ENDROOT
BRANCH   7  15
HETATM   15  C   UNL     1      27.699  40.061  50.447  1.00  0.00     0.323 C 
BRANCH  15  16
HETATM   16  C   UNL     1      27.856  41.285  51.272  1.00  0.00     0.199 A 
HETATM   17  O   UNL     1      27.311  42.432  50.793  1.00  0.00    -0.194 OA
HETATM   18  N   UNL     1      27.730  43.444  51.647  1.00  0.00    -0.106 NA
HETATM   19  C   UNL     1      28.457  42.810  52.584  1.00  0.00     0.189 A 
HETATM   20  N   UNL     1      28.612  41.457  52.329  1.00  0.00    -0.202 NA
BRANCH  19  21
HETATM   21  C   UNL     1      29.070  43.464  53.733  1.00  0.00     0.016 A 
HETATM   22  C   UNL     1      28.473  44.585  54.327  1.00  0.00     0.039 A 
HETATM   23  C   UNL     1      29.075  45.201  55.425  1.00  0.00     0.035 A 
HETATM   24 CL   UNL     1      28.342  46.588  56.128  1.00  0.00    -0.084 Cl
HETATM   25  C   UNL     1      30.267  44.707  55.950  1.00  0.00     0.024 A 
HETATM   26  C   UNL     1      30.866  43.589  55.371  1.00  0.00     0.003 A 
HETATM   27  C   UNL     1      30.273  42.973  54.265  1.00  0.00     0.015 A 
ENDBRANCH  19  21
ENDBRANCH  15  16
ENDBRANCH   7  15
TORSDOF 3
ENDMDL
MODEL 6
REMARK VINA RESULT:      -8.0      1.372      2.287
REMARK  3 active torsions:
REMARK  status: ('A' for Active; 'I' for Inactive)
REMARK    1  A    between atoms: N_7  and  C_9 
REMARK    2  A    between atoms: C_9  and  C_10 
REMARK    3  A    between atoms: C_13  and  C_14 
ROOT
HETATM    1  C   UNL     1      26.430  38.268  44.355  1.00  0.00     0.269 C 
HETATM    2  N   UNL     1      27.704  38.524  45.124  1.00  0.00    -0.074 N 
HETATM    3  H   UNL     1      28.274  37.700  44.872  1.00  0.00     0.279 HD
HETATM    4  C   UNL     1      27.609  38.475  46.627  1.00  0.00     0.245 C 
HETATM    5  C   UNL     1      27.133  39.800  47.307  1.00  0.00     0.008 C 
HETATM    6  C   UNL     1      27.420  39.633  48.835  1.00  0.00     0.246 C 
HETATM    7  N   UNL     1      26.758  40.656  49.730  1.00  0.00    -0.063 N 
HETATM    8  H   UNL     1      26.815  40.245  50.679  1.00  0.00     0.280 HD
HETATM    9  C   UNL     1      25.284  40.820  49.488  1.00  0.00     0.235 C 
HETATM   10  C   UNL     1      25.024  41.102  48.021  1.00  0.00     0.029 C 
HETATM   11  C   UNL     1      25.611  40.014  47.116  1.00  0.00     0.014 C 
HETATM   12  C   UNL     1      27.946  40.974  46.704  1.00  0.00     0.014 C 
HETATM   13  C   UNL     1      27.975  40.989  45.173  1.00  0.00     0.029 C 
HETATM   14  C   UNL     1      28.502  39.687  44.597  1.00  0.00     0.234 C 
ENDROOT
BRANCH   7  15
HETATM   15  C   UNL     1      27.509  41.979  49.960  1.00  0.00     0.323 C 
BRANCH  15  16
HETATM   16  C   UNL     1      28.050  42.085  51.338  1.00  0.00     0.199 A 
HETATM   17  O   UNL     1      27.989  40.977  52.119  1.00  0.00    -0.194 OA
HETATM   18  N   UNL     1      28.396  41.374  53.385  1.00  0.00    -0.106 NA
HETATM   19  C   UNL     1      28.703  42.675  53.245  1.00  0.00     0.189 A 
HETATM   20  N   UNL     1      28.424  43.166  51.980  1.00  0.00    -0.202 NA
BRANCH  19  21
HETATM   21  C   UNL     1      29.230  43.516  54.311  1.00  0.00     0.016 A 
HETATM   22  C   UNL     1      30.288  43.077  55.120  1.00  0.00     0.039 A 
HETATM   23  C   UNL     1      30.778  43.894  56.139  1.00  0.00     0.035 A 
HETATM   24 CL   UNL     1      32.060  43.331  57.136  1.00  0.00    -0.084 Cl
HETATM   25  C   UNL     1      30.234  45.158  56.359  1.00  0.00     0.024 A 
HETATM   26  C   UNL     1      29.187  45.608  55.556  1.00  0.00     0.003 A 
HETATM   27  C   UNL     1      28.684  44.790  54.540  1.00  0.00     0.015 A 
ENDBRANCH  19  21
ENDBRANCH  15  16
ENDBRANCH   7  15
TORSDOF 3
ENDMDL
MODEL 7
REMARK VINA RESULT:      -8.0      4.413      5.624
REMARK  3 active torsions:
REMARK  status: ('A' for Active; 'I' for Inactive)
REMARK    1  A    between atoms: N_7  and  C_9 
REMARK    2  A    between atoms: C_9  and  C_10 
REMARK    3  A    between atoms: C_13  and  C_14 
ROOT
HETATM    1  C   UNL     1      20.860  46.055  47.343  1.00  0.00     0.269 C 
HETATM    2  N   UNL     1      21.149  44.645  47.798  1.00  0.00    -0.074 N 
HETATM    3  H   UNL     1      20.199  44.245  47.871  1.00  0.00     0.279 HD
HETATM    4  C   UNL     1      21.735  44.485  49.178  1.00  0.00     0.245 C 
HETATM    5  C   UNL     1      23.287  44.649  49.264  1.00  0.00     0.008 C 
HETATM    6  C   UNL     1      23.702  44.129  50.680  1.00  0.00     0.246 C 
HETATM    7  N   UNL     1      25.109  44.479  51.107  1.00  0.00    -0.063 N 
HETATM    8  H   UNL     1      25.117  44.317  52.130  1.00  0.00     0.280 HD
HETATM    9  C   UNL     1      25.448  45.935  50.964  1.00  0.00     0.235 C 
HETATM   10  C   UNL     1      25.156  46.403  49.551  1.00  0.00     0.029 C 
HETATM   11  C   UNL     1      23.702  46.137  49.149  1.00  0.00     0.014 C 
HETATM   12  C   UNL     1      23.928  43.798  48.138  1.00  0.00     0.014 C 
HETATM   13  C   UNL     1      23.314  44.032  46.755  1.00  0.00     0.029 C 
HETATM   14  C   UNL     1      21.814  43.796  46.747  1.00  0.00     0.234 C 
ENDROOT
BRANCH   7  15
HETATM   15  C   UNL     1      26.234  43.525  50.671  1.00  0.00     0.323 C 
BRANCH  15  16
HETATM   16  C   UNL     1      27.353  43.492  51.646  1.00  0.00     0.199 A 
HETATM   17  O   UNL     1      28.245  42.476  51.536  1.00  0.00    -0.194 OA
HETATM   18  N   UNL     1      29.080  42.574  52.641  1.00  0.00    -0.106 NA
HETATM   19  C   UNL     1      28.640  43.661  53.297  1.00  0.00     0.189 A 
HETATM   20  N   UNL     1      27.505  44.216  52.729  1.00  0.00    -0.202 NA
BRANCH  19  21
HETATM   21  C   UNL     1      29.246  44.193  54.510  1.00  0.00     0.016 A 
HETATM   22  C   UNL     1      30.277  43.502  55.163  1.00  0.00     0.039 A 
HETATM   23  C   UNL     1      30.844  44.025  56.326  1.00  0.00     0.035 A 
HETATM   24 CL   UNL     1      32.092  43.155  57.127  1.00  0.00    -0.084 Cl
HETATM   25  C   UNL     1      30.405  45.240  56.846  1.00  0.00     0.024 A 
HETATM   26  C   UNL     1      29.385  45.939  56.201  1.00  0.00     0.003 A 
HETATM   27  C   UNL     1      28.805  45.416  55.041  1.00  0.00     0.015 A 
ENDBRANCH  19  21
ENDBRANCH  15  16
ENDBRANCH   7  15
TORSDOF 3
ENDMDL
MODEL 8
REMARK VINA RESULT:      -7.8      9.362     10.962
REMARK  3 active torsions:
REMARK  status: ('A' for Active; 'I' for Inactive)
REMARK    1  A    between atoms: N_7  and  C_9 
REMARK    2  A    between atoms: C_9  and  C_10 
REMARK    3  A    between atoms: C_13  and  C_14 
ROOT
HETATM    1  C   UNL     1      16.967  52.284  48.192  1.00  0.00     0.269 C 
HETATM    2  N   UNL     1      17.070  50.778  48.188  1.00  0.00    -0.074 N 
HETATM    3  H   UNL     1      16.140  50.500  48.541  1.00  0.00     0.279 HD
HETATM    4  C   UNL     1      18.044  50.164  49.161  1.00  0.00     0.245 C 
HETATM    5  C   UNL     1      19.526  50.097  48.666  1.00  0.00     0.008 C 
HETATM    6  C   UNL     1      20.275  49.153  49.662  1.00  0.00     0.246 C 
HETATM    7  N   UNL     1      21.784  49.185  49.568  1.00  0.00    -0.063 N 
HETATM    8  H   UNL     1      22.108  48.743  50.447  1.00  0.00     0.280 HD
HETATM    9  C   UNL     1      22.371  50.568  49.615  1.00  0.00     0.235 C 
HETATM   10  C   UNL     1      21.722  51.446  48.562  1.00  0.00     0.029 C 
HETATM   11  C   UNL     1      20.198  51.492  48.715  1.00  0.00     0.014 C 
HETATM   12  C   UNL     1      19.531  49.522  47.227  1.00  0.00     0.014 C 
HETATM   13  C   UNL     1      18.546  50.210  46.278  1.00  0.00     0.029 C 
HETATM   14  C   UNL     1      17.124  50.180  46.807  1.00  0.00     0.234 C 
ENDROOT
BRANCH   7  15
HETATM   15  C   UNL     1      22.445  48.256  48.536  1.00  0.00     0.323 C 
BRANCH  15  16
HETATM   16  C   UNL     1      23.308  47.231  49.174  1.00  0.00     0.199 A 
HETATM   17  O   UNL     1      23.115  45.939  48.807  1.00  0.00    -0.194 OA
HETATM   18  N   UNL     1      23.911  45.175  49.650  1.00  0.00    -0.106 NA
HETATM   19  C   UNL     1      24.541  46.077  50.422  1.00  0.00     0.189 A 
HETATM   20  N   UNL     1      24.123  47.377  50.191  1.00  0.00    -0.202 NA
BRANCH  19  21
HETATM   21  C   UNL     1      25.531  45.743  51.438  1.00  0.00     0.016 A 
HETATM   22  C   UNL     1      26.409  44.664  51.262  1.00  0.00     0.039 A 
HETATM   23  C   UNL     1      27.348  44.357  52.247  1.00  0.00     0.035 A 
HETATM   24 CL   UNL     1      28.402  43.017  52.027  1.00  0.00    -0.084 Cl
HETATM   25  C   UNL     1      27.434  45.121  53.409  1.00  0.00     0.024 A 
HETATM   26  C   UNL     1      26.570  46.200  53.591  1.00  0.00     0.003 A 
HETATM   27  C   UNL     1      25.620  46.508  52.613  1.00  0.00     0.015 A 
ENDBRANCH  19  21
ENDBRANCH  15  16
ENDBRANCH   7  15
TORSDOF 3
ENDMDL
MODEL 9
REMARK VINA RESULT:      -7.6      9.813     11.483
REMARK  3 active torsions:
REMARK  status: ('A' for Active; 'I' for Inactive)
REMARK    1  A    between atoms: N_7  and  C_9 
REMARK    2  A    between atoms: C_9  and  C_10 
REMARK    3  A    between atoms: C_13  and  C_14 
ROOT
HETATM    1  C   UNL     1      15.592  50.254  47.915  1.00  0.00     0.269 C 
HETATM    2  N   UNL     1      16.368  48.965  47.797  1.00  0.00    -0.074 N 
HETATM    3  H   UNL     1      15.638  48.258  47.983  1.00  0.00     0.279 HD
HETATM    4  C   UNL     1      17.420  48.709  48.846  1.00  0.00     0.245 C 
HETATM    5  C   UNL     1      18.809  49.372  48.571  1.00  0.00     0.008 C 
HETATM    6  C   UNL     1      19.809  48.722  49.582  1.00  0.00     0.246 C 
HETATM    7  N   UNL     1      21.140  49.428  49.715  1.00  0.00    -0.063 N 
HETATM    8  H   UNL     1      21.545  49.052  50.591  1.00  0.00     0.280 HD
HETATM    9  C   UNL     1      21.027  50.905  49.967  1.00  0.00     0.235 C 
HETATM   10  C   UNL     1      20.150  51.549  48.910  1.00  0.00     0.029 C 
HETATM   11  C   UNL     1      18.766  50.898  48.840  1.00  0.00     0.014 C 
HETATM   12  C   UNL     1      19.209  49.071  47.105  1.00  0.00     0.014 C 
HETATM   13  C   UNL     1      18.112  49.385  46.084  1.00  0.00     0.029 C 
HETATM   14  C   UNL     1      16.816  48.657  46.392  1.00  0.00     0.234 C 
ENDROOT
BRANCH   7  15
HETATM   15  C   UNL     1      22.244  49.042  48.716  1.00  0.00     0.323 C 
BRANCH  15  16
HETATM   16  C   UNL     1      23.237  48.112  49.307  1.00  0.00     0.199 A 
HETATM   17  O   UNL     1      24.106  48.622  50.215  1.00  0.00    -0.194 OA
HETATM   18  N   UNL     1      25.019  47.612  50.487  1.00  0.00    -0.106 NA
HETATM   19  C   UNL     1      24.596  46.572  49.748  1.00  0.00     0.189 A 
HETATM   20  N   UNL     1      23.516  46.884  48.938  1.00  0.00    -0.202 NA
BRANCH  19  21
HETATM   21  C   UNL     1      25.222  45.257  49.743  1.00  0.00     0.016 A 
HETATM   22  C   UNL     1      24.503  44.118  49.352  1.00  0.00     0.039 A 
HETATM   23  C   UNL     1      25.117  42.865  49.358  1.00  0.00     0.035 A 
HETATM   24 CL   UNL     1      24.215  41.476  48.897  1.00  0.00    -0.084 Cl
HETATM   25  C   UNL     1      26.450  42.730  49.739  1.00  0.00     0.024 A 
HETATM   26  C   UNL     1      27.176  43.856  50.124  1.00  0.00     0.003 A 
HETATM   27  C   UNL     1      26.564  45.113  50.130  1.00  0.00     0.015 A 
ENDBRANCH  19  21
ENDBRANCH  15  16
ENDBRANCH   7  15
TORSDOF 3
ENDMDL
MODEL 10
REMARK VINA RESULT:      -7.4     16.287     17.498
REMARK  3 active torsions:
REMARK  status: ('A' for Active; 'I' for Inactive)
REMARK    1  A    between atoms: N_7  and  C_9 
REMARK    2  A    between atoms: C_9  and  C_10 
REMARK    3  A    between atoms: C_13  and  C_14 
ROOT
HETATM    1  C   UNL     1      27.645  51.350  40.313  1.00  0.00     0.269 C 
HETATM    2  N   UNL     1      28.793  52.100  39.682  1.00  0.00    -0.074 N 
HETATM    3  H   UNL     1      28.369  52.440  38.804  1.00  0.00     0.279 HD
HETATM    4  C   UNL     1      29.977  51.278  39.238  1.00  0.00     0.245 C 
HETATM    5  C   UNL     1      31.022  50.960  40.356  1.00  0.00     0.008 C 
HETATM    6  C   UNL     1      32.287  50.403  39.624  1.00  0.00     0.246 C 
HETATM    7  N   UNL     1      33.307  49.737  40.518  1.00  0.00    -0.063 N 
HETATM    8  H   UNL     1      33.908  49.198  39.868  1.00  0.00     0.280 HD
HETATM    9  C   UNL     1      32.731  48.694  41.434  1.00  0.00     0.235 C 
HETATM   10  C   UNL     1      31.580  49.278  42.230  1.00  0.00     0.029 C 
HETATM   11  C   UNL     1      30.497  49.868  41.322  1.00  0.00     0.014 C 
HETATM   12  C   UNL     1      31.339  52.275  41.113  1.00  0.00     0.014 C 
HETATM   13  C   UNL     1      30.097  53.045  41.569  1.00  0.00     0.029 C 
HETATM   14  C   UNL     1      29.164  53.363  40.414  1.00  0.00     0.234 C 
ENDROOT
BRANCH   7  15
HETATM   15  C   UNL     1      34.361  50.641  41.179  1.00  0.00     0.323 C 
BRANCH  15  16
HETATM   16  C   UNL     1      34.897  51.659  40.240  1.00  0.00     0.199 A 
HETATM   17  O   UNL     1      35.713  51.222  39.248  1.00  0.00    -0.194 OA
HETATM   18  N   UNL     1      36.203  52.360  38.622  1.00  0.00    -0.106 NA
HETATM   19  C   UNL     1      35.610  53.379  39.269  1.00  0.00     0.189 A 
HETATM   20  N   UNL     1      34.837  52.965  40.342  1.00  0.00    -0.202 NA
BRANCH  19  21
HETATM   21  C   UNL     1      35.783  54.784  38.927  1.00  0.00     0.016 A 
HETATM   22  C   UNL     1      34.846  55.745  39.330  1.00  0.00     0.039 A 
HETATM   23  C   UNL     1      35.026  57.086  38.991  1.00  0.00     0.035 A 
HETATM   24 CL   UNL     1      33.856  58.249  39.475  1.00  0.00    -0.084 Cl
HETATM   25  C   UNL     1      36.141  57.490  38.259  1.00  0.00     0.024 A 
HETATM   26  C   UNL     1      37.083  56.544  37.858  1.00  0.00     0.003 A 
HETATM   27  C   UNL     1      36.903  55.197  38.186  1.00  0.00     0.015 A 
ENDBRANCH  19  21
ENDBRANCH  15  16
ENDBRANCH   7  15
TORSDOF 3
ENDMDL
