MODEL 1
REMARK VINA RESULT:      -9.1      0.000      0.000
REMARK  5 active torsions:
REMARK  status: ('A' for Active; 'I' for Inactive)
REMARK    1  A    between atoms: C_5  and  N_6 
REMARK       I    between atoms: N_6  and  C_7 
REMARK    2  A    between atoms: C_7  and  C_8 
REMARK    3  A    between atoms: C_9  and  C_10 
REMARK    4  A    between atoms: C_13  and  O_14 
REMARK    5  A    between atoms: N_20  and  C_21 
ROOT
HETATM    1  C   UNL     1      24.922  45.299  50.348  1.00  0.00     0.060 C 
HETATM    2  C   UNL     1      24.729  46.663  50.911  1.00  0.00     0.158 C 
HETATM    3  N   UNL     1      25.318  46.751  52.223  1.00  0.00    -0.354 N 
HETATM    4  C   UNL     1      26.254  45.906  52.748  1.00  0.00     0.179 C 
HETATM    5  S   UNL     1      26.908  46.409  54.215  1.00  0.00    -0.040 SA
HETATM    6  N   UNL     1      26.508  44.712  52.032  1.00  0.00    -0.292 N 
HETATM    7  C   UNL     1      25.770  44.388  50.868  1.00  0.00     0.030 C 
HETATM    8  C   UNL     1      26.001  43.048  50.200  1.00  0.00     0.070 C 
HETATM    9  H   UNL     1      25.164  47.601  52.752  1.00  0.00     0.163 HD
ENDROOT
BRANCH   1  10
HETATM   10  C   UNL     1      23.992  44.929  49.246  1.00  0.00     0.257 C 
HETATM   11  N   UNL     1      22.675  45.197  49.537  1.00  0.00    -0.306 N 
HETATM   12  H   UNL     1      22.432  45.636  50.413  1.00  0.00     0.170 HD
HETATM   13  O   UNL     1      24.455  44.431  48.228  1.00  0.00    -0.267 OA
BRANCH  11  14
HETATM   14  C   UNL     1      21.615  44.834  48.725  1.00  0.00     0.160 A 
HETATM   15  N   UNL     1      21.480  43.671  48.085  1.00  0.00    -0.110 NA
HETATM   16  O   UNL     1      20.274  43.727  47.419  1.00  0.00    -0.216 OA
HETATM   17  C   UNL     1      19.679  44.922  47.665  1.00  0.00     0.078 A 
HETATM   18  C   UNL     1      18.361  45.145  47.043  1.00  0.00     0.079 C 
HETATM   19  C   UNL     1      20.493  45.666  48.482  1.00  0.00     0.087 A 
ENDBRANCH  11  14
ENDBRANCH   1  10
BRANCH   2  20
HETATM   20  C   UNL     1      25.301  47.764  50.026  1.00  0.00    -0.031 A 
HETATM   21  C   UNL     1      26.692  47.943  49.933  1.00  0.00     0.012 A 
HETATM   22  C   UNL     1      27.228  48.967  49.148  1.00  0.00     0.037 A 
HETATM   23  C   UNL     1      26.374  49.817  48.454  1.00  0.00     0.065 A 
HETATM   24  C   UNL     1      24.997  49.659  48.529  1.00  0.00     0.037 A 
HETATM   25  C   UNL     1      24.461  48.634  49.307  1.00  0.00     0.012 A 
BRANCH  23  26
HETATM   26  O   UNL     1      26.854  50.830  47.679  1.00  0.00    -0.361 OA
HETATM   27  H   UNL     1      26.157  51.114  47.064  1.00  0.00     0.217 HD
ENDBRANCH  23  26
ENDBRANCH   2  20
BRANCH   6  28
HETATM   28  C   UNL     1      27.428  43.766  52.602  1.00  0.00     0.042 A 
HETATM   29  C   UNL     1      26.990  42.839  53.557  1.00  0.00     0.030 A 
HETATM   30  C   UNL     1      27.888  41.928  54.114  1.00  0.00     0.002 A 
HETATM   31  C   UNL     1      29.227  41.940  53.725  1.00  0.00     0.000 A 
HETATM   32  C   UNL     1      29.671  42.861  52.777  1.00  0.00     0.002 A 
HETATM   33  C   UNL     1      28.774  43.773  52.214  1.00  0.00     0.030 A 
ENDBRANCH   6  28
TORSDOF 5
ENDMDL
MODEL 2
REMARK VINA RESULT:      -8.9      4.980      9.723
REMARK  5 active torsions:
REMARK  status: ('A' for Active; 'I' for Inactive)
REMARK    1  A    between atoms: C_5  and  N_6 
REMARK       I    between atoms: N_6  and  C_7 
REMARK    2  A    between atoms: C_7  and  C_8 
REMARK    3  A    between atoms: C_9  and  C_10 
REMARK    4  A    between atoms: C_13  and  O_14 
REMARK    5  A    between atoms: N_20  and  C_21 
ROOT
HETATM    1  C   UNL     1      20.848  49.190  48.938  1.00  0.00     0.060 C 
HETATM    2  C   UNL     1      20.609  47.732  49.119  1.00  0.00     0.158 C 
HETATM    3  N   UNL     1      19.210  47.479  49.350  1.00  0.00    -0.354 N 
HETATM    4  C   UNL     1      18.176  48.324  49.060  1.00  0.00     0.179 C 
HETATM    5  S   UNL     1      16.646  47.646  49.238  1.00  0.00    -0.040 SA
HETATM    6  N   UNL     1      18.517  49.652  48.711  1.00  0.00    -0.292 N 
HETATM    7  C   UNL     1      19.864  50.089  48.731  1.00  0.00     0.030 C 
HETATM    8  C   UNL     1      20.168  51.548  48.457  1.00  0.00     0.070 C 
HETATM    9  H   UNL     1      18.935  46.533  49.588  1.00  0.00     0.163 HD
ENDROOT
BRANCH   1  10
HETATM   10  C   UNL     1      22.251  49.636  49.158  1.00  0.00     0.257 C 
HETATM   11  N   UNL     1      23.090  49.318  48.117  1.00  0.00    -0.306 N 
HETATM   12  H   UNL     1      22.722  48.859  47.296  1.00  0.00     0.170 HD
HETATM   13  O   UNL     1      22.527  50.211  50.203  1.00  0.00    -0.267 OA
BRANCH  11  14
HETATM   14  C   UNL     1      24.458  49.520  48.138  1.00  0.00     0.160 A 
HETATM   15  N   UNL     1      25.137  50.373  47.367  1.00  0.00    -0.110 NA
HETATM   16  O   UNL     1      26.462  50.267  47.737  1.00  0.00    -0.216 OA
HETATM   17  C   UNL     1      26.579  49.355  48.736  1.00  0.00     0.078 A 
HETATM   18  C   UNL     1      27.934  49.130  49.270  1.00  0.00     0.079 C 
HETATM   19  C   UNL     1      25.337  48.845  49.022  1.00  0.00     0.087 A 
ENDBRANCH  11  14
ENDBRANCH   1  10
BRANCH   2  20
HETATM   20  C   UNL     1      21.086  46.894  47.938  1.00  0.00    -0.031 A 
HETATM   21  C   UNL     1      20.497  47.061  46.673  1.00  0.00     0.012 A 
HETATM   22  C   UNL     1      20.905  46.279  45.588  1.00  0.00     0.037 A 
HETATM   23  C   UNL     1      21.903  45.327  45.766  1.00  0.00     0.065 A 
HETATM   24  C   UNL     1      22.500  45.146  47.007  1.00  0.00     0.037 A 
HETATM   25  C   UNL     1      22.098  45.929  48.088  1.00  0.00     0.012 A 
BRANCH  23  26
HETATM   26  O   UNL     1      22.329  44.543  44.738  1.00  0.00    -0.361 OA
HETATM   27  H   UNL     1      21.631  44.501  44.063  1.00  0.00     0.217 HD
ENDBRANCH  23  26
ENDBRANCH   2  20
BRANCH   6  28
HETATM   28  C   UNL     1      17.449  50.586  48.481  1.00  0.00     0.042 A 
HETATM   29  C   UNL     1      16.927  51.339  49.541  1.00  0.00     0.030 A 
HETATM   30  C   UNL     1      15.884  52.239  49.315  1.00  0.00     0.002 A 
HETATM   31  C   UNL     1      15.353  52.386  48.034  1.00  0.00     0.000 A 
HETATM   32  C   UNL     1      15.865  51.637  46.976  1.00  0.00     0.002 A 
HETATM   33  C   UNL     1      16.913  50.739  47.196  1.00  0.00     0.030 A 
ENDBRANCH   6  28
TORSDOF 5
ENDMDL
MODEL 3
REMARK VINA RESULT:      -8.7      2.137      2.663
REMARK  5 active torsions:
REMARK  status: ('A' for Active; 'I' for Inactive)
REMARK    1  A    between atoms: C_5  and  N_6 
REMARK       I    between atoms: N_6  and  C_7 
REMARK    2  A    between atoms: C_7  and  C_8 
REMARK    3  A    between atoms: C_9  and  C_10 
REMARK    4  A    between atoms: C_13  and  O_14 
REMARK    5  A    between atoms: N_20  and  C_21 
ROOT
HETATM    1  C   UNL     1      23.822  45.304  49.293  1.00  0.00     0.060 C 
HETATM    2  C   UNL     1      24.299  46.303  50.290  1.00  0.00     0.158 C 
HETATM    3  N   UNL     1      25.185  45.679  51.238  1.00  0.00    -0.354 N 
HETATM    4  C   UNL     1      25.838  44.490  51.076  1.00  0.00     0.179 C 
HETATM    5  S   UNL     1      26.975  44.146  52.268  1.00  0.00    -0.040 SA
HETATM    6  N   UNL     1      25.441  43.690  49.979  1.00  0.00    -0.292 N 
HETATM    7  C   UNL     1      24.371  44.082  49.139  1.00  0.00     0.030 C 
HETATM    8  C   UNL     1      23.910  43.140  48.045  1.00  0.00     0.070 C 
HETATM    9  H   UNL     1      25.496  46.233  52.027  1.00  0.00     0.163 HD
ENDROOT
BRANCH   1  10
HETATM   10  C   UNL     1      22.578  45.677  48.566  1.00  0.00     0.257 C 
HETATM   11  N   UNL     1      21.432  45.356  49.253  1.00  0.00    -0.306 N 
HETATM   12  H   UNL     1      21.496  44.943  50.173  1.00  0.00     0.170 HD
HETATM   13  O   UNL     1      22.677  46.203  47.465  1.00  0.00    -0.267 OA
BRANCH  11  14
HETATM   14  C   UNL     1      20.157  45.493  48.736  1.00  0.00     0.160 A 
HETATM   15  N   UNL     1      19.410  44.513  48.221  1.00  0.00    -0.110 NA
HETATM   16  O   UNL     1      18.211  45.087  47.853  1.00  0.00    -0.216 OA
HETATM   17  C   UNL     1      18.233  46.410  48.153  1.00  0.00     0.078 A 
HETATM   18  C   UNL     1      17.014  47.179  47.843  1.00  0.00     0.079 C 
HETATM   19  C   UNL     1      19.449  46.721  48.709  1.00  0.00     0.087 A 
ENDBRANCH  11  14
ENDBRANCH   1  10
BRANCH   2  20
HETATM   20  C   UNL     1      25.000  47.497  49.654  1.00  0.00    -0.031 A 
HETATM   21  C   UNL     1      26.404  47.542  49.596  1.00  0.00     0.012 A 
HETATM   22  C   UNL     1      27.060  48.645  49.041  1.00  0.00     0.037 A 
HETATM   23  C   UNL     1      26.313  49.707  48.544  1.00  0.00     0.065 A 
HETATM   24  C   UNL     1      24.926  49.685  48.588  1.00  0.00     0.037 A 
HETATM   25  C   UNL     1      24.270  48.582  49.135  1.00  0.00     0.012 A 
BRANCH  23  26
HETATM   26  O   UNL     1      26.912  50.802  47.997  1.00  0.00    -0.361 OA
HETATM   27  H   UNL     1      26.273  51.256  47.422  1.00  0.00     0.217 HD
ENDBRANCH  23  26
ENDBRANCH   2  20
BRANCH   6  28
HETATM   28  C   UNL     1      26.052  42.397  49.829  1.00  0.00     0.042 A 
HETATM   29  C   UNL     1      27.119  42.217  48.939  1.00  0.00     0.030 A 
HETATM   30  C   UNL     1      27.704  40.959  48.791  1.00  0.00     0.002 A 
HETATM   31  C   UNL     1      27.224  39.874  49.524  1.00  0.00     0.000 A 
HETATM   32  C   UNL     1      26.161  40.045  50.409  1.00  0.00     0.002 A 
HETATM   33  C   UNL     1      25.575  41.304  50.565  1.00  0.00     0.030 A 
ENDBRANCH   6  28
TORSDOF 5
ENDMDL
MODEL 4
REMARK VINA RESULT:      -8.4      2.458      3.104
REMARK  5 active torsions:
REMARK  status: ('A' for Active; 'I' for Inactive)
REMARK    1  A    between atoms: C_5  and  N_6 
REMARK       I    between atoms: N_6  and  C_7 
REMARK    2  A    between atoms: C_7  and  C_8 
REMARK    3  A    between atoms: C_9  and  C_10 
REMARK    4  A    between atoms: C_13  and  O_14 
REMARK    5  A    between atoms: N_20  and  C_21 
ROOT
HETATM    1  C   UNL     1      26.258  45.084  51.327  1.00  0.00     0.060 C 
HETATM    2  C   UNL     1      25.338  46.244  51.486  1.00  0.00     0.158 C 
HETATM    3  N   UNL     1      25.424  46.770  52.825  1.00  0.00    -0.354 N 
HETATM    4  C   UNL     1      26.438  46.557  53.715  1.00  0.00     0.179 C 
HETATM    5  S   UNL     1      26.353  47.492  55.111  1.00  0.00    -0.040 SA
HETATM    6  N   UNL     1      27.379  45.555  53.381  1.00  0.00    -0.292 N 
HETATM    7  C   UNL     1      27.227  44.771  52.212  1.00  0.00     0.030 C 
HETATM    8  C   UNL     1      28.198  43.637  51.954  1.00  0.00     0.070 C 
HETATM    9  H   UNL     1      24.771  47.498  53.087  1.00  0.00     0.163 HD
ENDROOT
BRANCH   1  10
HETATM   10  C   UNL     1      25.944  44.175  50.191  1.00  0.00     0.257 C 
HETATM   11  N   UNL     1      24.858  43.367  50.429  1.00  0.00    -0.306 N 
HETATM   12  H   UNL     1      24.345  43.455  51.295  1.00  0.00     0.170 HD
HETATM   13  O   UNL     1      26.651  44.216  49.193  1.00  0.00    -0.267 OA
BRANCH  11  14
HETATM   14  C   UNL     1      24.443  42.359  49.577  1.00  0.00     0.160 A 
HETATM   15  N   UNL     1      25.143  41.269  49.253  1.00  0.00    -0.110 NA
HETATM   16  O   UNL     1      24.345  40.529  48.405  1.00  0.00    -0.216 OA
HETATM   17  C   UNL     1      23.162  41.169  48.226  1.00  0.00     0.078 A 
HETATM   18  C   UNL     1      22.174  40.503  47.358  1.00  0.00     0.079 C 
HETATM   19  C   UNL     1      23.176  42.341  48.942  1.00  0.00     0.087 A 
ENDBRANCH  11  14
ENDBRANCH   1  10
BRANCH   2  20
HETATM   20  C   UNL     1      25.604  47.363  50.487  1.00  0.00    -0.031 A 
HETATM   21  C   UNL     1      24.532  47.993  49.831  1.00  0.00     0.012 A 
HETATM   22  C   UNL     1      24.764  49.001  48.891  1.00  0.00     0.037 A 
HETATM   23  C   UNL     1      26.070  49.381  48.602  1.00  0.00     0.065 A 
HETATM   24  C   UNL     1      27.146  48.774  49.237  1.00  0.00     0.037 A 
HETATM   25  C   UNL     1      26.915  47.773  50.180  1.00  0.00     0.012 A 
BRANCH  23  26
HETATM   26  O   UNL     1      26.341  50.356  47.691  1.00  0.00    -0.361 OA
HETATM   27  H   UNL     1      26.421  51.207  48.154  1.00  0.00     0.217 HD
ENDBRANCH  23  26
ENDBRANCH   2  20
BRANCH   6  28
HETATM   28  C   UNL     1      28.410  45.251  54.336  1.00  0.00     0.042 A 
HETATM   29  C   UNL     1      28.942  46.260  55.149  1.00  0.00     0.030 A 
HETATM   30  C   UNL     1      29.949  45.963  56.068  1.00  0.00     0.002 A 
HETATM   31  C   UNL     1      30.433  44.660  56.177  1.00  0.00     0.000 A 
HETATM   32  C   UNL     1      29.911  43.651  55.368  1.00  0.00     0.002 A 
HETATM   33  C   UNL     1      28.900  43.943  54.450  1.00  0.00     0.030 A 
ENDBRANCH   6  28
TORSDOF 5
ENDMDL
MODEL 5
REMARK VINA RESULT:      -8.1      2.959      3.957
REMARK  5 active torsions:
REMARK  status: ('A' for Active; 'I' for Inactive)
REMARK    1  A    between atoms: C_5  and  N_6 
REMARK       I    between atoms: N_6  and  C_7 
REMARK    2  A    between atoms: C_7  and  C_8 
REMARK    3  A    between atoms: C_9  and  C_10 
REMARK    4  A    between atoms: C_13  and  O_14 
REMARK    5  A    between atoms: N_20  and  C_21 
ROOT
HETATM    1  C   UNL     1      24.590  42.646  50.210  1.00  0.00     0.060 C 
HETATM    2  C   UNL     1      25.179  43.408  51.345  1.00  0.00     0.158 C 
HETATM    3  N   UNL     1      26.277  42.675  51.923  1.00  0.00    -0.354 N 
HETATM    4  C   UNL     1      26.970  41.657  51.333  1.00  0.00     0.179 C 
HETATM    5  S   UNL     1      28.341  41.162  52.175  1.00  0.00    -0.040 SA
HETATM    6  N   UNL     1      26.425  41.120  50.143  1.00  0.00    -0.292 N 
HETATM    7  C   UNL     1      25.185  41.579  49.637  1.00  0.00     0.030 C 
HETATM    8  C   UNL     1      24.588  40.899  48.421  1.00  0.00     0.070 C 
HETATM    9  H   UNL     1      26.696  43.044  52.768  1.00  0.00     0.163 HD
ENDROOT
BRANCH   1  10
HETATM   10  C   UNL     1      23.204  43.037  49.834  1.00  0.00     0.257 C 
HETATM   11  N   UNL     1      23.150  43.825  48.710  1.00  0.00    -0.306 N 
HETATM   12  H   UNL     1      23.999  44.052  48.212  1.00  0.00     0.170 HD
HETATM   13  O   UNL     1      22.275  42.649  50.531  1.00  0.00    -0.267 OA
BRANCH  11  14
HETATM   14  C   UNL     1      21.991  44.412  48.232  1.00  0.00     0.160 A 
HETATM   15  N   UNL     1      21.026  43.796  47.546  1.00  0.00    -0.110 NA
HETATM   16  O   UNL     1      20.057  44.746  47.296  1.00  0.00    -0.216 OA
HETATM   17  C   UNL     1      20.435  45.930  47.839  1.00  0.00     0.078 A 
HETATM   18  C   UNL     1      19.499  47.059  47.682  1.00  0.00     0.079 C 
HETATM   19  C   UNL     1      21.661  45.775  48.437  1.00  0.00     0.087 A 
ENDBRANCH  11  14
ENDBRANCH   1  10
BRANCH   2  20
HETATM   20  C   UNL     1      25.654  44.801  50.951  1.00  0.00    -0.031 A 
HETATM   21  C   UNL     1      25.120  45.934  51.588  1.00  0.00     0.012 A 
HETATM   22  C   UNL     1      25.526  47.219  51.217  1.00  0.00     0.037 A 
HETATM   23  C   UNL     1      26.465  47.375  50.204  1.00  0.00     0.065 A 
HETATM   24  C   UNL     1      27.008  46.270  49.560  1.00  0.00     0.037 A 
HETATM   25  C   UNL     1      26.609  44.988  49.935  1.00  0.00     0.012 A 
BRANCH  23  26
HETATM   26  O   UNL     1      26.887  48.608  49.808  1.00  0.00    -0.361 OA
HETATM   27  H   UNL     1      26.360  49.283  50.267  1.00  0.00     0.217 HD
ENDBRANCH  23  26
ENDBRANCH   2  20
BRANCH   6  28
HETATM   28  C   UNL     1      27.087  39.993  49.544  1.00  0.00     0.042 A 
HETATM   29  C   UNL     1      28.125  40.189  48.624  1.00  0.00     0.030 A 
HETATM   30  C   UNL     1      28.759  39.092  48.038  1.00  0.00     0.002 A 
HETATM   31  C   UNL     1      28.357  37.797  48.363  1.00  0.00     0.000 A 
HETATM   32  C   UNL     1      27.323  37.595  49.276  1.00  0.00     0.002 A 
HETATM   33  C   UNL     1      26.688  38.690  49.868  1.00  0.00     0.030 A 
ENDBRANCH   6  28
TORSDOF 5
ENDMDL
MODEL 6
REMARK VINA RESULT:      -8.1      3.862      6.242
REMARK  5 active torsions:
REMARK  status: ('A' for Active; 'I' for Inactive)
REMARK    1  A    between atoms: C_5  and  N_6 
REMARK       I    between atoms: N_6  and  C_7 
REMARK    2  A    between atoms: C_7  and  C_8 
REMARK    3  A    between atoms: C_9  and  C_10 
REMARK    4  A    between atoms: C_13  and  O_14 
REMARK    5  A    between atoms: N_20  and  C_21 
ROOT
HETATM    1  C   UNL     1      22.511  47.439  48.493  1.00  0.00     0.060 C 
HETATM    2  C   UNL     1      23.507  47.214  49.577  1.00  0.00     0.158 C 
HETATM    3  N   UNL     1      23.782  45.808  49.720  1.00  0.00    -0.354 N 
HETATM    4  C   UNL     1      23.527  44.835  48.795  1.00  0.00     0.179 C 
HETATM    5  S   UNL     1      24.172  43.327  49.169  1.00  0.00    -0.040 SA
HETATM    6  N   UNL     1      22.721  45.200  47.692  1.00  0.00    -0.292 N 
HETATM    7  C   UNL     1      22.154  46.494  47.598  1.00  0.00     0.030 C 
HETATM    8  C   UNL     1      21.208  46.803  46.455  1.00  0.00     0.070 C 
HETATM    9  H   UNL     1      24.369  45.519  50.494  1.00  0.00     0.163 HD
ENDROOT
BRANCH   1  10
HETATM   10  C   UNL     1      21.798  48.744  48.545  1.00  0.00     0.257 C 
HETATM   11  N   UNL     1      20.916  48.837  49.596  1.00  0.00    -0.306 N 
HETATM   12  H   UNL     1      20.833  48.074  50.253  1.00  0.00     0.170 HD
HETATM   13  O   UNL     1      22.037  49.580  47.684  1.00  0.00    -0.267 OA
BRANCH  11  14
HETATM   14  C   UNL     1      20.052  49.900  49.788  1.00  0.00     0.160 A 
HETATM   15  N   UNL     1      20.394  51.126  50.190  1.00  0.00    -0.110 NA
HETATM   16  O   UNL     1      19.231  51.867  50.221  1.00  0.00    -0.216 OA
HETATM   17  C   UNL     1      18.190  51.089  49.830  1.00  0.00     0.078 A 
HETATM   18  C   UNL     1      16.864  51.732  49.785  1.00  0.00     0.079 C 
HETATM   19  C   UNL     1      18.656  49.828  49.552  1.00  0.00     0.087 A 
ENDBRANCH  11  14
ENDBRANCH   1  10
BRANCH   2  20
HETATM   20  C   UNL     1      24.814  47.965  49.356  1.00  0.00    -0.031 A 
HETATM   21  C   UNL     1      26.009  47.479  49.913  1.00  0.00     0.012 A 
HETATM   22  C   UNL     1      27.211  48.173  49.741  1.00  0.00     0.037 A 
HETATM   23  C   UNL     1      27.219  49.357  49.013  1.00  0.00     0.065 A 
HETATM   24  C   UNL     1      26.051  49.857  48.453  1.00  0.00     0.037 A 
HETATM   25  C   UNL     1      24.854  49.162  48.618  1.00  0.00     0.012 A 
BRANCH  23  26
HETATM   26  O   UNL     1      28.366  50.067  48.824  1.00  0.00    -0.361 OA
HETATM   27  H   UNL     1      29.031  49.488  48.416  1.00  0.00     0.217 HD
ENDBRANCH  23  26
ENDBRANCH   2  20
BRANCH   6  28
HETATM   28  C   UNL     1      22.368  44.178  46.745  1.00  0.00     0.042 A 
HETATM   29  C   UNL     1      23.190  43.921  45.640  1.00  0.00     0.030 A 
HETATM   30  C   UNL     1      22.839  42.933  44.719  1.00  0.00     0.002 A 
HETATM   31  C   UNL     1      21.665  42.201  44.892  1.00  0.00     0.000 A 
HETATM   32  C   UNL     1      20.840  42.454  45.987  1.00  0.00     0.002 A 
HETATM   33  C   UNL     1      21.190  43.438  46.915  1.00  0.00     0.030 A 
ENDBRANCH   6  28
TORSDOF 5
ENDMDL
MODEL 7
REMARK VINA RESULT:      -8.0      2.638      4.955
REMARK  5 active torsions:
REMARK  status: ('A' for Active; 'I' for Inactive)
REMARK    1  A    between atoms: C_5  and  N_6 
REMARK       I    between atoms: N_6  and  C_7 
REMARK    2  A    between atoms: C_7  and  C_8 
REMARK    3  A    between atoms: C_9  and  C_10 
REMARK    4  A    between atoms: C_13  and  O_14 
REMARK    5  A    between atoms: N_20  and  C_21 
ROOT
HETATM    1  C   UNL     1      24.772  46.537  49.886  1.00  0.00     0.060 C 
HETATM    2  C   UNL     1      24.559  45.630  48.724  1.00  0.00     0.158 C 
HETATM    3  N   UNL     1      25.309  44.413  48.896  1.00  0.00    -0.354 N 
HETATM    4  C   UNL     1      25.817  43.933  50.069  1.00  0.00     0.179 C 
HETATM    5  S   UNL     1      26.445  42.375  49.977  1.00  0.00    -0.040 SA
HETATM    6  N   UNL     1      25.802  44.813  51.177  1.00  0.00    -0.292 N 
HETATM    7  C   UNL     1      25.344  46.146  51.044  1.00  0.00     0.030 C 
HETATM    8  C   UNL     1      25.450  47.083  52.230  1.00  0.00     0.070 C 
HETATM    9  H   UNL     1      25.325  43.757  48.123  1.00  0.00     0.163 HD
ENDROOT
BRANCH   1  10
HETATM   10  C   UNL     1      24.456  47.970  49.640  1.00  0.00     0.257 C 
HETATM   11  N   UNL     1      23.116  48.255  49.748  1.00  0.00    -0.306 N 
HETATM   12  H   UNL     1      22.465  47.527  50.006  1.00  0.00     0.170 HD
HETATM   13  O   UNL     1      25.371  48.735  49.365  1.00  0.00    -0.267 OA
BRANCH  11  14
HETATM   14  C   UNL     1      22.561  49.487  49.448  1.00  0.00     0.160 A 
HETATM   15  N   UNL     1      23.219  50.645  49.370  1.00  0.00    -0.110 NA
HETATM   16  O   UNL     1      22.288  51.603  49.024  1.00  0.00    -0.216 OA
HETATM   17  C   UNL     1      21.071  51.018  48.885  1.00  0.00     0.078 A 
HETATM   18  C   UNL     1      19.955  51.899  48.494  1.00  0.00     0.079 C 
HETATM   19  C   UNL     1      21.188  49.677  49.152  1.00  0.00     0.087 A 
ENDBRANCH  11  14
ENDBRANCH   1  10
BRANCH   2  20
HETATM   20  C   UNL     1      23.091  45.291  48.490  1.00  0.00    -0.031 A 
HETATM   21  C   UNL     1      22.488  45.587  47.255  1.00  0.00     0.012 A 
HETATM   22  C   UNL     1      21.136  45.307  47.037  1.00  0.00     0.037 A 
HETATM   23  C   UNL     1      20.383  44.732  48.054  1.00  0.00     0.065 A 
HETATM   24  C   UNL     1      20.957  44.429  49.282  1.00  0.00     0.037 A 
HETATM   25  C   UNL     1      22.308  44.701  49.498  1.00  0.00     0.012 A 
BRANCH  23  26
HETATM   26  O   UNL     1      19.062  44.445  47.885  1.00  0.00    -0.361 OA
HETATM   27  H   UNL     1      18.730  44.008  48.687  1.00  0.00     0.217 HD
ENDBRANCH  23  26
ENDBRANCH   2  20
BRANCH   6  28
HETATM   28  C   UNL     1      26.404  44.367  52.403  1.00  0.00     0.042 A 
HETATM   29  C   UNL     1      25.605  44.025  53.502  1.00  0.00     0.030 A 
HETATM   30  C   UNL     1      26.194  43.600  54.694  1.00  0.00     0.002 A 
HETATM   31  C   UNL     1      27.582  43.519  54.797  1.00  0.00     0.000 A 
HETATM   32  C   UNL     1      28.384  43.860  53.709  1.00  0.00     0.002 A 
HETATM   33  C   UNL     1      27.799  44.282  52.512  1.00  0.00     0.030 A 
ENDBRANCH   6  28
TORSDOF 5
ENDMDL
MODEL 8
REMARK VINA RESULT:      -8.0     12.642     16.342
REMARK  5 active torsions:
REMARK  status: ('A' for Active; 'I' for Inactive)
REMARK    1  A    between atoms: C_5  and  N_6 
REMARK       I    between atoms: N_6  and  C_7 
REMARK    2  A    between atoms: C_7  and  C_8 
REMARK    3  A    between atoms: C_9  and  C_10 
REMARK    4  A    between atoms: C_13  and  O_14 
REMARK    5  A    between atoms: N_20  and  C_21 
ROOT
HETATM    1  C   UNL     1      34.495  51.554  41.237  1.00  0.00     0.060 C 
HETATM    2  C   UNL     1      34.999  51.630  39.838  1.00  0.00     0.158 C 
HETATM    3  N   UNL     1      33.933  51.368  38.906  1.00  0.00    -0.354 N 
HETATM    4  C   UNL     1      32.594  51.436  39.168  1.00  0.00     0.179 C 
HETATM    5  S   UNL     1      31.606  51.297  37.813  1.00  0.00    -0.040 SA
HETATM    6  N   UNL     1      32.216  51.555  40.527  1.00  0.00    -0.292 N 
HETATM    7  C   UNL     1      33.185  51.534  41.558  1.00  0.00     0.030 C 
HETATM    8  C   UNL     1      32.724  51.553  43.002  1.00  0.00     0.070 C 
HETATM    9  H   UNL     1      34.173  51.292  37.925  1.00  0.00     0.163 HD
ENDROOT
BRANCH   1  10
HETATM   10  C   UNL     1      35.537  51.339  42.277  1.00  0.00     0.257 C 
HETATM   11  N   UNL     1      35.912  52.496  42.916  1.00  0.00    -0.306 N 
HETATM   12  H   UNL     1      35.462  53.369  42.681  1.00  0.00     0.170 HD
HETATM   13  O   UNL     1      35.958  50.204  42.460  1.00  0.00    -0.267 OA
BRANCH  11  14
HETATM   14  C   UNL     1      36.945  52.573  43.833  1.00  0.00     0.160 A 
HETATM   15  N   UNL     1      36.911  52.125  45.090  1.00  0.00    -0.110 NA
HETATM   16  O   UNL     1      38.153  52.384  45.632  1.00  0.00    -0.216 OA
HETATM   17  C   UNL     1      38.937  52.980  44.698  1.00  0.00     0.078 A 
HETATM   18  C   UNL     1      40.315  53.309  45.103  1.00  0.00     0.079 C 
HETATM   19  C   UNL     1      38.214  53.131  43.540  1.00  0.00     0.087 A 
ENDBRANCH  11  14
ENDBRANCH   1  10
BRANCH   2  20
HETATM   20  C   UNL     1      35.643  52.971  39.505  1.00  0.00    -0.031 A 
HETATM   21  C   UNL     1      37.041  53.078  39.411  1.00  0.00     0.012 A 
HETATM   22  C   UNL     1      37.646  54.307  39.134  1.00  0.00     0.037 A 
HETATM   23  C   UNL     1      36.853  55.435  38.952  1.00  0.00     0.065 A 
HETATM   24  C   UNL     1      35.470  55.354  39.039  1.00  0.00     0.037 A 
HETATM   25  C   UNL     1      34.865  54.126  39.308  1.00  0.00     0.012 A 
BRANCH  23  26
HETATM   26  O   UNL     1      37.401  56.653  38.683  1.00  0.00    -0.361 OA
HETATM   27  H   UNL     1      37.979  56.908  39.421  1.00  0.00     0.217 HD
ENDBRANCH  23  26
ENDBRANCH   2  20
BRANCH   6  28
HETATM   28  C   UNL     1      30.813  51.546  40.841  1.00  0.00     0.042 A 
HETATM   29  C   UNL     1      30.152  50.337  41.096  1.00  0.00     0.030 A 
HETATM   30  C   UNL     1      28.788  50.332  41.392  1.00  0.00     0.002 A 
HETATM   31  C   UNL     1      28.077  51.531  41.430  1.00  0.00     0.000 A 
HETATM   32  C   UNL     1      28.728  52.737  41.174  1.00  0.00     0.002 A 
HETATM   33  C   UNL     1      30.094  52.748  40.882  1.00  0.00     0.030 A 
ENDBRANCH   6  28
TORSDOF 5
ENDMDL
MODEL 9
REMARK VINA RESULT:      -8.0      3.195      5.270
REMARK  5 active torsions:
REMARK  status: ('A' for Active; 'I' for Inactive)
REMARK    1  A    between atoms: C_5  and  N_6 
REMARK       I    between atoms: N_6  and  C_7 
REMARK    2  A    between atoms: C_7  and  C_8 
REMARK    3  A    between atoms: C_9  and  C_10 
REMARK    4  A    between atoms: C_13  and  O_14 
REMARK    5  A    between atoms: N_20  and  C_21 
ROOT
HETATM    1  C   UNL     1      26.717  43.072  51.308  1.00  0.00     0.060 C 
HETATM    2  C   UNL     1      25.307  43.421  51.638  1.00  0.00     0.158 C 
HETATM    3  N   UNL     1      25.177  43.698  53.045  1.00  0.00    -0.354 N 
HETATM    4  C   UNL     1      26.190  44.006  53.907  1.00  0.00     0.179 C 
HETATM    5  S   UNL     1      25.686  44.499  55.435  1.00  0.00    -0.040 SA
HETATM    6  N   UNL     1      27.510  43.820  53.432  1.00  0.00    -0.292 N 
HETATM    7  C   UNL     1      27.753  43.274  52.149  1.00  0.00     0.030 C 
HETATM    8  C   UNL     1      29.180  42.990  51.727  1.00  0.00     0.070 C 
HETATM    9  H   UNL     1      24.244  43.850  53.411  1.00  0.00     0.163 HD
ENDROOT
BRANCH   1  10
HETATM   10  C   UNL     1      26.906  42.326  50.034  1.00  0.00     0.257 C 
HETATM   11  N   UNL     1      26.739  40.969  50.172  1.00  0.00    -0.306 N 
HETATM   12  H   UNL     1      26.480  40.582  51.068  1.00  0.00     0.170 HD
HETATM   13  O   UNL     1      27.189  42.954  49.023  1.00  0.00    -0.267 OA
BRANCH  11  14
HETATM   14  C   UNL     1      26.979  40.054  49.162  1.00  0.00     0.160 A 
HETATM   15  N   UNL     1      26.145  39.752  48.164  1.00  0.00    -0.110 NA
HETATM   16  O   UNL     1      26.794  38.819  47.381  1.00  0.00    -0.216 OA
HETATM   17  C   UNL     1      28.021  38.567  47.903  1.00  0.00     0.078 A 
HETATM   18  C   UNL     1      28.864  37.602  47.174  1.00  0.00     0.079 C 
HETATM   19  C   UNL     1      28.185  39.320  49.040  1.00  0.00     0.087 A 
ENDBRANCH  11  14
ENDBRANCH   1  10
BRANCH   2  20
HETATM   20  C   UNL     1      24.780  44.607  50.838  1.00  0.00    -0.031 A 
HETATM   21  C   UNL     1      25.206  45.910  51.146  1.00  0.00     0.012 A 
HETATM   22  C   UNL     1      24.709  47.009  50.440  1.00  0.00     0.037 A 
HETATM   23  C   UNL     1      23.782  46.807  49.423  1.00  0.00     0.065 A 
HETATM   24  C   UNL     1      23.347  45.528  49.100  1.00  0.00     0.037 A 
HETATM   25  C   UNL     1      23.848  44.431  49.800  1.00  0.00     0.012 A 
BRANCH  23  26
HETATM   26  O   UNL     1      23.270  47.849  48.711  1.00  0.00    -0.361 OA
HETATM   27  H   UNL     1      22.774  48.428  49.313  1.00  0.00     0.217 HD
ENDBRANCH  23  26
ENDBRANCH   2  20
BRANCH   6  28
HETATM   28  C   UNL     1      28.596  44.057  54.343  1.00  0.00     0.042 A 
HETATM   29  C   UNL     1      28.816  45.338  54.866  1.00  0.00     0.030 A 
HETATM   30  C   UNL     1      29.877  45.566  55.743  1.00  0.00     0.002 A 
HETATM   31  C   UNL     1      30.726  44.519  56.099  1.00  0.00     0.000 A 
HETATM   32  C   UNL     1      30.516  43.242  55.580  1.00  0.00     0.002 A 
HETATM   33  C   UNL     1      29.452  43.008  54.705  1.00  0.00     0.030 A 
ENDBRANCH   6  28
TORSDOF 5
ENDMDL
MODEL 10
REMARK VINA RESULT:      -8.0      4.614      9.536
REMARK  5 active torsions:
REMARK  status: ('A' for Active; 'I' for Inactive)
REMARK    1  A    between atoms: C_5  and  N_6 
REMARK       I    between atoms: N_6  and  C_7 
REMARK    2  A    between atoms: C_7  and  C_8 
REMARK    3  A    between atoms: C_9  and  C_10 
REMARK    4  A    between atoms: C_13  and  O_14 
REMARK    5  A    between atoms: N_20  and  C_21 
ROOT
HETATM    1  C   UNL     1      20.772  47.681  48.322  1.00  0.00     0.060 C 
HETATM    2  C   UNL     1      20.078  46.365  48.374  1.00  0.00     0.158 C 
HETATM    3  N   UNL     1      18.717  46.534  48.816  1.00  0.00    -0.354 N 
HETATM    4  C   UNL     1      18.004  47.698  48.810  1.00  0.00     0.179 C 
HETATM    5  S   UNL     1      16.370  47.521  49.173  1.00  0.00    -0.040 SA
HETATM    6  N   UNL     1      18.727  48.889  48.561  1.00  0.00    -0.292 N 
HETATM    7  C   UNL     1      20.133  48.867  48.396  1.00  0.00     0.030 C 
HETATM    8  C   UNL     1      20.877  50.178  48.241  1.00  0.00     0.070 C 
HETATM    9  H   UNL     1      18.171  45.699  48.988  1.00  0.00     0.163 HD
ENDROOT
BRANCH   1  10
HETATM   10  C   UNL     1      22.259  47.616  48.344  1.00  0.00     0.257 C 
HETATM   11  N   UNL     1      22.797  47.930  49.569  1.00  0.00    -0.306 N 
HETATM   12  H   UNL     1      22.189  48.138  50.348  1.00  0.00     0.170 HD
HETATM   13  O   UNL     1      22.849  47.315  47.314  1.00  0.00    -0.267 OA
BRANCH  11  14
HETATM   14  C   UNL     1      24.154  48.056  49.808  1.00  0.00     0.160 A 
HETATM   15  N   UNL     1      24.820  47.534  50.841  1.00  0.00    -0.110 NA
HETATM   16  O   UNL     1      26.144  47.883  50.670  1.00  0.00    -0.216 OA
HETATM   17  C   UNL     1      26.275  48.608  49.530  1.00  0.00     0.078 A 
HETATM   18  C   UNL     1      27.638  49.049  49.181  1.00  0.00     0.079 C 
HETATM   19  C   UNL     1      25.040  48.753  48.949  1.00  0.00     0.087 A 
ENDBRANCH  11  14
ENDBRANCH   1  10
BRANCH   2  20
HETATM   20  C   UNL     1      20.089  45.628  47.040  1.00  0.00    -0.031 A 
HETATM   21  C   UNL     1      19.692  46.290  45.866  1.00  0.00     0.012 A 
HETATM   22  C   UNL     1      19.670  45.618  44.641  1.00  0.00     0.037 A 
HETATM   23  C   UNL     1      20.044  44.279  44.587  1.00  0.00     0.065 A 
HETATM   24  C   UNL     1      20.440  43.604  45.734  1.00  0.00     0.037 A 
HETATM   25  C   UNL     1      20.469  44.276  46.956  1.00  0.00     0.012 A 
BRANCH  23  26
HETATM   26  O   UNL     1      20.034  43.585  43.415  1.00  0.00    -0.361 OA
HETATM   27  H   UNL     1      20.837  43.039  43.366  1.00  0.00     0.217 HD
ENDBRANCH  23  26
ENDBRANCH   2  20
BRANCH   6  28
HETATM   28  C   UNL     1      18.019  50.137  48.630  1.00  0.00     0.042 A 
HETATM   29  C   UNL     1      17.400  50.665  47.489  1.00  0.00     0.030 A 
HETATM   30  C   UNL     1      16.720  51.882  47.558  1.00  0.00     0.002 A 
HETATM   31  C   UNL     1      16.660  52.580  48.764  1.00  0.00     0.000 A 
HETATM   32  C   UNL     1      17.276  52.063  49.902  1.00  0.00     0.002 A 
HETATM   33  C   UNL     1      17.953  50.843  49.839  1.00  0.00     0.030 A 
ENDBRANCH   6  28
TORSDOF 5
ENDMDL
