MODEL 1
REMARK VINA RESULT:      -7.6      0.000      0.000
REMARK  8 active torsions:
REMARK  status: ('A' for Active; 'I' for Inactive)
REMARK    1  A    between atoms: C_4  and  C_5 
REMARK    2  A    between atoms: C_5  and  N_6 
REMARK    3  A    between atoms: N_6  and  C_9 
REMARK    4  A    between atoms: C_9  and  C_10 
REMARK    5  A    between atoms: C_10  and  C_11 
REMARK    6  A    between atoms: C_11  and  C_12 
REMARK    7  A    between atoms: C_17  and  O_18 
REMARK    8  A    between atoms: C_21  and  O_22 
ROOT
HETATM    1  C   UNL     1      28.648  42.187  53.432  1.00  0.00     0.010 A 
HETATM    2  N   UNL     1      27.757  43.235  53.440  1.00  0.00    -0.359 N 
HETATM    3  H   UNL     1      26.888  43.279  52.925  1.00  0.00     0.166 HD
HETATM    4  C   UNL     1      28.224  44.258  54.232  1.00  0.00     0.048 A 
HETATM    5  C   UNL     1      29.445  43.855  54.765  1.00  0.00     0.026 A 
HETATM    6  C   UNL     1      30.153  44.728  55.623  1.00  0.00     0.083 A 
HETATM    7  C   UNL     1      29.591  45.988  55.900  1.00  0.00     0.074 A 
HETATM    8  C   UNL     1      28.369  46.376  55.344  1.00  0.00     0.073 A 
HETATM    9  C   UNL     1      27.660  45.507  54.508  1.00  0.00     0.067 A 
HETATM   10  C   UNL     1      29.699  42.549  54.253  1.00  0.00     0.041 A 
ENDROOT
BRANCH   1  11
HETATM   11  C   UNL     1      28.430  40.962  52.617  1.00  0.00     0.059 C 
BRANCH  11  12
HETATM   12  C   UNL     1      27.975  41.302  51.195  1.00  0.00     0.033 C 
BRANCH  12  13
HETATM   13  C   UNL     1      26.543  40.861  50.910  1.00  0.00     0.233 C 
BRANCH  13  14
HETATM   14  N   UNL     1      25.589  41.961  51.244  1.00  0.00    -0.067 N 
HETATM   15  H   UNL     1      26.080  42.659  51.822  1.00  0.00     0.277 HD
HETATM   16  H   UNL     1      24.820  41.623  51.836  1.00  0.00     0.277 HD
BRANCH  14  17
HETATM   17  C   UNL     1      24.973  42.708  50.091  1.00  0.00     0.223 C 
HETATM   18  C   UNL     1      23.464  42.829  50.295  1.00  0.00     0.046 C 
BRANCH  17  19
HETATM   19  C   UNL     1      25.606  44.056  49.933  1.00  0.00     0.032 A 
HETATM   20  S   UNL     1      24.722  45.516  50.158  1.00  0.00    -0.076 SA
HETATM   21  C   UNL     1      26.136  46.425  49.800  1.00  0.00     0.071 A 
HETATM   22  C   UNL     1      26.113  47.915  49.812  1.00  0.00     0.078 C 
HETATM   23  N   UNL     1      27.204  45.707  49.536  1.00  0.00    -0.257 NA
HETATM   24  C   UNL     1      26.908  44.364  49.595  1.00  0.00     0.134 A 
ENDBRANCH  17  19
ENDBRANCH  14  17
ENDBRANCH  13  14
ENDBRANCH  12  13
ENDBRANCH  11  12
ENDBRANCH   1  11
BRANCH   6  25
HETATM   25  O   UNL     1      31.345  44.268  56.120  1.00  0.00    -0.355 OA
HETATM   26  C   UNL     1      31.347  43.768  57.451  1.00  0.00     0.210 C 
ENDBRANCH   6  25
BRANCH   8  27
HETATM   27  O   UNL     1      27.744  47.579  55.544  1.00  0.00    -0.356 OA
HETATM   28  C   UNL     1      26.445  47.737  54.984  1.00  0.00     0.210 C 
ENDBRANCH   8  27
TORSDOF 8
ENDMDL
MODEL 2
REMARK VINA RESULT:      -7.3      3.744      5.310
REMARK  8 active torsions:
REMARK  status: ('A' for Active; 'I' for Inactive)
REMARK    1  A    between atoms: C_4  and  C_5 
REMARK    2  A    between atoms: C_5  and  N_6 
REMARK    3  A    between atoms: N_6  and  C_9 
REMARK    4  A    between atoms: C_9  and  C_10 
REMARK    5  A    between atoms: C_10  and  C_11 
REMARK    6  A    between atoms: C_11  and  C_12 
REMARK    7  A    between atoms: C_17  and  O_18 
REMARK    8  A    between atoms: C_21  and  O_22 
ROOT
HETATM    1  C   UNL     1      26.650  45.663  53.111  1.00  0.00     0.010 A 
HETATM    2  N   UNL     1      27.278  46.049  54.272  1.00  0.00    -0.359 N 
HETATM    3  H   UNL     1      27.033  46.847  54.842  1.00  0.00     0.166 HD
HETATM    4  C   UNL     1      28.332  45.211  54.552  1.00  0.00     0.048 A 
HETATM    5  C   UNL     1      28.378  44.244  53.551  1.00  0.00     0.026 A 
HETATM    6  C   UNL     1      29.378  43.246  53.593  1.00  0.00     0.083 A 
HETATM    7  C   UNL     1      30.304  43.276  54.652  1.00  0.00     0.074 A 
HETATM    8  C   UNL     1      30.246  44.264  55.639  1.00  0.00     0.073 A 
HETATM    9  C   UNL     1      29.247  45.242  55.608  1.00  0.00     0.067 A 
HETATM   10  C   UNL     1      27.312  44.541  52.652  1.00  0.00     0.041 A 
ENDROOT
BRANCH   1  11
HETATM   11  C   UNL     1      25.506  46.420  52.534  1.00  0.00     0.059 C 
BRANCH  11  12
HETATM   12  C   UNL     1      25.192  45.969  51.105  1.00  0.00     0.033 C 
BRANCH  12  13
HETATM   13  C   UNL     1      25.111  47.133  50.122  1.00  0.00     0.233 C 
BRANCH  13  14
HETATM   14  N   UNL     1      23.733  47.709  50.120  1.00  0.00    -0.067 N 
HETATM   15  H   UNL     1      23.784  48.685  50.447  1.00  0.00     0.277 HD
HETATM   16  H   UNL     1      23.127  47.234  50.801  1.00  0.00     0.277 HD
BRANCH  14  17
HETATM   17  C   UNL     1      23.001  47.729  48.804  1.00  0.00     0.223 C 
HETATM   18  C   UNL     1      22.513  46.322  48.459  1.00  0.00     0.046 C 
BRANCH  17  19
HETATM   19  C   UNL     1      21.860  48.699  48.846  1.00  0.00     0.032 A 
HETATM   20  S   UNL     1      22.051  50.358  48.429  1.00  0.00    -0.076 SA
HETATM   21  C   UNL     1      20.386  50.630  48.751  1.00  0.00     0.071 A 
HETATM   22  C   UNL     1      19.782  51.982  48.580  1.00  0.00     0.078 C 
HETATM   23  N   UNL     1      19.716  49.567  49.138  1.00  0.00    -0.257 NA
HETATM   24  C   UNL     1      20.548  48.473  49.208  1.00  0.00     0.134 A 
ENDBRANCH  17  19
ENDBRANCH  14  17
ENDBRANCH  13  14
ENDBRANCH  12  13
ENDBRANCH  11  12
ENDBRANCH   1  11
BRANCH   6  25
HETATM   25  O   UNL     1      29.364  42.320  52.582  1.00  0.00    -0.355 OA
HETATM   26  C   UNL     1      28.730  41.075  52.848  1.00  0.00     0.210 C 
ENDBRANCH   6  25
BRANCH   8  27
HETATM   27  O   UNL     1      31.102  44.386  56.703  1.00  0.00    -0.356 OA
HETATM   28  C   UNL     1      31.785  43.212  57.125  1.00  0.00     0.210 C 
ENDBRANCH   8  27
TORSDOF 8
ENDMDL
MODEL 3
REMARK VINA RESULT:      -7.2     12.167     14.699
REMARK  8 active torsions:
REMARK  status: ('A' for Active; 'I' for Inactive)
REMARK    1  A    between atoms: C_4  and  C_5 
REMARK    2  A    between atoms: C_5  and  N_6 
REMARK    3  A    between atoms: N_6  and  C_9 
REMARK    4  A    between atoms: C_9  and  C_10 
REMARK    5  A    between atoms: C_10  and  C_11 
REMARK    6  A    between atoms: C_11  and  C_12 
REMARK    7  A    between atoms: C_17  and  O_18 
REMARK    8  A    between atoms: C_21  and  O_22 
ROOT
HETATM    1  C   UNL     1      30.305  52.577  40.479  1.00  0.00     0.010 A 
HETATM    2  N   UNL     1      31.404  52.304  39.698  1.00  0.00    -0.359 N 
HETATM    3  H   UNL     1      31.489  52.489  38.708  1.00  0.00     0.166 HD
HETATM    4  C   UNL     1      32.390  51.703  40.446  1.00  0.00     0.048 A 
HETATM    5  C   UNL     1      31.920  51.596  41.752  1.00  0.00     0.026 A 
HETATM    6  C   UNL     1      32.741  51.006  42.741  1.00  0.00     0.083 A 
HETATM    7  C   UNL     1      34.011  50.535  42.357  1.00  0.00     0.074 A 
HETATM    8  C   UNL     1      34.456  50.642  41.037  1.00  0.00     0.073 A 
HETATM    9  C   UNL     1      33.651  51.240  40.061  1.00  0.00     0.067 A 
HETATM   10  C   UNL     1      30.608  52.152  41.759  1.00  0.00     0.041 A 
ENDROOT
BRANCH   1  11
HETATM   11  C   UNL     1      29.064  53.181  39.924  1.00  0.00     0.059 C 
BRANCH  11  12
HETATM   12  C   UNL     1      28.825  52.752  38.473  1.00  0.00     0.033 C 
BRANCH  12  13
HETATM   13  C   UNL     1      27.813  51.618  38.350  1.00  0.00     0.233 C 
BRANCH  13  14
HETATM   14  N   UNL     1      27.315  51.224  39.702  1.00  0.00    -0.067 N 
HETATM   15  H   UNL     1      26.378  51.630  39.839  1.00  0.00     0.277 HD
HETATM   16  H   UNL     1      27.891  51.635  40.448  1.00  0.00     0.277 HD
BRANCH  14  17
HETATM   17  C   UNL     1      27.197  49.750  39.986  1.00  0.00     0.223 C 
HETATM   18  C   UNL     1      26.808  49.003  38.711  1.00  0.00     0.046 C 
BRANCH  17  19
HETATM   19  C   UNL     1      28.475  49.215  40.555  1.00  0.00     0.032 A 
HETATM   20  S   UNL     1      29.791  48.730  39.558  1.00  0.00    -0.076 SA
HETATM   21  C   UNL     1      30.695  48.308  40.957  1.00  0.00     0.071 A 
HETATM   22  C   UNL     1      32.077  47.764  40.842  1.00  0.00     0.078 C 
HETATM   23  N   UNL     1      30.076  48.515  42.098  1.00  0.00    -0.257 NA
HETATM   24  C   UNL     1      28.813  49.015  41.878  1.00  0.00     0.134 A 
ENDBRANCH  17  19
ENDBRANCH  14  17
ENDBRANCH  13  14
ENDBRANCH  12  13
ENDBRANCH  11  12
ENDBRANCH   1  11
BRANCH   6  25
HETATM   25  O   UNL     1      32.224  50.939  44.009  1.00  0.00    -0.355 OA
HETATM   26  C   UNL     1      32.550  51.995  44.903  1.00  0.00     0.210 C 
ENDBRANCH   6  25
BRANCH   8  27
HETATM   27  O   UNL     1      35.666  50.209  40.561  1.00  0.00    -0.356 OA
HETATM   28  C   UNL     1      36.801  51.020  40.839  1.00  0.00     0.210 C 
ENDBRANCH   8  27
TORSDOF 8
ENDMDL
MODEL 4
REMARK VINA RESULT:      -7.2     12.687     14.397
REMARK  8 active torsions:
REMARK  status: ('A' for Active; 'I' for Inactive)
REMARK    1  A    between atoms: C_4  and  C_5 
REMARK    2  A    between atoms: C_5  and  N_6 
REMARK    3  A    between atoms: N_6  and  C_9 
REMARK    4  A    between atoms: C_9  and  C_10 
REMARK    5  A    between atoms: C_10  and  C_11 
REMARK    6  A    between atoms: C_11  and  C_12 
REMARK    7  A    between atoms: C_17  and  O_18 
REMARK    8  A    between atoms: C_21  and  O_22 
ROOT
HETATM    1  C   UNL     1      30.847  48.458  40.989  1.00  0.00     0.010 A 
HETATM    2  N   UNL     1      32.133  48.437  40.502  1.00  0.00    -0.359 N 
HETATM    3  H   UNL     1      32.468  47.872  39.733  1.00  0.00     0.166 HD
HETATM    4  C   UNL     1      32.938  49.280  41.232  1.00  0.00     0.048 A 
HETATM    5  C   UNL     1      32.146  49.876  42.210  1.00  0.00     0.026 A 
HETATM    6  C   UNL     1      32.729  50.796  43.112  1.00  0.00     0.083 A 
HETATM    7  C   UNL     1      34.104  51.069  42.989  1.00  0.00     0.074 A 
HETATM    8  C   UNL     1      34.881  50.450  42.006  1.00  0.00     0.073 A 
HETATM    9  C   UNL     1      34.303  49.552  41.103  1.00  0.00     0.067 A 
HETATM   10  C   UNL     1      30.832  49.349  42.044  1.00  0.00     0.041 A 
ENDROOT
BRANCH   1  11
HETATM   11  C   UNL     1      29.768  47.601  40.426  1.00  0.00     0.059 C 
BRANCH  11  12
HETATM   12  C   UNL     1      29.244  48.153  39.096  1.00  0.00     0.033 C 
BRANCH  12  13
HETATM   13  C   UNL     1      28.081  49.122  39.276  1.00  0.00     0.233 C 
BRANCH  13  14
HETATM   14  N   UNL     1      28.439  50.464  38.726  1.00  0.00    -0.067 N 
HETATM   15  H   UNL     1      27.773  50.700  37.976  1.00  0.00     0.277 HD
HETATM   16  H   UNL     1      29.358  50.446  38.266  1.00  0.00     0.277 HD
BRANCH  14  17
HETATM   17  C   UNL     1      28.440  51.621  39.689  1.00  0.00     0.223 C 
HETATM   18  C   UNL     1      27.808  51.197  41.014  1.00  0.00     0.046 C 
BRANCH  17  19
HETATM   19  C   UNL     1      29.831  52.137  39.896  1.00  0.00     0.032 A 
HETATM   20  S   UNL     1      31.138  51.692  38.868  1.00  0.00    -0.076 SA
HETATM   21  C   UNL     1      32.201  52.671  39.797  1.00  0.00     0.071 A 
HETATM   22  C   UNL     1      33.645  52.781  39.447  1.00  0.00     0.078 C 
HETATM   23  N   UNL     1      31.637  53.299  40.804  1.00  0.00    -0.257 NA
HETATM   24  C   UNL     1      30.297  52.990  40.875  1.00  0.00     0.134 A 
ENDBRANCH  17  19
ENDBRANCH  14  17
ENDBRANCH  13  14
ENDBRANCH  12  13
ENDBRANCH  11  12
ENDBRANCH   1  11
BRANCH   6  25
HETATM   25  O   UNL     1      31.894  51.353  44.046  1.00  0.00    -0.355 OA
HETATM   26  C   UNL     1      32.491  52.147  45.064  1.00  0.00     0.210 C 
ENDBRANCH   6  25
BRANCH   8  27
HETATM   27  O   UNL     1      36.224  50.640  41.809  1.00  0.00    -0.356 OA
HETATM   28  C   UNL     1      36.698  51.981  41.817  1.00  0.00     0.210 C 
ENDBRANCH   8  27
TORSDOF 8
ENDMDL
MODEL 5
REMARK VINA RESULT:      -7.2     12.484     14.366
REMARK  8 active torsions:
REMARK  status: ('A' for Active; 'I' for Inactive)
REMARK    1  A    between atoms: C_4  and  C_5 
REMARK    2  A    between atoms: C_5  and  N_6 
REMARK    3  A    between atoms: N_6  and  C_9 
REMARK    4  A    between atoms: C_9  and  C_10 
REMARK    5  A    between atoms: C_10  and  C_11 
REMARK    6  A    between atoms: C_11  and  C_12 
REMARK    7  A    between atoms: C_17  and  O_18 
REMARK    8  A    between atoms: C_21  and  O_22 
ROOT
HETATM    1  C   UNL     1      29.909  47.752  40.032  1.00  0.00     0.010 A 
HETATM    2  N   UNL     1      30.468  48.436  38.978  1.00  0.00    -0.359 N 
HETATM    3  H   UNL     1      30.405  48.179  38.002  1.00  0.00     0.166 HD
HETATM    4  C   UNL     1      31.172  49.527  39.430  1.00  0.00     0.048 A 
HETATM    5  C   UNL     1      31.053  49.559  40.817  1.00  0.00     0.026 A 
HETATM    6  C   UNL     1      31.689  50.589  41.547  1.00  0.00     0.083 A 
HETATM    7  C   UNL     1      32.435  51.547  40.835  1.00  0.00     0.074 A 
HETATM    8  C   UNL     1      32.551  51.488  39.443  1.00  0.00     0.073 A 
HETATM    9  C   UNL     1      31.908  50.478  38.719  1.00  0.00     0.067 A 
HETATM   10  C   UNL     1      30.254  48.436  41.181  1.00  0.00     0.041 A 
ENDROOT
BRANCH   1  11
HETATM   11  C   UNL     1      29.134  46.496  39.844  1.00  0.00     0.059 C 
BRANCH  11  12
HETATM   12  C   UNL     1      27.652  46.780  39.581  1.00  0.00     0.033 C 
BRANCH  12  13
HETATM   13  C   UNL     1      26.854  46.995  40.863  1.00  0.00     0.233 C 
BRANCH  13  14
HETATM   14  N   UNL     1      26.349  48.399  40.926  1.00  0.00    -0.067 N 
HETATM   15  H   UNL     1      26.781  48.868  41.735  1.00  0.00     0.277 HD
HETATM   16  H   UNL     1      25.339  48.425  41.115  1.00  0.00     0.277 HD
BRANCH  14  17
HETATM   17  C   UNL     1      26.605  49.274  39.728  1.00  0.00     0.223 C 
HETATM   18  C   UNL     1      25.280  49.649  39.064  1.00  0.00     0.046 C 
BRANCH  17  19
HETATM   19  C   UNL     1      27.376  50.497  40.119  1.00  0.00     0.032 A 
HETATM   20  S   UNL     1      28.109  51.531  38.955  1.00  0.00    -0.076 SA
HETATM   21  C   UNL     1      28.696  52.537  40.219  1.00  0.00     0.071 A 
HETATM   22  C   UNL     1      29.498  53.756  39.919  1.00  0.00     0.078 C 
HETATM   23  N   UNL     1      28.371  52.147  41.431  1.00  0.00    -0.257 NA
HETATM   24  C   UNL     1      27.636  50.984  41.384  1.00  0.00     0.134 A 
ENDBRANCH  17  19
ENDBRANCH  14  17
ENDBRANCH  13  14
ENDBRANCH  12  13
ENDBRANCH  11  12
ENDBRANCH   1  11
BRANCH   6  25
HETATM   25  O   UNL     1      31.526  50.568  42.908  1.00  0.00    -0.355 OA
HETATM   26  C   UNL     1      32.510  51.230  43.693  1.00  0.00     0.210 C 
ENDBRANCH   6  25
BRANCH   8  27
HETATM   27  O   UNL     1      33.257  52.362  38.660  1.00  0.00    -0.356 OA
HETATM   28  C   UNL     1      34.197  53.207  39.314  1.00  0.00     0.210 C 
ENDBRANCH   8  27
TORSDOF 8
ENDMDL
MODEL 6
REMARK VINA RESULT:      -7.2      2.365      4.408
REMARK  8 active torsions:
REMARK  status: ('A' for Active; 'I' for Inactive)
REMARK    1  A    between atoms: C_4  and  C_5 
REMARK    2  A    between atoms: C_5  and  N_6 
REMARK    3  A    between atoms: N_6  and  C_9 
REMARK    4  A    between atoms: C_9  and  C_10 
REMARK    5  A    between atoms: C_10  and  C_11 
REMARK    6  A    between atoms: C_11  and  C_12 
REMARK    7  A    between atoms: C_17  and  O_18 
REMARK    8  A    between atoms: C_21  and  O_22 
ROOT
HETATM    1  C   UNL     1      26.660  43.996  52.746  1.00  0.00     0.010 A 
HETATM    2  N   UNL     1      27.766  43.203  52.943  1.00  0.00    -0.359 N 
HETATM    3  H   UNL     1      27.974  42.342  52.456  1.00  0.00     0.166 HD
HETATM    4  C   UNL     1      28.562  43.725  53.936  1.00  0.00     0.048 A 
HETATM    5  C   UNL     1      27.960  44.898  54.384  1.00  0.00     0.026 A 
HETATM    6  C   UNL     1      28.574  45.644  55.417  1.00  0.00     0.083 A 
HETATM    7  C   UNL     1      29.777  45.160  55.963  1.00  0.00     0.074 A 
HETATM    8  C   UNL     1      30.356  43.973  55.505  1.00  0.00     0.073 A 
HETATM    9  C   UNL     1      29.759  43.243  54.473  1.00  0.00     0.067 A 
HETATM   10  C   UNL     1      26.765  45.056  53.625  1.00  0.00     0.041 A 
ENDROOT
BRANCH   1  11
HETATM   11  C   UNL     1      25.595  43.648  51.766  1.00  0.00     0.059 C 
BRANCH  11  12
HETATM   12  C   UNL     1      24.589  44.790  51.594  1.00  0.00     0.033 C 
BRANCH  12  13
HETATM   13  C   UNL     1      24.174  44.998  50.141  1.00  0.00     0.233 C 
BRANCH  13  14
HETATM   14  N   UNL     1      25.029  46.047  49.507  1.00  0.00    -0.067 N 
HETATM   15  H   UNL     1      24.728  46.168  48.529  1.00  0.00     0.277 HD
HETATM   16  H   UNL     1      26.009  45.743  49.446  1.00  0.00     0.277 HD
BRANCH  14  17
HETATM   17  C   UNL     1      25.019  47.413  50.139  1.00  0.00     0.223 C 
HETATM   18  C   UNL     1      26.451  47.865  50.423  1.00  0.00     0.046 C 
BRANCH  17  19
HETATM   19  C   UNL     1      24.307  48.398  49.263  1.00  0.00     0.032 A 
HETATM   20  S   UNL     1      22.591  48.526  49.234  1.00  0.00    -0.076 SA
HETATM   21  C   UNL     1      22.705  49.778  48.064  1.00  0.00     0.071 A 
HETATM   22  C   UNL     1      21.483  50.437  47.522  1.00  0.00     0.078 C 
HETATM   23  N   UNL     1      23.931  50.097  47.712  1.00  0.00    -0.257 NA
HETATM   24  C   UNL     1      24.843  49.309  48.377  1.00  0.00     0.134 A 
ENDBRANCH  17  19
ENDBRANCH  14  17
ENDBRANCH  13  14
ENDBRANCH  12  13
ENDBRANCH  11  12
ENDBRANCH   1  11
BRANCH   6  25
HETATM   25  O   UNL     1      27.936  46.793  55.807  1.00  0.00    -0.355 OA
HETATM   26  C   UNL     1      27.857  47.849  54.859  1.00  0.00     0.210 C 
ENDBRANCH   6  25
BRANCH   8  27
HETATM   27  O   UNL     1      31.516  43.414  55.974  1.00  0.00    -0.356 OA
HETATM   28  C   UNL     1      31.701  43.387  57.385  1.00  0.00     0.210 C 
ENDBRANCH   8  27
TORSDOF 8
ENDMDL
MODEL 7
REMARK VINA RESULT:      -7.1      1.589      3.002
REMARK  8 active torsions:
REMARK  status: ('A' for Active; 'I' for Inactive)
REMARK    1  A    between atoms: C_4  and  C_5 
REMARK    2  A    between atoms: C_5  and  N_6 
REMARK    3  A    between atoms: N_6  and  C_9 
REMARK    4  A    between atoms: C_9  and  C_10 
REMARK    5  A    between atoms: C_10  and  C_11 
REMARK    6  A    between atoms: C_11  and  C_12 
REMARK    7  A    between atoms: C_17  and  O_18 
REMARK    8  A    between atoms: C_21  and  O_22 
ROOT
HETATM    1  C   UNL     1      28.446  42.635  51.913  1.00  0.00     0.010 A 
HETATM    2  N   UNL     1      29.555  42.303  52.655  1.00  0.00    -0.359 N 
HETATM    3  H   UNL     1      30.185  41.534  52.471  1.00  0.00     0.166 HD
HETATM    4  C   UNL     1      29.688  43.153  53.729  1.00  0.00     0.048 A 
HETATM    5  C   UNL     1      28.643  44.070  53.671  1.00  0.00     0.026 A 
HETATM    6  C   UNL     1      28.536  45.068  54.668  1.00  0.00     0.083 A 
HETATM    7  C   UNL     1      29.498  45.087  55.696  1.00  0.00     0.074 A 
HETATM    8  C   UNL     1      30.532  44.148  55.739  1.00  0.00     0.073 A 
HETATM    9  C   UNL     1      30.647  43.171  54.745  1.00  0.00     0.067 A 
HETATM   10  C   UNL     1      27.869  43.733  52.522  1.00  0.00     0.041 A 
ENDROOT
BRANCH   1  11
HETATM   11  C   UNL     1      28.023  41.853  50.720  1.00  0.00     0.059 C 
BRANCH  11  12
HETATM   12  C   UNL     1      26.960  40.809  51.074  1.00  0.00     0.033 C 
BRANCH  12  13
HETATM   13  C   UNL     1      25.938  40.606  49.961  1.00  0.00     0.233 C 
BRANCH  13  14
HETATM   14  N   UNL     1      26.068  41.686  48.937  1.00  0.00    -0.067 N 
HETATM   15  H   UNL     1      26.268  41.252  48.024  1.00  0.00     0.277 HD
HETATM   16  H   UNL     1      26.882  42.285  49.127  1.00  0.00     0.277 HD
BRANCH  14  17
HETATM   17  C   UNL     1      24.882  42.590  48.740  1.00  0.00     0.223 C 
HETATM   18  C   UNL     1      23.595  41.766  48.721  1.00  0.00     0.046 C 
BRANCH  17  19
HETATM   19  C   UNL     1      24.832  43.641  49.806  1.00  0.00     0.032 A 
HETATM   20  S   UNL     1      25.652  45.147  49.650  1.00  0.00    -0.076 SA
HETATM   21  C   UNL     1      25.070  45.623  51.195  1.00  0.00     0.071 A 
HETATM   22  C   UNL     1      25.415  46.955  51.767  1.00  0.00     0.078 C 
HETATM   23  N   UNL     1      24.311  44.735  51.797  1.00  0.00    -0.257 NA
HETATM   24  C   UNL     1      24.183  43.605  51.023  1.00  0.00     0.134 A 
ENDBRANCH  17  19
ENDBRANCH  14  17
ENDBRANCH  13  14
ENDBRANCH  12  13
ENDBRANCH  11  12
ENDBRANCH   1  11
BRANCH   6  25
HETATM   25  O   UNL     1      27.489  45.945  54.550  1.00  0.00    -0.355 OA
HETATM   26  C   UNL     1      27.764  47.322  54.774  1.00  0.00     0.210 C 
ENDBRANCH   6  25
BRANCH   8  27
HETATM   27  O   UNL     1      31.509  44.075  56.697  1.00  0.00    -0.356 OA
HETATM   28  C   UNL     1      31.180  44.547  57.998  1.00  0.00     0.210 C 
ENDBRANCH   8  27
TORSDOF 8
ENDMDL
MODEL 8
REMARK VINA RESULT:      -7.0      3.512      5.172
REMARK  8 active torsions:
REMARK  status: ('A' for Active; 'I' for Inactive)
REMARK    1  A    between atoms: C_4  and  C_5 
REMARK    2  A    between atoms: C_5  and  N_6 
REMARK    3  A    between atoms: N_6  and  C_9 
REMARK    4  A    between atoms: C_9  and  C_10 
REMARK    5  A    between atoms: C_10  and  C_11 
REMARK    6  A    between atoms: C_11  and  C_12 
REMARK    7  A    between atoms: C_17  and  O_18 
REMARK    8  A    between atoms: C_21  and  O_22 
ROOT
HETATM    1  C   UNL     1      28.827  42.192  53.571  1.00  0.00     0.010 A 
HETATM    2  N   UNL     1      27.828  43.129  53.693  1.00  0.00    -0.359 N 
HETATM    3  H   UNL     1      26.926  43.098  53.237  1.00  0.00     0.166 HD
HETATM    4  C   UNL     1      28.231  44.160  54.509  1.00  0.00     0.048 A 
HETATM    5  C   UNL     1      29.524  43.874  54.941  1.00  0.00     0.026 A 
HETATM    6  C   UNL     1      30.187  44.781  55.799  1.00  0.00     0.083 A 
HETATM    7  C   UNL     1      29.509  45.954  56.181  1.00  0.00     0.074 A 
HETATM    8  C   UNL     1      28.216  46.225  55.725  1.00  0.00     0.073 A 
HETATM    9  C   UNL     1      27.553  45.322  54.888  1.00  0.00     0.067 A 
HETATM   10  C   UNL     1      29.885  42.632  54.343  1.00  0.00     0.041 A 
ENDROOT
BRANCH   1  11
HETATM   11  C   UNL     1      28.690  40.990  52.705  1.00  0.00     0.059 C 
BRANCH  11  12
HETATM   12  C   UNL     1      28.291  41.366  51.274  1.00  0.00     0.033 C 
BRANCH  12  13
HETATM   13  C   UNL     1      27.974  40.150  50.411  1.00  0.00     0.233 C 
BRANCH  13  14
HETATM   14  N   UNL     1      29.086  39.899  49.445  1.00  0.00    -0.067 N 
HETATM   15  H   UNL     1      29.913  40.432  49.750  1.00  0.00     0.277 HD
HETATM   16  H   UNL     1      28.862  40.271  48.513  1.00  0.00     0.277 HD
BRANCH  14  17
HETATM   17  C   UNL     1      29.529  38.472  49.266  1.00  0.00     0.223 C 
HETATM   18  C   UNL     1      29.725  37.812  50.630  1.00  0.00     0.046 C 
BRANCH  17  19
HETATM   19  C   UNL     1      28.541  37.710  48.436  1.00  0.00     0.032 A 
HETATM   20  S   UNL     1      27.148  36.966  49.120  1.00  0.00    -0.076 SA
HETATM   21  C   UNL     1      26.688  36.400  47.565  1.00  0.00     0.071 A 
HETATM   22  C   UNL     1      25.445  35.598  47.377  1.00  0.00     0.078 C 
HETATM   23  N   UNL     1      27.501  36.738  46.589  1.00  0.00    -0.257 NA
HETATM   24  C   UNL     1      28.561  37.469  47.077  1.00  0.00     0.134 A 
ENDBRANCH  17  19
ENDBRANCH  14  17
ENDBRANCH  13  14
ENDBRANCH  12  13
ENDBRANCH  11  12
ENDBRANCH   1  11
BRANCH   6  25
HETATM   25  O   UNL     1      31.454  44.437  56.194  1.00  0.00    -0.355 OA
HETATM   26  C   UNL     1      31.584  43.712  57.411  1.00  0.00     0.210 C 
ENDBRANCH   6  25
BRANCH   8  27
HETATM   27  O   UNL     1      27.476  47.338  56.030  1.00  0.00    -0.356 OA
HETATM   28  C   UNL     1      26.596  47.828  55.025  1.00  0.00     0.210 C 
ENDBRANCH   8  27
TORSDOF 8
ENDMDL
MODEL 9
REMARK VINA RESULT:      -6.9     12.488     14.165
REMARK  8 active torsions:
REMARK  status: ('A' for Active; 'I' for Inactive)
REMARK    1  A    between atoms: C_4  and  C_5 
REMARK    2  A    between atoms: C_5  and  N_6 
REMARK    3  A    between atoms: N_6  and  C_9 
REMARK    4  A    between atoms: C_9  and  C_10 
REMARK    5  A    between atoms: C_10  and  C_11 
REMARK    6  A    between atoms: C_11  and  C_12 
REMARK    7  A    between atoms: C_17  and  O_18 
REMARK    8  A    between atoms: C_21  and  O_22 
ROOT
HETATM    1  C   UNL     1      29.975  47.348  39.676  1.00  0.00     0.010 A 
HETATM    2  N   UNL     1      29.927  47.601  41.027  1.00  0.00    -0.359 N 
HETATM    3  H   UNL     1      29.384  47.088  41.709  1.00  0.00     0.166 HD
HETATM    4  C   UNL     1      30.705  48.691  41.341  1.00  0.00     0.048 A 
HETATM    5  C   UNL     1      31.286  49.147  40.161  1.00  0.00     0.026 A 
HETATM    6  C   UNL     1      32.142  50.272  40.197  1.00  0.00     0.083 A 
HETATM    7  C   UNL     1      32.367  50.898  41.437  1.00  0.00     0.074 A 
HETATM    8  C   UNL     1      31.763  50.430  42.607  1.00  0.00     0.073 A 
HETATM    9  C   UNL     1      30.929  49.307  42.575  1.00  0.00     0.067 A 
HETATM   10  C   UNL     1      30.818  48.292  39.122  1.00  0.00     0.041 A 
ENDROOT
BRANCH   1  11
HETATM   11  C   UNL     1      29.187  46.257  39.042  1.00  0.00     0.059 C 
BRANCH  11  12
HETATM   12  C   UNL     1      28.459  46.742  37.784  1.00  0.00     0.033 C 
BRANCH  12  13
HETATM   13  C   UNL     1      27.091  47.343  38.087  1.00  0.00     0.233 C 
BRANCH  13  14
HETATM   14  N   UNL     1      27.209  48.821  38.277  1.00  0.00    -0.067 N 
HETATM   15  H   UNL     1      26.761  49.292  37.477  1.00  0.00     0.277 HD
HETATM   16  H   UNL     1      28.190  49.125  38.246  1.00  0.00     0.277 HD
BRANCH  14  17
HETATM   17  C   UNL     1      26.597  49.402  39.523  1.00  0.00     0.223 C 
HETATM   18  C   UNL     1      26.395  48.304  40.566  1.00  0.00     0.046 C 
BRANCH  17  19
HETATM   19  C   UNL     1      27.447  50.510  40.065  1.00  0.00     0.032 A 
HETATM   20  S   UNL     1      28.268  51.622  39.039  1.00  0.00    -0.076 SA
HETATM   21  C   UNL     1      28.906  52.422  40.419  1.00  0.00     0.071 A 
HETATM   22  C   UNL     1      29.797  53.608  40.275  1.00  0.00     0.078 C 
HETATM   23  N   UNL     1      28.538  51.913  41.574  1.00  0.00    -0.257 NA
HETATM   24  C   UNL     1      27.723  50.821  41.381  1.00  0.00     0.134 A 
ENDBRANCH  17  19
ENDBRANCH  14  17
ENDBRANCH  13  14
ENDBRANCH  12  13
ENDBRANCH  11  12
ENDBRANCH   1  11
BRANCH   6  25
HETATM   25  O   UNL     1      32.688  50.666  39.003  1.00  0.00    -0.355 OA
HETATM   26  C   UNL     1      31.911  51.532  38.184  1.00  0.00     0.210 C 
ENDBRANCH   6  25
BRANCH   8  27
HETATM   27  O   UNL     1      31.910  50.971  43.857  1.00  0.00    -0.356 OA
HETATM   28  C   UNL     1      33.068  51.763  44.090  1.00  0.00     0.210 C 
ENDBRANCH   8  27
TORSDOF 8
ENDMDL
MODEL 10
REMARK VINA RESULT:      -6.6      2.639      4.172
REMARK  8 active torsions:
REMARK  status: ('A' for Active; 'I' for Inactive)
REMARK    1  A    between atoms: C_4  and  C_5 
REMARK    2  A    between atoms: C_5  and  N_6 
REMARK    3  A    between atoms: N_6  and  C_9 
REMARK    4  A    between atoms: C_9  and  C_10 
REMARK    5  A    between atoms: C_10  and  C_11 
REMARK    6  A    between atoms: C_11  and  C_12 
REMARK    7  A    between atoms: C_17  and  O_18 
REMARK    8  A    between atoms: C_21  and  O_22 
ROOT
HETATM    1  C   UNL     1      26.111  43.155  51.670  1.00  0.00     0.010 A 
HETATM    2  N   UNL     1      27.270  42.479  51.976  1.00  0.00    -0.359 N 
HETATM    3  H   UNL     1      27.583  41.616  51.551  1.00  0.00     0.166 HD
HETATM    4  C   UNL     1      27.952  43.122  52.981  1.00  0.00     0.048 A 
HETATM    5  C   UNL     1      27.223  44.256  53.327  1.00  0.00     0.026 A 
HETATM    6  C   UNL     1      27.702  45.108  54.349  1.00  0.00     0.083 A 
HETATM    7  C   UNL     1      28.908  44.766  54.989  1.00  0.00     0.074 A 
HETATM    8  C   UNL     1      29.617  43.615  54.634  1.00  0.00     0.073 A 
HETATM    9  C   UNL     1      29.151  42.780  53.612  1.00  0.00     0.067 A 
HETATM   10  C   UNL     1      26.067  44.265  52.492  1.00  0.00     0.041 A 
ENDROOT
BRANCH   1  11
HETATM   11  C   UNL     1      25.145  42.661  50.653  1.00  0.00     0.059 C 
BRANCH  11  12
HETATM   12  C   UNL     1      24.388  43.812  49.984  1.00  0.00     0.033 C 
BRANCH  12  13
HETATM   13  C   UNL     1      22.915  43.858  50.376  1.00  0.00     0.233 C 
BRANCH  13  14
HETATM   14  N   UNL     1      22.148  44.686  49.397  1.00  0.00    -0.067 N 
HETATM   15  H   UNL     1      21.554  45.346  49.920  1.00  0.00     0.277 HD
HETATM   16  H   UNL     1      21.489  44.111  48.856  1.00  0.00     0.277 HD
BRANCH  14  17
HETATM   17  C   UNL     1      22.945  45.501  48.415  1.00  0.00     0.223 C 
HETATM   18  C   UNL     1      22.319  45.401  47.025  1.00  0.00     0.046 C 
BRANCH  17  19
HETATM   19  C   UNL     1      23.039  46.928  48.862  1.00  0.00     0.032 A 
HETATM   20  S   UNL     1      21.828  48.090  48.481  1.00  0.00    -0.076 SA
HETATM   21  C   UNL     1      22.719  49.293  49.325  1.00  0.00     0.071 A 
HETATM   22  C   UNL     1      22.216  50.692  49.423  1.00  0.00     0.078 C 
HETATM   23  N   UNL     1      23.841  48.873  49.865  1.00  0.00    -0.257 NA
HETATM   24  C   UNL     1      24.036  47.538  49.595  1.00  0.00     0.134 A 
ENDBRANCH  17  19
ENDBRANCH  14  17
ENDBRANCH  13  14
ENDBRANCH  12  13
ENDBRANCH  11  12
ENDBRANCH   1  11
BRANCH   6  25
HETATM   25  O   UNL     1      26.941  46.212  54.635  1.00  0.00    -0.355 OA
HETATM   26  C   UNL     1      27.626  47.444  54.829  1.00  0.00     0.210 C 
ENDBRANCH   6  25
BRANCH   8  27
HETATM   27  O   UNL     1      30.790  43.190  55.200  1.00  0.00    -0.356 OA
HETATM   28  C   UNL     1      31.188  43.812  56.416  1.00  0.00     0.210 C 
ENDBRANCH   8  27
TORSDOF 8
ENDMDL
