MODEL 1
REMARK VINA RESULT:     -11.2      0.000      0.000
REMARK  4 active torsions:
REMARK  status: ('A' for Active; 'I' for Inactive)
REMARK    1  A    between atoms: C_8  and  C_9 
REMARK       I    between atoms: C_9  and  N_10 
REMARK    2  A    between atoms: N_10  and  C_11 
REMARK    3  A    between atoms: C_12  and  N_13 
REMARK    4  A    between atoms: C_16  and  O_17 
ROOT
HETATM    1  C   UNL     1      24.427  45.299  50.994  1.00  0.00     0.256 C 
HETATM    2  N   UNL     1      24.155  46.471  50.321  1.00  0.00    -0.321 N 
HETATM    3  O   UNL     1      23.576  44.412  51.037  1.00  0.00    -0.267 OA
HETATM    4  H   UNL     1      23.172  46.670  50.185  1.00  0.00     0.169 HD
ENDROOT
BRANCH   2   5
HETATM    5  C   UNL     1      25.049  47.446  49.846  1.00  0.00     0.061 A 
HETATM    6  C   UNL     1      24.565  48.613  49.197  1.00  0.00     0.057 A 
HETATM    7  C   UNL     1      25.555  49.472  48.679  1.00  0.00     0.031 A 
HETATM    8  C   UNL     1      26.925  49.185  48.757  1.00  0.00     0.002 A 
HETATM    9  C   UNL     1      27.360  48.026  49.382  1.00  0.00     0.002 A 
HETATM   10  C   UNL     1      26.424  47.165  49.940  1.00  0.00     0.032 A 
BRANCH   6  11
HETATM   11  N   UNL     1      23.212  48.928  49.078  1.00  0.00    -0.379 N 
HETATM   12  C   UNL     1      22.665  50.188  49.591  1.00  0.00     0.125 C 
HETATM   13  C   UNL     1      21.791  50.812  48.505  1.00  0.00     0.051 C 
HETATM   14  C   UNL     1      20.746  49.839  47.952  1.00  0.00     0.121 C 
HETATM   15  C   UNL     1      21.318  48.455  47.637  1.00  0.00     0.051 C 
HETATM   16  C   UNL     1      22.178  47.928  48.785  1.00  0.00     0.125 C 
BRANCH  14  17
HETATM   17  O   UNL     1      19.645  49.731  48.854  1.00  0.00    -0.395 OA
HETATM   18  H   UNL     1      19.026  50.461  48.691  1.00  0.00     0.210 HD
ENDBRANCH  14  17
ENDBRANCH   6  11
ENDBRANCH   2   5
BRANCH   1  19
HETATM   19  C   UNL     1      25.671  45.154  51.817  1.00  0.00     0.033 A 
HETATM   20  C   UNL     1      25.895  45.928  52.964  1.00  0.00     0.025 A 
HETATM   21  C   UNL     1      27.011  45.660  53.743  1.00  0.00    -0.042 A 
HETATM   22  C   UNL     1      27.895  44.611  53.432  1.00  0.00    -0.019 A 
HETATM   23  C   UNL     1      27.447  46.372  55.005  1.00  0.00     0.078 A 
HETATM   24  C   UNL     1      28.912  44.547  54.461  1.00  0.00    -0.019 A 
HETATM   25  C   UNL     1      27.679  43.828  52.309  1.00  0.00     0.014 A 
HETATM   26  C   UNL     1      28.670  45.576  55.401  1.00  0.00    -0.043 A 
HETATM   27  C   UNL     1      29.971  43.675  54.640  1.00  0.00     0.013 A 
HETATM   28  C   UNL     1      29.477  45.752  56.512  1.00  0.00     0.008 A 
HETATM   29  C   UNL     1      30.546  44.873  56.689  1.00  0.00     0.001 A 
HETATM   30  C   UNL     1      30.789  43.843  55.763  1.00  0.00     0.001 A 
HETATM   31  C   UNL     1      26.562  44.106  51.502  1.00  0.00     0.018 A 
ENDBRANCH   1  19
TORSDOF 4
ENDMDL
MODEL 2
REMARK VINA RESULT:     -10.3     11.424     13.163
REMARK  4 active torsions:
REMARK  status: ('A' for Active; 'I' for Inactive)
REMARK    1  A    between atoms: C_8  and  C_9 
REMARK       I    between atoms: C_9  and  N_10 
REMARK    2  A    between atoms: N_10  and  C_11 
REMARK    3  A    between atoms: C_12  and  N_13 
REMARK    4  A    between atoms: C_16  and  O_17 
ROOT
HETATM    1  C   UNL     1      30.472  49.328  42.353  1.00  0.00     0.256 C 
HETATM    2  N   UNL     1      29.346  49.983  41.901  1.00  0.00    -0.321 N 
HETATM    3  O   UNL     1      30.360  48.228  42.893  1.00  0.00    -0.267 OA
HETATM    4  H   UNL     1      28.477  49.683  42.324  1.00  0.00     0.169 HD
ENDROOT
BRANCH   2   5
HETATM    5  C   UNL     1      29.247  51.035  40.975  1.00  0.00     0.061 A 
HETATM    6  C   UNL     1      29.291  50.773  39.580  1.00  0.00     0.057 A 
HETATM    7  C   UNL     1      29.278  51.913  38.749  1.00  0.00     0.031 A 
HETATM    8  C   UNL     1      29.264  53.220  39.256  1.00  0.00     0.002 A 
HETATM    9  C   UNL     1      29.241  53.437  40.625  1.00  0.00     0.002 A 
HETATM   10  C   UNL     1      29.216  52.346  41.484  1.00  0.00     0.032 A 
BRANCH   6  11
HETATM   11  N   UNL     1      29.326  49.492  39.033  1.00  0.00    -0.379 N 
HETATM   12  C   UNL     1      30.587  48.858  38.633  1.00  0.00     0.125 C 
HETATM   13  C   UNL     1      30.614  47.439  39.200  1.00  0.00     0.051 C 
HETATM   14  C   UNL     1      29.357  46.637  38.856  1.00  0.00     0.121 C 
HETATM   15  C   UNL     1      28.062  47.421  39.077  1.00  0.00     0.051 C 
HETATM   16  C   UNL     1      28.143  48.824  38.476  1.00  0.00     0.125 C 
BRANCH  14  17
HETATM   17  O   UNL     1      29.428  46.160  37.511  1.00  0.00    -0.395 OA
HETATM   18  H   UNL     1      28.649  46.471  37.022  1.00  0.00     0.210 HD
ENDBRANCH  14  17
ENDBRANCH   6  11
ENDBRANCH   2   5
BRANCH   1  19
HETATM   19  C   UNL     1      31.809  50.005  42.355  1.00  0.00     0.033 A 
HETATM   20  C   UNL     1      32.219  50.834  43.410  1.00  0.00     0.025 A 
HETATM   21  C   UNL     1      33.512  51.334  43.402  1.00  0.00    -0.042 A 
HETATM   22  C   UNL     1      34.428  51.000  42.388  1.00  0.00    -0.019 A 
HETATM   23  C   UNL     1      34.154  52.245  44.425  1.00  0.00     0.078 A 
HETATM   24  C   UNL     1      35.700  51.621  42.696  1.00  0.00    -0.019 A 
HETATM   25  C   UNL     1      34.042  50.172  41.346  1.00  0.00     0.014 A 
HETATM   26  C   UNL     1      35.565  52.362  43.892  1.00  0.00    -0.043 A 
HETATM   27  C   UNL     1      36.920  51.565  42.045  1.00  0.00     0.013 A 
HETATM   28  C   UNL     1      36.628  53.056  44.444  1.00  0.00     0.008 A 
HETATM   29  C   UNL     1      37.857  53.000  43.785  1.00  0.00     0.001 A 
HETATM   30  C   UNL     1      38.001  52.260  42.599  1.00  0.00     0.001 A 
HETATM   31  C   UNL     1      32.726  49.677  41.334  1.00  0.00     0.018 A 
ENDBRANCH   1  19
TORSDOF 4
ENDMDL
MODEL 3
REMARK VINA RESULT:      -9.9      6.717     11.519
REMARK  4 active torsions:
REMARK  status: ('A' for Active; 'I' for Inactive)
REMARK    1  A    between atoms: C_8  and  C_9 
REMARK       I    between atoms: C_9  and  N_10 
REMARK    2  A    between atoms: N_10  and  C_11 
REMARK    3  A    between atoms: C_12  and  N_13 
REMARK    4  A    between atoms: C_16  and  O_17 
ROOT
HETATM    1  C   UNL     1      18.849  49.402  50.653  1.00  0.00     0.256 C 
HETATM    2  N   UNL     1      20.112  48.941  50.349  1.00  0.00    -0.321 N 
HETATM    3  O   UNL     1      18.314  49.057  51.706  1.00  0.00    -0.267 OA
HETATM    4  H   UNL     1      20.392  48.100  50.838  1.00  0.00     0.169 HD
ENDROOT
BRANCH   2   5
HETATM    5  C   UNL     1      21.040  49.449  49.423  1.00  0.00     0.061 A 
HETATM    6  C   UNL     1      21.441  48.672  48.304  1.00  0.00     0.057 A 
HETATM    7  C   UNL     1      22.445  49.246  47.497  1.00  0.00     0.031 A 
HETATM    8  C   UNL     1      23.042  50.479  47.792  1.00  0.00     0.002 A 
HETATM    9  C   UNL     1      22.638  51.201  48.904  1.00  0.00     0.002 A 
HETATM   10  C   UNL     1      21.627  50.695  49.711  1.00  0.00     0.032 A 
BRANCH   6  11
HETATM   11  N   UNL     1      20.889  47.433  47.985  1.00  0.00    -0.379 N 
HETATM   12  C   UNL     1      21.560  46.176  48.334  1.00  0.00     0.125 C 
HETATM   13  C   UNL     1      20.536  45.247  48.984  1.00  0.00     0.051 C 
HETATM   14  C   UNL     1      19.266  45.083  48.146  1.00  0.00     0.121 C 
HETATM   15  C   UNL     1      18.722  46.409  47.610  1.00  0.00     0.051 C 
HETATM   16  C   UNL     1      19.827  47.260  46.986  1.00  0.00     0.125 C 
BRANCH  14  17
HETATM   17  O   UNL     1      19.497  44.169  47.073  1.00  0.00    -0.395 OA
HETATM   18  H   UNL     1      20.331  43.696  47.231  1.00  0.00     0.210 HD
ENDBRANCH  14  17
ENDBRANCH   6  11
ENDBRANCH   2   5
BRANCH   1  19
HETATM   19  C   UNL     1      18.048  50.174  49.649  1.00  0.00     0.033 A 
HETATM   20  C   UNL     1      17.410  49.547  48.570  1.00  0.00     0.025 A 
HETATM   21  C   UNL     1      16.589  50.304  47.747  1.00  0.00    -0.042 A 
HETATM   22  C   UNL     1      16.354  51.670  47.993  1.00  0.00    -0.019 A 
HETATM   23  C   UNL     1      15.819  49.838  46.531  1.00  0.00     0.078 A 
HETATM   24  C   UNL     1      15.412  52.157  47.007  1.00  0.00    -0.019 A 
HETATM   25  C   UNL     1      16.966  52.300  49.064  1.00  0.00     0.014 A 
HETATM   26  C   UNL     1      15.081  51.096  46.132  1.00  0.00    -0.043 A 
HETATM   27  C   UNL     1      14.830  53.402  46.843  1.00  0.00     0.013 A 
HETATM   28  C   UNL     1      14.185  51.262  45.091  1.00  0.00     0.008 A 
HETATM   29  C   UNL     1      13.601  52.519  44.926  1.00  0.00     0.001 A 
HETATM   30  C   UNL     1      13.919  53.577  45.795  1.00  0.00     0.001 A 
HETATM   31  C   UNL     1      17.816  51.545  49.891  1.00  0.00     0.018 A 
ENDBRANCH   1  19
TORSDOF 4
ENDMDL
MODEL 4
REMARK VINA RESULT:      -9.6     17.229     19.724
REMARK  4 active torsions:
REMARK  status: ('A' for Active; 'I' for Inactive)
REMARK    1  A    between atoms: C_8  and  C_9 
REMARK       I    between atoms: C_9  and  N_10 
REMARK    2  A    between atoms: N_10  and  C_11 
REMARK    3  A    between atoms: C_12  and  N_13 
REMARK    4  A    between atoms: C_16  and  O_17 
ROOT
HETATM    1  C   UNL     1      37.419  44.914  63.529  1.00  0.00     0.256 C 
HETATM    2  N   UNL     1      37.194  43.643  63.043  1.00  0.00    -0.321 N 
HETATM    3  O   UNL     1      36.588  45.798  63.326  1.00  0.00    -0.267 OA
HETATM    4  H   UNL     1      36.533  43.587  62.279  1.00  0.00     0.169 HD
ENDROOT
BRANCH   2   5
HETATM    5  C   UNL     1      37.791  42.431  63.428  1.00  0.00     0.061 A 
HETATM    6  C   UNL     1      37.371  41.765  64.610  1.00  0.00     0.057 A 
HETATM    7  C   UNL     1      38.104  40.608  64.946  1.00  0.00     0.031 A 
HETATM    8  C   UNL     1      39.200  40.160  64.195  1.00  0.00     0.002 A 
HETATM    9  C   UNL     1      39.593  40.847  63.056  1.00  0.00     0.002 A 
HETATM   10  C   UNL     1      38.880  41.972  62.664  1.00  0.00     0.032 A 
BRANCH   6  11
HETATM   11  N   UNL     1      36.302  42.186  65.398  1.00  0.00    -0.379 N 
HETATM   12  C   UNL     1      36.443  43.272  66.374  1.00  0.00     0.125 C 
HETATM   13  C   UNL     1      35.277  44.242  66.187  1.00  0.00     0.051 C 
HETATM   14  C   UNL     1      33.915  43.544  66.200  1.00  0.00     0.121 C 
HETATM   15  C   UNL     1      33.878  42.280  65.338  1.00  0.00     0.051 C 
HETATM   16  C   UNL     1      35.089  41.384  65.599  1.00  0.00     0.125 C 
BRANCH  14  17
HETATM   17  O   UNL     1      33.525  43.245  67.540  1.00  0.00    -0.395 OA
HETATM   18  H   UNL     1      32.556  43.205  67.589  1.00  0.00     0.210 HD
ENDBRANCH  14  17
ENDBRANCH   6  11
ENDBRANCH   2   5
BRANCH   1  19
HETATM   19  C   UNL     1      38.733  45.280  64.149  1.00  0.00     0.033 A 
HETATM   20  C   UNL     1      39.955  44.946  63.549  1.00  0.00     0.025 A 
HETATM   21  C   UNL     1      41.129  45.418  64.117  1.00  0.00    -0.042 A 
HETATM   22  C   UNL     1      41.120  46.249  65.252  1.00  0.00    -0.019 A 
HETATM   23  C   UNL     1      42.546  45.172  63.644  1.00  0.00     0.078 A 
HETATM   24  C   UNL     1      42.485  46.622  65.559  1.00  0.00    -0.019 A 
HETATM   25  C   UNL     1      39.919  46.599  65.848  1.00  0.00     0.014 A 
HETATM   26  C   UNL     1      43.346  45.999  64.625  1.00  0.00    -0.043 A 
HETATM   27  C   UNL     1      43.003  47.451  66.538  1.00  0.00     0.013 A 
HETATM   28  C   UNL     1      44.717  46.185  64.662  1.00  0.00     0.008 A 
HETATM   29  C   UNL     1      45.237  47.020  65.651  1.00  0.00     0.001 A 
HETATM   30  C   UNL     1      44.388  47.648  66.579  1.00  0.00     0.001 A 
HETATM   31  C   UNL     1      38.725  46.109  65.292  1.00  0.00     0.018 A 
ENDBRANCH   1  19
TORSDOF 4
ENDMDL
MODEL 5
REMARK VINA RESULT:      -9.6      4.572      7.552
REMARK  4 active torsions:
REMARK  status: ('A' for Active; 'I' for Inactive)
REMARK    1  A    between atoms: C_8  and  C_9 
REMARK       I    between atoms: C_9  and  N_10 
REMARK    2  A    between atoms: N_10  and  C_11 
REMARK    3  A    between atoms: C_12  and  N_13 
REMARK    4  A    between atoms: C_16  and  O_17 
ROOT
HETATM    1  C   UNL     1      19.418  47.745  48.072  1.00  0.00     0.256 C 
HETATM    2  N   UNL     1      18.343  48.525  48.441  1.00  0.00    -0.321 N 
HETATM    3  O   UNL     1      19.229  46.592  47.687  1.00  0.00    -0.267 OA
HETATM    4  H   UNL     1      17.506  48.013  48.686  1.00  0.00     0.169 HD
ENDROOT
BRANCH   2   5
HETATM    5  C   UNL     1      18.267  49.922  48.568  1.00  0.00     0.061 A 
HETATM    6  C   UNL     1      17.917  50.730  47.454  1.00  0.00     0.057 A 
HETATM    7  C   UNL     1      17.964  52.121  47.675  1.00  0.00     0.031 A 
HETATM    8  C   UNL     1      18.368  52.681  48.895  1.00  0.00     0.002 A 
HETATM    9  C   UNL     1      18.721  51.861  49.956  1.00  0.00     0.002 A 
HETATM   10  C   UNL     1      18.656  50.483  49.798  1.00  0.00     0.032 A 
BRANCH   6  11
HETATM   11  N   UNL     1      17.530  50.216  46.217  1.00  0.00    -0.379 N 
HETATM   12  C   UNL     1      18.469  50.115  45.095  1.00  0.00     0.125 C 
HETATM   13  C   UNL     1      18.352  48.716  44.493  1.00  0.00     0.051 C 
HETATM   14  C   UNL     1      16.909  48.334  44.155  1.00  0.00     0.121 C 
HETATM   15  C   UNL     1      15.920  48.665  45.275  1.00  0.00     0.051 C 
HETATM   16  C   UNL     1      16.126  50.082  45.807  1.00  0.00     0.125 C 
BRANCH  14  17
HETATM   17  O   UNL     1      16.506  48.954  42.934  1.00  0.00    -0.395 OA
HETATM   18  H   UNL     1      16.205  49.859  43.119  1.00  0.00     0.210 HD
ENDBRANCH  14  17
ENDBRANCH   6  11
ENDBRANCH   2   5
BRANCH   1  19
HETATM   19  C   UNL     1      20.824  48.215  48.293  1.00  0.00     0.033 A 
HETATM   20  C   UNL     1      21.750  47.462  49.028  1.00  0.00     0.025 A 
HETATM   21  C   UNL     1      23.065  47.900  49.093  1.00  0.00    -0.042 A 
HETATM   22  C   UNL     1      23.494  49.054  48.413  1.00  0.00    -0.019 A 
HETATM   23  C   UNL     1      24.216  47.253  49.832  1.00  0.00     0.078 A 
HETATM   24  C   UNL     1      24.919  49.207  48.624  1.00  0.00    -0.019 A 
HETATM   25  C   UNL     1      22.593  49.801  47.671  1.00  0.00     0.014 A 
HETATM   26  C   UNL     1      25.369  48.158  49.458  1.00  0.00    -0.043 A 
HETATM   27  C   UNL     1      25.814  50.144  48.138  1.00  0.00     0.013 A 
HETATM   28  C   UNL     1      26.699  48.036  49.823  1.00  0.00     0.008 A 
HETATM   29  C   UNL     1      27.600  48.982  49.333  1.00  0.00     0.001 A 
HETATM   30  C   UNL     1      27.162  50.024  48.498  1.00  0.00     0.001 A 
HETATM   31  C   UNL     1      21.254  49.376  47.616  1.00  0.00     0.018 A 
ENDBRANCH   1  19
TORSDOF 4
ENDMDL
MODEL 6
REMARK VINA RESULT:      -9.4      5.051     10.914
REMARK  4 active torsions:
REMARK  status: ('A' for Active; 'I' for Inactive)
REMARK    1  A    between atoms: C_8  and  C_9 
REMARK       I    between atoms: C_9  and  N_10 
REMARK    2  A    between atoms: N_10  and  C_11 
REMARK    3  A    between atoms: C_12  and  N_13 
REMARK    4  A    between atoms: C_16  and  O_17 
ROOT
HETATM    1  C   UNL     1      19.168  48.529  49.389  1.00  0.00     0.256 C 
HETATM    2  N   UNL     1      20.500  48.336  49.688  1.00  0.00    -0.321 N 
HETATM    3  O   UNL     1      18.305  48.071  50.136  1.00  0.00    -0.267 OA
HETATM    4  H   UNL     1      20.692  47.563  50.311  1.00  0.00     0.169 HD
ENDROOT
BRANCH   2   5
HETATM    5  C   UNL     1      21.623  49.032  49.210  1.00  0.00     0.061 A 
HETATM    6  C   UNL     1      22.738  48.327  48.683  1.00  0.00     0.057 A 
HETATM    7  C   UNL     1      23.843  49.124  48.322  1.00  0.00     0.031 A 
HETATM    8  C   UNL     1      23.867  50.514  48.504  1.00  0.00     0.002 A 
HETATM    9  C   UNL     1      22.767  51.166  49.039  1.00  0.00     0.002 A 
HETATM   10  C   UNL     1      21.640  50.429  49.377  1.00  0.00     0.032 A 
BRANCH   6  11
HETATM   11  N   UNL     1      22.765  46.945  48.504  1.00  0.00    -0.379 N 
HETATM   12  C   UNL     1      23.819  46.112  49.092  1.00  0.00     0.125 C 
HETATM   13  C   UNL     1      23.160  44.917  49.782  1.00  0.00     0.051 C 
HETATM   14  C   UNL     1      22.186  44.168  48.870  1.00  0.00     0.121 C 
HETATM   15  C   UNL     1      21.246  45.097  48.098  1.00  0.00     0.051 C 
HETATM   16  C   UNL     1      22.005  46.257  47.454  1.00  0.00     0.125 C 
BRANCH  14  17
HETATM   17  O   UNL     1      22.903  43.324  47.968  1.00  0.00    -0.395 OA
HETATM   18  H   UNL     1      22.380  43.204  47.159  1.00  0.00     0.210 HD
ENDBRANCH  14  17
ENDBRANCH   6  11
ENDBRANCH   2   5
BRANCH   1  19
HETATM   19  C   UNL     1      18.751  49.137  48.084  1.00  0.00     0.033 A 
HETATM   20  C   UNL     1      18.170  50.411  48.013  1.00  0.00     0.025 A 
HETATM   21  C   UNL     1      17.916  50.961  46.765  1.00  0.00    -0.042 A 
HETATM   22  C   UNL     1      18.262  50.290  45.578  1.00  0.00    -0.019 A 
HETATM   23  C   UNL     1      17.291  52.304  46.459  1.00  0.00     0.078 A 
HETATM   24  C   UNL     1      17.932  51.144  44.456  1.00  0.00    -0.019 A 
HETATM   25  C   UNL     1      18.849  49.036  45.632  1.00  0.00     0.014 A 
HETATM   26  C   UNL     1      17.357  52.338  44.948  1.00  0.00    -0.043 A 
HETATM   27  C   UNL     1      18.114  50.968  43.095  1.00  0.00     0.013 A 
HETATM   28  C   UNL     1      16.952  53.356  44.102  1.00  0.00     0.008 A 
HETATM   29  C   UNL     1      17.135  53.176  42.730  1.00  0.00     0.001 A 
HETATM   30  C   UNL     1      17.712  51.995  42.232  1.00  0.00     0.001 A 
HETATM   31  C   UNL     1      19.091  48.462  46.892  1.00  0.00     0.018 A 
ENDBRANCH   1  19
TORSDOF 4
ENDMDL
MODEL 7
REMARK VINA RESULT:      -9.4     17.806     20.269
REMARK  4 active torsions:
REMARK  status: ('A' for Active; 'I' for Inactive)
REMARK    1  A    between atoms: C_8  and  C_9 
REMARK       I    between atoms: C_9  and  N_10 
REMARK    2  A    between atoms: N_10  and  C_11 
REMARK    3  A    between atoms: C_12  and  N_13 
REMARK    4  A    between atoms: C_16  and  O_17 
ROOT
HETATM    1  C   UNL     1      37.529  46.801  64.225  1.00  0.00     0.256 C 
HETATM    2  N   UNL     1      38.680  46.083  63.979  1.00  0.00    -0.321 N 
HETATM    3  O   UNL     1      36.580  46.714  63.448  1.00  0.00    -0.267 OA
HETATM    4  H   UNL     1      38.803  45.787  63.019  1.00  0.00     0.169 HD
ENDROOT
BRANCH   2   5
HETATM    5  C   UNL     1      39.721  45.750  64.862  1.00  0.00     0.061 A 
HETATM    6  C   UNL     1      39.604  44.626  65.722  1.00  0.00     0.057 A 
HETATM    7  C   UNL     1      40.668  44.445  66.630  1.00  0.00     0.031 A 
HETATM    8  C   UNL     1      41.752  45.330  66.713  1.00  0.00     0.002 A 
HETATM    9  C   UNL     1      41.823  46.428  65.869  1.00  0.00     0.002 A 
HETATM   10  C   UNL     1      40.817  46.629  64.934  1.00  0.00     0.032 A 
BRANCH   6  11
HETATM   11  N   UNL     1      38.535  43.733  65.688  1.00  0.00    -0.379 N 
HETATM   12  C   UNL     1      37.425  43.821  66.642  1.00  0.00     0.125 C 
HETATM   13  C   UNL     1      36.112  43.732  65.865  1.00  0.00     0.051 C 
HETATM   14  C   UNL     1      36.057  42.523  64.929  1.00  0.00     0.121 C 
HETATM   15  C   UNL     1      37.335  42.337  64.108  1.00  0.00     0.051 C 
HETATM   16  C   UNL     1      38.585  42.448  64.980  1.00  0.00     0.125 C 
BRANCH  14  17
HETATM   17  O   UNL     1      35.763  41.338  65.669  1.00  0.00    -0.395 OA
HETATM   18  H   UNL     1      35.879  40.564  65.093  1.00  0.00     0.210 HD
ENDBRANCH  14  17
ENDBRANCH   6  11
ENDBRANCH   2   5
BRANCH   1  19
HETATM   19  C   UNL     1      37.476  47.816  65.326  1.00  0.00     0.033 A 
HETATM   20  C   UNL     1      37.838  49.155  65.119  1.00  0.00     0.025 A 
HETATM   21  C   UNL     1      37.653  50.065  66.149  1.00  0.00    -0.042 A 
HETATM   22  C   UNL     1      37.078  49.685  67.376  1.00  0.00    -0.019 A 
HETATM   23  C   UNL     1      37.981  51.541  66.145  1.00  0.00     0.078 A 
HETATM   24  C   UNL     1      36.961  50.862  68.211  1.00  0.00    -0.019 A 
HETATM   25  C   UNL     1      36.703  48.369  67.591  1.00  0.00     0.014 A 
HETATM   26  C   UNL     1      37.487  51.971  67.508  1.00  0.00    -0.043 A 
HETATM   27  C   UNL     1      36.427  51.029  69.477  1.00  0.00     0.013 A 
HETATM   28  C   UNL     1      37.496  53.243  68.055  1.00  0.00     0.008 A 
HETATM   29  C   UNL     1      36.959  53.409  69.332  1.00  0.00     0.001 A 
HETATM   30  C   UNL     1      36.428  52.313  70.035  1.00  0.00     0.001 A 
HETATM   31  C   UNL     1      36.906  47.436  66.560  1.00  0.00     0.018 A 
ENDBRANCH   1  19
TORSDOF 4
ENDMDL
MODEL 8
REMARK VINA RESULT:      -9.4      2.135      3.918
REMARK  4 active torsions:
REMARK  status: ('A' for Active; 'I' for Inactive)
REMARK    1  A    between atoms: C_8  and  C_9 
REMARK       I    between atoms: C_9  and  N_10 
REMARK    2  A    between atoms: N_10  and  C_11 
REMARK    3  A    between atoms: C_12  and  N_13 
REMARK    4  A    between atoms: C_16  and  O_17 
ROOT
HETATM    1  C   UNL     1      24.422  48.395  49.240  1.00  0.00     0.256 C 
HETATM    2  N   UNL     1      23.401  48.079  48.369  1.00  0.00    -0.321 N 
HETATM    3  O   UNL     1      24.955  49.501  49.176  1.00  0.00    -0.267 OA
HETATM    4  H   UNL     1      23.369  48.637  47.526  1.00  0.00     0.169 HD
ENDROOT
BRANCH   2   5
HETATM    5  C   UNL     1      22.435  47.063  48.469  1.00  0.00     0.061 A 
HETATM    6  C   UNL     1      21.068  47.386  48.678  1.00  0.00     0.057 A 
HETATM    7  C   UNL     1      20.206  46.285  48.857  1.00  0.00     0.031 A 
HETATM    8  C   UNL     1      20.663  44.959  48.870  1.00  0.00     0.002 A 
HETATM    9  C   UNL     1      22.008  44.683  48.681  1.00  0.00     0.002 A 
HETATM   10  C   UNL     1      22.891  45.732  48.465  1.00  0.00     0.032 A 
BRANCH   6  11
HETATM   11  N   UNL     1      20.574  48.689  48.694  1.00  0.00    -0.379 N 
HETATM   12  C   UNL     1      20.374  49.424  49.947  1.00  0.00     0.125 C 
HETATM   13  C   UNL     1      20.986  50.816  49.793  1.00  0.00     0.051 C 
HETATM   14  C   UNL     1      20.497  51.544  48.539  1.00  0.00     0.121 C 
HETATM   15  C   UNL     1      20.510  50.665  47.287  1.00  0.00     0.051 C 
HETATM   16  C   UNL     1      19.881  49.298  47.552  1.00  0.00     0.125 C 
BRANCH  14  17
HETATM   17  O   UNL     1      19.192  52.081  48.758  1.00  0.00    -0.395 OA
HETATM   18  H   UNL     1      19.214  52.669  49.530  1.00  0.00     0.210 HD
ENDBRANCH  14  17
ENDBRANCH   6  11
ENDBRANCH   2   5
BRANCH   1  19
HETATM   19  C   UNL     1      25.009  47.357  50.148  1.00  0.00     0.033 A 
HETATM   20  C   UNL     1      25.854  46.346  49.668  1.00  0.00     0.025 A 
HETATM   21  C   UNL     1      26.455  45.490  50.580  1.00  0.00    -0.042 A 
HETATM   22  C   UNL     1      26.267  45.637  51.966  1.00  0.00    -0.019 A 
HETATM   23  C   UNL     1      27.386  44.335  50.284  1.00  0.00     0.078 A 
HETATM   24  C   UNL     1      27.071  44.642  52.645  1.00  0.00    -0.019 A 
HETATM   25  C   UNL     1      25.446  46.639  52.455  1.00  0.00     0.014 A 
HETATM   26  C   UNL     1      27.740  43.860  51.675  1.00  0.00    -0.043 A 
HETATM   27  C   UNL     1      27.269  44.399  53.993  1.00  0.00     0.013 A 
HETATM   28  C   UNL     1      28.598  42.834  52.031  1.00  0.00     0.008 A 
HETATM   29  C   UNL     1      28.795  42.589  53.391  1.00  0.00     0.001 A 
HETATM   30  C   UNL     1      28.139  43.366  54.362  1.00  0.00     0.001 A 
HETATM   31  C   UNL     1      24.816  47.498  51.538  1.00  0.00     0.018 A 
ENDBRANCH   1  19
TORSDOF 4
ENDMDL
MODEL 9
REMARK VINA RESULT:      -9.2     11.885     13.826
REMARK  4 active torsions:
REMARK  status: ('A' for Active; 'I' for Inactive)
REMARK    1  A    between atoms: C_8  and  C_9 
REMARK       I    between atoms: C_9  and  N_10 
REMARK    2  A    between atoms: N_10  and  C_11 
REMARK    3  A    between atoms: C_12  and  N_13 
REMARK    4  A    between atoms: C_16  and  O_17 
ROOT
HETATM    1  C   UNL     1      31.524  51.062  38.098  1.00  0.00     0.256 C 
HETATM    2  N   UNL     1      32.339  51.795  38.934  1.00  0.00    -0.321 N 
HETATM    3  O   UNL     1      31.372  51.419  36.930  1.00  0.00    -0.267 OA
HETATM    4  H   UNL     1      32.502  52.750  38.644  1.00  0.00     0.169 HD
ENDROOT
BRANCH   2   5
HETATM    5  C   UNL     1      32.932  51.413  40.149  1.00  0.00     0.061 A 
HETATM    6  C   UNL     1      32.241  51.595  41.376  1.00  0.00     0.057 A 
HETATM    7  C   UNL     1      32.970  51.264  42.537  1.00  0.00     0.031 A 
HETATM    8  C   UNL     1      34.300  50.822  42.496  1.00  0.00     0.002 A 
HETATM    9  C   UNL     1      34.948  50.674  41.280  1.00  0.00     0.002 A 
HETATM   10  C   UNL     1      34.261  50.953  40.107  1.00  0.00     0.032 A 
BRANCH   6  11
HETATM   11  N   UNL     1      30.927  52.051  41.465  1.00  0.00    -0.379 N 
HETATM   12  C   UNL     1      30.545  53.396  41.020  1.00  0.00     0.125 C 
HETATM   13  C   UNL     1      29.297  53.278  40.146  1.00  0.00     0.051 C 
HETATM   14  C   UNL     1      28.175  52.483  40.816  1.00  0.00     0.121 C 
HETATM   15  C   UNL     1      28.660  51.186  41.467  1.00  0.00     0.051 C 
HETATM   16  C   UNL     1      29.912  51.415  42.313  1.00  0.00     0.125 C 
BRANCH  14  17
HETATM   17  O   UNL     1      27.495  53.297  41.773  1.00  0.00    -0.395 OA
HETATM   18  H   UNL     1      26.550  53.074  41.768  1.00  0.00     0.210 HD
ENDBRANCH  14  17
ENDBRANCH   6  11
ENDBRANCH   2   5
BRANCH   1  19
HETATM   19  C   UNL     1      30.686  49.938  38.629  1.00  0.00     0.033 A 
HETATM   20  C   UNL     1      29.293  49.915  38.472  1.00  0.00     0.025 A 
HETATM   21  C   UNL     1      28.594  48.790  38.883  1.00  0.00    -0.042 A 
HETATM   22  C   UNL     1      29.250  47.665  39.415  1.00  0.00    -0.019 A 
HETATM   23  C   UNL     1      27.100  48.559  38.818  1.00  0.00     0.078 A 
HETATM   24  C   UNL     1      28.261  46.642  39.685  1.00  0.00    -0.019 A 
HETATM   25  C   UNL     1      30.627  47.668  39.563  1.00  0.00     0.014 A 
HETATM   26  C   UNL     1      26.984  47.144  39.342  1.00  0.00    -0.043 A 
HETATM   27  C   UNL     1      28.396  45.351  40.165  1.00  0.00     0.013 A 
HETATM   28  C   UNL     1      25.839  46.380  39.480  1.00  0.00     0.008 A 
HETATM   29  C   UNL     1      25.977  45.079  39.965  1.00  0.00     0.001 A 
HETATM   30  C   UNL     1      27.243  44.569  40.302  1.00  0.00     0.001 A 
HETATM   31  C   UNL     1      31.343  48.812  39.168  1.00  0.00     0.018 A 
ENDBRANCH   1  19
TORSDOF 4
ENDMDL
MODEL 10
REMARK VINA RESULT:      -9.2      2.550      9.267
REMARK  4 active torsions:
REMARK  status: ('A' for Active; 'I' for Inactive)
REMARK    1  A    between atoms: C_8  and  C_9 
REMARK       I    between atoms: C_9  and  N_10 
REMARK    2  A    between atoms: N_10  and  C_11 
REMARK    3  A    between atoms: C_12  and  N_13 
REMARK    4  A    between atoms: C_16  and  O_17 
ROOT
HETATM    1  C   UNL     1      25.006  48.958  49.075  1.00  0.00     0.256 C 
HETATM    2  N   UNL     1      25.249  47.762  49.715  1.00  0.00    -0.321 N 
HETATM    3  O   UNL     1      25.946  49.703  48.802  1.00  0.00    -0.267 OA
HETATM    4  H   UNL     1      26.129  47.711  50.211  1.00  0.00     0.169 HD
ENDROOT
BRANCH   2   5
HETATM    5  C   UNL     1      24.424  46.627  49.811  1.00  0.00     0.061 A 
HETATM    6  C   UNL     1      24.659  45.649  50.812  1.00  0.00     0.057 A 
HETATM    7  C   UNL     1      23.830  44.510  50.753  1.00  0.00     0.031 A 
HETATM    8  C   UNL     1      22.864  44.327  49.754  1.00  0.00     0.002 A 
HETATM    9  C   UNL     1      22.675  45.297  48.781  1.00  0.00     0.002 A 
HETATM   10  C   UNL     1      23.443  46.453  48.817  1.00  0.00     0.032 A 
BRANCH   6  11
HETATM   11  N   UNL     1      25.622  45.779  51.811  1.00  0.00    -0.379 N 
HETATM   12  C   UNL     1      25.619  46.912  52.743  1.00  0.00     0.125 C 
HETATM   13  C   UNL     1      25.788  46.369  54.162  1.00  0.00     0.051 C 
HETATM   14  C   UNL     1      26.988  45.430  54.300  1.00  0.00     0.121 C 
HETATM   15  C   UNL     1      27.079  44.398  53.174  1.00  0.00     0.051 C 
HETATM   16  C   UNL     1      26.893  45.044  51.802  1.00  0.00     0.125 C 
BRANCH  14  17
HETATM   17  O   UNL     1      28.198  46.184  54.385  1.00  0.00    -0.395 OA
HETATM   18  H   UNL     1      28.214  46.843  53.671  1.00  0.00     0.210 HD
ENDBRANCH  14  17
ENDBRANCH   6  11
ENDBRANCH   2   5
BRANCH   1  19
HETATM   19  C   UNL     1      23.606  49.447  48.859  1.00  0.00     0.033 A 
HETATM   20  C   UNL     1      22.819  49.931  49.914  1.00  0.00     0.025 A 
HETATM   21  C   UNL     1      21.577  50.476  49.625  1.00  0.00    -0.042 A 
HETATM   22  C   UNL     1      21.108  50.589  48.304  1.00  0.00    -0.019 A 
HETATM   23  C   UNL     1      20.569  51.042  50.602  1.00  0.00     0.078 A 
HETATM   24  C   UNL     1      19.821  51.252  48.329  1.00  0.00    -0.019 A 
HETATM   25  C   UNL     1      21.880  50.128  47.250  1.00  0.00     0.014 A 
HETATM   26  C   UNL     1      19.480  51.530  49.673  1.00  0.00    -0.043 A 
HETATM   27  C   UNL     1      18.976  51.636  47.302  1.00  0.00     0.013 A 
HETATM   28  C   UNL     1      18.303  52.177  50.007  1.00  0.00     0.008 A 
HETATM   29  C   UNL     1      17.452  52.561  48.971  1.00  0.00     0.001 A 
HETATM   30  C   UNL     1      17.786  52.296  47.631  1.00  0.00     0.001 A 
HETATM   31  C   UNL     1      23.132  49.555  47.534  1.00  0.00     0.018 A 
ENDBRANCH   1  19
TORSDOF 4
ENDMDL
