MODEL 1
REMARK VINA RESULT:      -9.7      0.000      0.000
REMARK  9 active torsions:
REMARK  status: ('A' for Active; 'I' for Inactive)
REMARK    1  A    between atoms: C_4  and  C_5 
REMARK    2  A    between atoms: C_5  and  N_6 
REMARK    3  A    between atoms: C_12  and  N_13 
REMARK       I    between atoms: N_13  and  C_14 
REMARK    4  A    between atoms: N_13  and  C_27 
REMARK    5  A    between atoms: C_14  and  C_15 
REMARK    6  A    between atoms: C_15  and  C_16 
REMARK    7  A    between atoms: C_27  and  C_28 
REMARK    8  A    between atoms: C_28  and  C_29 
REMARK    9  A    between atoms: C_35  and  N_36 
ROOT
HETATM    1  N   UNL     1      22.587  49.075  48.685  1.00  0.00    -0.310 N 
HETATM    2  C   UNL     1      21.880  48.242  47.794  1.00  0.00     0.228 C 
HETATM    3  O   UNL     1      22.243  47.086  47.533  1.00  0.00    -0.273 OA
ENDROOT
BRANCH   1   4
HETATM    4  C   UNL     1      23.972  48.799  48.934  1.00  0.00     0.144 C 
HETATM    5  C   UNL     1      24.989  49.679  48.247  1.00  0.00     0.279 C 
HETATM    6  N   UNL     1      26.222  49.714  48.803  1.00  0.00    -0.273 N 
HETATM    7  O   UNL     1      24.740  50.330  47.235  1.00  0.00    -0.265 OA
HETATM    8  C   UNL     1      26.777  48.558  49.241  1.00  0.00     0.331 C 
HETATM    9  H   UNL     1      26.884  50.298  48.313  1.00  0.00     0.173 HD
HETATM   10  N   UNL     1      25.889  47.601  49.710  1.00  0.00    -0.284 N 
HETATM   11  O   UNL     1      27.994  48.412  49.155  1.00  0.00    -0.246 OA
HETATM   12  C   UNL     1      24.499  47.789  49.689  1.00  0.00     0.117 C 
BRANCH  10  13
HETATM   13  C   UNL     1      26.477  46.308  50.074  1.00  0.00     0.173 C 
BRANCH  13  14
HETATM   14  C   UNL     1      26.569  45.981  51.549  1.00  0.00    -0.040 A 
HETATM   15  C   UNL     1      26.384  46.925  52.566  1.00  0.00     0.009 A 
HETATM   16  C   UNL     1      26.507  46.554  53.909  1.00  0.00     0.001 A 
HETATM   17  C   UNL     1      26.816  45.240  54.251  1.00  0.00     0.000 A 
HETATM   18  C   UNL     1      27.007  44.290  53.252  1.00  0.00     0.001 A 
HETATM   19  C   UNL     1      26.884  44.659  51.911  1.00  0.00     0.009 A 
ENDBRANCH  13  14
ENDBRANCH  10  13
BRANCH  12  20
HETATM   20  N   UNL     1      23.687  46.968  50.462  1.00  0.00    -0.286 NA
HETATM   21  H   UNL     1      24.187  46.665  51.307  1.00  0.00     0.125 HD
HETATM   22  H   UNL     1      22.798  47.375  50.724  1.00  0.00     0.125 HD
ENDBRANCH  12  20
ENDBRANCH   1   4
BRANCH   1  23
HETATM   23  C   UNL     1      22.139  50.444  49.072  1.00  0.00     0.137 C 
BRANCH  23  24
HETATM   24  C   UNL     1      20.979  50.674  50.071  1.00  0.00     0.054 C 
BRANCH  24  25
HETATM   25  C   UNL     1      19.621  51.192  49.665  1.00  0.00    -0.082 C 
HETATM   26  C   UNL     1      19.679  52.211  48.539  1.00  0.00     0.034 C 
HETATM   27  C   UNL     1      18.323  52.552  47.924  1.00  0.00     0.005 C 
HETATM   28  C   UNL     1      17.266  52.724  49.004  1.00  0.00     0.004 C 
HETATM   29  C   UNL     1      17.128  51.448  49.836  1.00  0.00     0.027 C 
HETATM   30  C   UNL     1      18.451  50.847  50.229  1.00  0.00    -0.024 C 
ENDBRANCH  24  25
ENDBRANCH  23  24
ENDBRANCH   1  23
BRANCH   2  31
HETATM   31  C   UNL     1      20.643  48.781  47.089  1.00  0.00     0.144 C 
BRANCH  31  32
HETATM   32  C   UNL     1      19.368  48.284  47.698  1.00  0.00    -0.021 A 
HETATM   33  C   UNL     1      18.045  48.707  47.345  1.00  0.00    -0.001 A 
HETATM   34  C   UNL     1      17.158  48.078  48.218  1.00  0.00     0.042 A 
HETATM   35  C   UNL     1      17.522  49.586  46.374  1.00  0.00     0.014 A 
HETATM   36  C   UNL     1      15.775  48.295  48.177  1.00  0.00     0.030 A 
HETATM   37  N   UNL     1      17.907  47.275  49.046  1.00  0.00    -0.365 N 
HETATM   38  C   UNL     1      15.285  49.176  47.208  1.00  0.00     0.002 A 
HETATM   39  C   UNL     1      16.143  49.810  46.314  1.00  0.00     0.001 A 
HETATM   40  H   UNL     1      17.523  46.695  49.778  1.00  0.00     0.165 HD
HETATM   41  C   UNL     1      19.238  47.397  48.749  1.00  0.00     0.097 A 
ENDBRANCH  31  32
ENDBRANCH   2  31
TORSDOF 9
ENDMDL
MODEL 2
REMARK VINA RESULT:      -9.1      3.704      9.511
REMARK  9 active torsions:
REMARK  status: ('A' for Active; 'I' for Inactive)
REMARK    1  A    between atoms: C_4  and  C_5 
REMARK    2  A    between atoms: C_5  and  N_6 
REMARK    3  A    between atoms: C_12  and  N_13 
REMARK       I    between atoms: N_13  and  C_14 
REMARK    4  A    between atoms: N_13  and  C_27 
REMARK    5  A    between atoms: C_14  and  C_15 
REMARK    6  A    between atoms: C_15  and  C_16 
REMARK    7  A    between atoms: C_27  and  C_28 
REMARK    8  A    between atoms: C_28  and  C_29 
REMARK    9  A    between atoms: C_35  and  N_36 
ROOT
HETATM    1  N   UNL     1      25.424  44.922  51.655  1.00  0.00    -0.310 N 
HETATM    2  C   UNL     1      25.765  44.111  52.757  1.00  0.00     0.228 C 
HETATM    3  O   UNL     1      26.092  42.922  52.633  1.00  0.00    -0.273 OA
ENDROOT
BRANCH   1   4
HETATM    4  C   UNL     1      24.985  44.291  50.445  1.00  0.00     0.144 C 
HETATM    5  C   UNL     1      26.039  43.962  49.414  1.00  0.00     0.279 C 
HETATM    6  N   UNL     1      25.715  43.006  48.513  1.00  0.00    -0.273 N 
HETATM    7  O   UNL     1      27.133  44.520  49.368  1.00  0.00    -0.265 OA
HETATM    8  C   UNL     1      24.472  43.007  47.973  1.00  0.00     0.331 C 
HETATM    9  H   UNL     1      26.432  42.819  47.827  1.00  0.00     0.173 HD
HETATM   10  N   UNL     1      23.459  43.488  48.790  1.00  0.00    -0.284 N 
HETATM   11  O   UNL     1      24.327  42.638  46.810  1.00  0.00    -0.246 OA
HETATM   12  C   UNL     1      23.705  43.990  50.078  1.00  0.00     0.117 C 
BRANCH  10  13
HETATM   13  C   UNL     1      22.136  43.599  48.169  1.00  0.00     0.173 C 
BRANCH  13  14
HETATM   14  C   UNL     1      21.550  44.988  48.036  1.00  0.00    -0.040 A 
HETATM   15  C   UNL     1      22.252  46.081  47.512  1.00  0.00     0.009 A 
HETATM   16  C   UNL     1      21.652  47.342  47.441  1.00  0.00     0.001 A 
HETATM   17  C   UNL     1      20.347  47.527  47.892  1.00  0.00     0.000 A 
HETATM   18  C   UNL     1      19.637  46.453  48.419  1.00  0.00     0.001 A 
HETATM   19  C   UNL     1      20.234  45.193  48.490  1.00  0.00     0.009 A 
ENDBRANCH  13  14
ENDBRANCH  10  13
BRANCH  12  20
HETATM   20  N   UNL     1      22.646  44.140  50.966  1.00  0.00    -0.286 NA
HETATM   21  H   UNL     1      22.121  44.998  50.754  1.00  0.00     0.125 HD
HETATM   22  H   UNL     1      22.009  43.355  51.002  1.00  0.00     0.125 HD
ENDBRANCH  12  20
ENDBRANCH   1   4
BRANCH   1  23
HETATM   23  C   UNL     1      25.094  46.372  51.765  1.00  0.00     0.137 C 
BRANCH  23  24
HETATM   24  C   UNL     1      24.506  47.170  50.576  1.00  0.00     0.054 C 
BRANCH  24  25
HETATM   25  C   UNL     1      25.321  48.104  49.715  1.00  0.00    -0.082 C 
HETATM   26  C   UNL     1      26.813  48.032  49.998  1.00  0.00     0.034 C 
HETATM   27  C   UNL     1      27.686  48.754  48.974  1.00  0.00     0.005 C 
HETATM   28  C   UNL     1      27.083  50.100  48.600  1.00  0.00     0.004 C 
HETATM   29  C   UNL     1      25.679  49.923  48.020  1.00  0.00     0.027 C 
HETATM   30  C   UNL     1      24.829  48.958  48.801  1.00  0.00    -0.024 C 
ENDBRANCH  24  25
ENDBRANCH  23  24
ENDBRANCH   1  23
BRANCH   2  31
HETATM   31  C   UNL     1      25.695  44.692  54.163  1.00  0.00     0.144 C 
BRANCH  31  32
HETATM   32  C   UNL     1      26.995  45.292  54.605  1.00  0.00    -0.021 A 
HETATM   33  C   UNL     1      28.223  44.581  54.811  1.00  0.00    -0.001 A 
HETATM   34  C   UNL     1      29.152  45.490  55.316  1.00  0.00     0.042 A 
HETATM   35  C   UNL     1      28.622  43.240  54.634  1.00  0.00     0.014 A 
HETATM   36  C   UNL     1      30.457  45.121  55.666  1.00  0.00     0.030 A 
HETATM   37  N   UNL     1      28.527  46.713  55.379  1.00  0.00    -0.365 N 
HETATM   38  C   UNL     1      30.824  43.784  55.485  1.00  0.00     0.002 A 
HETATM   39  C   UNL     1      29.924  42.855  54.972  1.00  0.00     0.001 A 
HETATM   40  H   UNL     1      28.967  47.562  55.706  1.00  0.00     0.165 HD
HETATM   41  C   UNL     1      27.227  46.605  54.963  1.00  0.00     0.097 A 
ENDBRANCH  31  32
ENDBRANCH   2  31
TORSDOF 9
ENDMDL
MODEL 3
REMARK VINA RESULT:      -9.1      9.303     13.885
REMARK  9 active torsions:
REMARK  status: ('A' for Active; 'I' for Inactive)
REMARK    1  A    between atoms: C_4  and  C_5 
REMARK    2  A    between atoms: C_5  and  N_6 
REMARK    3  A    between atoms: C_12  and  N_13 
REMARK       I    between atoms: N_13  and  C_14 
REMARK    4  A    between atoms: N_13  and  C_27 
REMARK    5  A    between atoms: C_14  and  C_15 
REMARK    6  A    between atoms: C_15  and  C_16 
REMARK    7  A    between atoms: C_27  and  C_28 
REMARK    8  A    between atoms: C_28  and  C_29 
REMARK    9  A    between atoms: C_35  and  N_36 
ROOT
HETATM    1  N   UNL     1      27.686  49.531  40.281  1.00  0.00    -0.310 N 
HETATM    2  C   UNL     1      28.513  48.491  40.752  1.00  0.00     0.228 C 
HETATM    3  O   UNL     1      28.564  47.380  40.203  1.00  0.00    -0.273 OA
ENDROOT
BRANCH   1   4
HETATM    4  C   UNL     1      26.548  49.195  39.474  1.00  0.00     0.144 C 
HETATM    5  C   UNL     1      26.521  49.724  38.061  1.00  0.00     0.279 C 
HETATM    6  N   UNL     1      25.715  49.069  37.193  1.00  0.00    -0.273 N 
HETATM    7  O   UNL     1      27.177  50.696  37.693  1.00  0.00    -0.265 OA
HETATM    8  C   UNL     1      24.482  48.684  37.606  1.00  0.00     0.331 C 
HETATM    9  H   UNL     1      25.705  49.455  36.260  1.00  0.00     0.173 HD
HETATM   10  N   UNL     1      24.368  48.368  38.951  1.00  0.00    -0.284 N 
HETATM   11  O   UNL     1      23.557  48.684  36.797  1.00  0.00    -0.246 OA
HETATM   12  C   UNL     1      25.442  48.486  39.847  1.00  0.00     0.117 C 
BRANCH  10  13
HETATM   13  C   UNL     1      23.013  48.065  39.423  1.00  0.00     0.173 C 
BRANCH  13  14
HETATM   14  C   UNL     1      22.166  49.230  39.887  1.00  0.00    -0.040 A 
HETATM   15  C   UNL     1      22.496  50.571  39.655  1.00  0.00     0.009 A 
HETATM   16  C   UNL     1      21.676  51.597  40.134  1.00  0.00     0.001 A 
HETATM   17  C   UNL     1      20.519  51.297  40.850  1.00  0.00     0.000 A 
HETATM   18  C   UNL     1      20.179  49.970  41.093  1.00  0.00     0.001 A 
HETATM   19  C   UNL     1      20.996  48.945  40.614  1.00  0.00     0.009 A 
ENDBRANCH  13  14
ENDBRANCH  10  13
BRANCH  12  20
HETATM   20  N   UNL     1      25.375  47.850  41.081  1.00  0.00    -0.286 NA
HETATM   21  H   UNL     1      24.596  47.180  41.095  1.00  0.00     0.125 HD
HETATM   22  H   UNL     1      26.226  47.383  41.365  1.00  0.00     0.125 HD
ENDBRANCH  12  20
ENDBRANCH   1   4
BRANCH   1  23
HETATM   23  C   UNL     1      27.653  50.898  40.875  1.00  0.00     0.137 C 
BRANCH  23  24
HETATM   24  C   UNL     1      28.509  52.058  40.310  1.00  0.00     0.054 C 
BRANCH  24  25
HETATM   25  C   UNL     1      29.923  51.884  39.815  1.00  0.00    -0.082 C 
HETATM   26  C   UNL     1      30.882  52.933  40.356  1.00  0.00     0.034 C 
HETATM   27  C   UNL     1      32.357  52.635  40.096  1.00  0.00     0.005 C 
HETATM   28  C   UNL     1      32.566  52.123  38.678  1.00  0.00     0.004 C 
HETATM   29  C   UNL     1      31.751  50.852  38.435  1.00  0.00     0.027 C 
HETATM   30  C   UNL     1      30.343  50.939  38.956  1.00  0.00    -0.024 C 
ENDBRANCH  24  25
ENDBRANCH  23  24
ENDBRANCH   1  23
BRANCH   2  31
HETATM   31  C   UNL     1      29.353  48.712  42.002  1.00  0.00     0.144 C 
BRANCH  31  32
HETATM   32  C   UNL     1      30.823  48.741  41.713  1.00  0.00    -0.021 A 
HETATM   33  C   UNL     1      31.772  49.659  42.270  1.00  0.00    -0.001 A 
HETATM   34  C   UNL     1      33.002  49.407  41.663  1.00  0.00     0.042 A 
HETATM   35  C   UNL     1      31.693  50.696  43.222  1.00  0.00     0.014 A 
HETATM   36  C   UNL     1      34.154  50.151  41.950  1.00  0.00     0.030 A 
HETATM   37  N   UNL     1      32.817  48.354  40.798  1.00  0.00    -0.365 N 
HETATM   38  C   UNL     1      34.044  51.178  42.892  1.00  0.00     0.002 A 
HETATM   39  C   UNL     1      32.834  51.446  43.526  1.00  0.00     0.001 A 
HETATM   40  H   UNL     1      33.546  47.953  40.223  1.00  0.00     0.165 HD
HETATM   41  C   UNL     1      31.509  47.950  40.813  1.00  0.00     0.097 A 
ENDBRANCH  31  32
ENDBRANCH   2  31
TORSDOF 9
ENDMDL
MODEL 4
REMARK VINA RESULT:      -8.9      4.482     10.942
REMARK  9 active torsions:
REMARK  status: ('A' for Active; 'I' for Inactive)
REMARK    1  A    between atoms: C_4  and  C_5 
REMARK    2  A    between atoms: C_5  and  N_6 
REMARK    3  A    between atoms: C_12  and  N_13 
REMARK       I    between atoms: N_13  and  C_14 
REMARK    4  A    between atoms: N_13  and  C_27 
REMARK    5  A    between atoms: C_14  and  C_15 
REMARK    6  A    between atoms: C_15  and  C_16 
REMARK    7  A    between atoms: C_27  and  C_28 
REMARK    8  A    between atoms: C_28  and  C_29 
REMARK    9  A    between atoms: C_35  and  N_36 
ROOT
HETATM    1  N   UNL     1      26.738  42.808  51.499  1.00  0.00    -0.310 N 
HETATM    2  C   UNL     1      25.923  42.055  50.630  1.00  0.00     0.228 C 
HETATM    3  O   UNL     1      25.210  42.580  49.762  1.00  0.00    -0.273 OA
ENDROOT
BRANCH   1   4
HETATM    4  C   UNL     1      26.410  44.185  51.730  1.00  0.00     0.144 C 
HETATM    5  C   UNL     1      25.644  44.513  52.988  1.00  0.00     0.279 C 
HETATM    6  N   UNL     1      25.722  45.794  53.419  1.00  0.00    -0.273 N 
HETATM    7  O   UNL     1      24.973  43.687  53.603  1.00  0.00    -0.265 OA
HETATM    8  C   UNL     1      25.644  46.797  52.511  1.00  0.00     0.331 C 
HETATM    9  H   UNL     1      25.187  45.987  54.254  1.00  0.00     0.173 HD
HETATM   10  N   UNL     1      26.149  46.512  51.252  1.00  0.00    -0.284 N 
HETATM   11  O   UNL     1      25.103  47.852  52.836  1.00  0.00    -0.246 OA
HETATM   12  C   UNL     1      26.664  45.251  50.914  1.00  0.00     0.117 C 
BRANCH  10  13
HETATM   13  C   UNL     1      25.959  47.554  50.237  1.00  0.00     0.173 C 
BRANCH  13  14
HETATM   14  C   UNL     1      24.622  47.594  49.530  1.00  0.00    -0.040 A 
HETATM   15  C   UNL     1      23.831  46.462  49.299  1.00  0.00     0.009 A 
HETATM   16  C   UNL     1      22.615  46.572  48.617  1.00  0.00     0.001 A 
HETATM   17  C   UNL     1      22.175  47.812  48.158  1.00  0.00     0.000 A 
HETATM   18  C   UNL     1      22.951  48.947  48.376  1.00  0.00     0.001 A 
HETATM   19  C   UNL     1      24.165  48.838  49.057  1.00  0.00     0.009 A 
ENDBRANCH  13  14
ENDBRANCH  10  13
BRANCH  12  20
HETATM   20  N   UNL     1      27.450  45.117  49.776  1.00  0.00    -0.286 NA
HETATM   21  H   UNL     1      27.308  44.192  49.351  1.00  0.00     0.125 HD
HETATM   22  H   UNL     1      27.310  45.834  49.077  1.00  0.00     0.125 HD
ENDBRANCH  12  20
ENDBRANCH   1   4
BRANCH   1  23
HETATM   23  C   UNL     1      27.658  42.204  52.505  1.00  0.00     0.137 C 
BRANCH  23  24
HETATM   24  C   UNL     1      29.097  42.733  52.721  1.00  0.00     0.054 C 
BRANCH  24  25
HETATM   25  C   UNL     1      29.565  43.374  54.004  1.00  0.00    -0.082 C 
HETATM   26  C   UNL     1      28.830  44.663  54.333  1.00  0.00     0.034 C 
HETATM   27  C   UNL     1      29.083  45.193  55.743  1.00  0.00     0.005 C 
HETATM   28  C   UNL     1      30.556  45.083  56.108  1.00  0.00     0.004 C 
HETATM   29  C   UNL     1      31.028  43.631  56.029  1.00  0.00     0.027 C 
HETATM   30  C   UNL     1      30.548  42.915  54.796  1.00  0.00    -0.024 C 
ENDBRANCH  24  25
ENDBRANCH  23  24
ENDBRANCH   1  23
BRANCH   2  31
HETATM   31  C   UNL     1      25.878  40.539  50.774  1.00  0.00     0.144 C 
BRANCH  31  32
HETATM   32  C   UNL     1      26.507  39.830  49.613  1.00  0.00    -0.021 A 
HETATM   33  C   UNL     1      27.791  39.192  49.613  1.00  0.00    -0.001 A 
HETATM   34  C   UNL     1      28.035  38.748  48.313  1.00  0.00     0.042 A 
HETATM   35  C   UNL     1      28.777  38.971  50.595  1.00  0.00     0.014 A 
HETATM   36  C   UNL     1      29.224  38.107  47.945  1.00  0.00     0.030 A 
HETATM   37  N   UNL     1      26.929  39.070  47.562  1.00  0.00    -0.365 N 
HETATM   38  C   UNL     1      30.188  37.906  48.938  1.00  0.00     0.002 A 
HETATM   39  C   UNL     1      29.968  38.326  50.247  1.00  0.00     0.001 A 
HETATM   40  H   UNL     1      26.828  38.861  46.578  1.00  0.00     0.165 HD
HETATM   41  C   UNL     1      26.007  39.728  48.330  1.00  0.00     0.097 A 
ENDBRANCH  31  32
ENDBRANCH   2  31
TORSDOF 9
ENDMDL
MODEL 5
REMARK VINA RESULT:      -8.8      3.056      9.608
REMARK  9 active torsions:
REMARK  status: ('A' for Active; 'I' for Inactive)
REMARK    1  A    between atoms: C_4  and  C_5 
REMARK    2  A    between atoms: C_5  and  N_6 
REMARK    3  A    between atoms: C_12  and  N_13 
REMARK       I    between atoms: N_13  and  C_14 
REMARK    4  A    between atoms: N_13  and  C_27 
REMARK    5  A    between atoms: C_14  and  C_15 
REMARK    6  A    between atoms: C_15  and  C_16 
REMARK    7  A    between atoms: C_27  and  C_28 
REMARK    8  A    between atoms: C_28  and  C_29 
REMARK    9  A    between atoms: C_35  and  N_36 
ROOT
HETATM    1  N   UNL     1      25.407  45.144  51.050  1.00  0.00    -0.310 N 
HETATM    2  C   UNL     1      26.638  44.905  50.406  1.00  0.00     0.228 C 
HETATM    3  O   UNL     1      26.865  45.275  49.245  1.00  0.00    -0.273 OA
ENDROOT
BRANCH   1   4
HETATM    4  C   UNL     1      24.244  45.381  50.245  1.00  0.00     0.144 C 
HETATM    5  C   UNL     1      23.404  44.183  49.872  1.00  0.00     0.279 C 
HETATM    6  N   UNL     1      22.124  44.438  49.515  1.00  0.00    -0.273 N 
HETATM    7  O   UNL     1      23.835  43.032  49.875  1.00  0.00    -0.265 OA
HETATM    8  C   UNL     1      21.866  45.499  48.711  1.00  0.00     0.331 C 
HETATM    9  H   UNL     1      21.592  43.620  49.255  1.00  0.00     0.173 HD
HETATM   10  N   UNL     1      22.722  46.582  48.847  1.00  0.00    -0.284 N 
HETATM   11  O   UNL     1      20.945  45.421  47.901  1.00  0.00    -0.246 OA
HETATM   12  C   UNL     1      23.819  46.569  49.722  1.00  0.00     0.117 C 
BRANCH  10  13
HETATM   13  C   UNL     1      22.517  47.681  47.899  1.00  0.00     0.173 C 
BRANCH  13  14
HETATM   14  C   UNL     1      21.782  48.903  48.405  1.00  0.00    -0.040 A 
HETATM   15  C   UNL     1      22.157  50.217  48.101  1.00  0.00     0.009 A 
HETATM   16  C   UNL     1      21.442  51.299  48.625  1.00  0.00     0.001 A 
HETATM   17  C   UNL     1      20.347  51.082  49.458  1.00  0.00     0.000 A 
HETATM   18  C   UNL     1      19.963  49.782  49.773  1.00  0.00     0.001 A 
HETATM   19  C   UNL     1      20.675  48.701  49.251  1.00  0.00     0.009 A 
ENDBRANCH  13  14
ENDBRANCH  10  13
BRANCH  12  20
HETATM   20  N   UNL     1      24.431  47.769  50.067  1.00  0.00    -0.286 NA
HETATM   21  H   UNL     1      25.095  47.622  50.838  1.00  0.00     0.125 HD
HETATM   22  H   UNL     1      24.899  48.241  49.304  1.00  0.00     0.125 HD
ENDBRANCH  12  20
ENDBRANCH   1   4
BRANCH   1  23
HETATM   23  C   UNL     1      25.127  44.774  52.467  1.00  0.00     0.137 C 
BRANCH  23  24
HETATM   24  C   UNL     1      25.437  45.734  53.641  1.00  0.00     0.054 C 
BRANCH  24  25
HETATM   25  C   UNL     1      26.808  45.884  54.253  1.00  0.00    -0.082 C 
HETATM   26  C   UNL     1      27.417  44.563  54.694  1.00  0.00     0.034 C 
HETATM   27  C   UNL     1      28.896  44.642  55.067  1.00  0.00     0.005 C 
HETATM   28  C   UNL     1      29.182  45.885  55.896  1.00  0.00     0.004 C 
HETATM   29  C   UNL     1      28.794  47.150  55.129  1.00  0.00     0.027 C 
HETATM   30  C   UNL     1      27.458  47.045  54.446  1.00  0.00    -0.024 C 
ENDBRANCH  24  25
ENDBRANCH  23  24
ENDBRANCH   1  23
BRANCH   2  31
HETATM   31  C   UNL     1      27.727  44.131  51.138  1.00  0.00     0.144 C 
BRANCH  31  32
HETATM   32  C   UNL     1      27.436  42.664  51.220  1.00  0.00    -0.021 A 
HETATM   33  C   UNL     1      27.116  41.806  50.117  1.00  0.00    -0.001 A 
HETATM   34  C   UNL     1      26.818  40.548  50.640  1.00  0.00     0.042 A 
HETATM   35  C   UNL     1      27.033  41.992  48.722  1.00  0.00     0.014 A 
HETATM   36  C   UNL     1      26.426  39.470  49.836  1.00  0.00     0.030 A 
HETATM   37  N   UNL     1      26.985  40.627  52.002  1.00  0.00    -0.365 N 
HETATM   38  C   UNL     1      26.346  39.683  48.457  1.00  0.00     0.002 A 
HETATM   39  C   UNL     1      26.650  40.924  47.904  1.00  0.00     0.001 A 
HETATM   40  H   UNL     1      26.841  39.856  52.640  1.00  0.00     0.165 HD
HETATM   41  C   UNL     1      27.349  41.896  52.365  1.00  0.00     0.097 A 
ENDBRANCH  31  32
ENDBRANCH   2  31
TORSDOF 9
ENDMDL
MODEL 6
REMARK VINA RESULT:      -8.6      4.279     10.065
REMARK  9 active torsions:
REMARK  status: ('A' for Active; 'I' for Inactive)
REMARK    1  A    between atoms: C_4  and  C_5 
REMARK    2  A    between atoms: C_5  and  N_6 
REMARK    3  A    between atoms: C_12  and  N_13 
REMARK       I    between atoms: N_13  and  C_14 
REMARK    4  A    between atoms: N_13  and  C_27 
REMARK    5  A    between atoms: C_14  and  C_15 
REMARK    6  A    between atoms: C_15  and  C_16 
REMARK    7  A    between atoms: C_27  and  C_28 
REMARK    8  A    between atoms: C_28  and  C_29 
REMARK    9  A    between atoms: C_35  and  N_36 
ROOT
HETATM    1  N   UNL     1      26.769  44.328  51.128  1.00  0.00    -0.310 N 
HETATM    2  C   UNL     1      27.213  43.935  52.408  1.00  0.00     0.228 C 
HETATM    3  O   UNL     1      27.022  42.796  52.858  1.00  0.00    -0.273 OA
ENDROOT
BRANCH   1   4
HETATM    4  C   UNL     1      25.692  43.603  50.520  1.00  0.00     0.144 C 
HETATM    5  C   UNL     1      26.051  42.580  49.470  1.00  0.00     0.279 C 
HETATM    6  N   UNL     1      25.128  41.620  49.229  1.00  0.00    -0.273 N 
HETATM    7  O   UNL     1      27.111  42.598  48.847  1.00  0.00    -0.265 OA
HETATM    8  C   UNL     1      23.820  41.971  49.158  1.00  0.00     0.331 C 
HETATM    9  H   UNL     1      25.389  40.960  48.511  1.00  0.00     0.173 HD
HETATM   10  N   UNL     1      23.439  43.044  49.950  1.00  0.00    -0.284 N 
HETATM   11  O   UNL     1      23.083  41.365  48.384  1.00  0.00    -0.246 OA
HETATM   12  C   UNL     1      24.353  43.760  50.739  1.00  0.00     0.117 C 
BRANCH  10  13
HETATM   13  C   UNL     1      22.055  43.499  49.786  1.00  0.00     0.173 C 
BRANCH  13  14
HETATM   14  C   UNL     1      21.794  44.552  48.731  1.00  0.00    -0.040 A 
HETATM   15  C   UNL     1      22.714  44.899  47.735  1.00  0.00     0.009 A 
HETATM   16  C   UNL     1      22.412  45.900  46.807  1.00  0.00     0.001 A 
HETATM   17  C   UNL     1      21.190  46.566  46.863  1.00  0.00     0.000 A 
HETATM   18  C   UNL     1      20.265  46.236  47.849  1.00  0.00     0.001 A 
HETATM   19  C   UNL     1      20.565  45.237  48.776  1.00  0.00     0.009 A 
ENDBRANCH  13  14
ENDBRANCH  10  13
BRANCH  12  20
HETATM   20  N   UNL     1      23.879  44.589  51.750  1.00  0.00    -0.286 NA
HETATM   21  H   UNL     1      23.014  45.056  51.452  1.00  0.00     0.125 HD
HETATM   22  H   UNL     1      23.726  44.129  52.637  1.00  0.00     0.125 HD
ENDBRANCH  12  20
ENDBRANCH   1   4
BRANCH   1  23
HETATM   23  C   UNL     1      27.044  45.666  50.531  1.00  0.00     0.137 C 
BRANCH  23  24
HETATM   24  C   UNL     1      26.213  46.918  50.907  1.00  0.00     0.054 C 
BRANCH  24  25
HETATM   25  C   UNL     1      25.605  47.850  49.889  1.00  0.00    -0.082 C 
HETATM   26  C   UNL     1      26.605  48.830  49.298  1.00  0.00     0.034 C 
HETATM   27  C   UNL     1      26.094  49.600  48.082  1.00  0.00     0.005 C 
HETATM   28  C   UNL     1      24.662  50.067  48.299  1.00  0.00     0.004 C 
HETATM   29  C   UNL     1      23.737  48.878  48.560  1.00  0.00     0.027 C 
HETATM   30  C   UNL     1      24.310  47.879  49.528  1.00  0.00    -0.024 C 
ENDBRANCH  24  25
ENDBRANCH  23  24
ENDBRANCH   1  23
BRANCH   2  31
HETATM   31  C   UNL     1      27.921  44.948  53.297  1.00  0.00     0.144 C 
BRANCH  31  32
HETATM   32  C   UNL     1      28.999  44.329  54.133  1.00  0.00    -0.021 A 
HETATM   33  C   UNL     1      29.404  44.761  55.438  1.00  0.00    -0.001 A 
HETATM   34  C   UNL     1      30.499  43.983  55.814  1.00  0.00     0.042 A 
HETATM   35  C   UNL     1      28.952  45.758  56.327  1.00  0.00     0.014 A 
HETATM   36  C   UNL     1      31.174  44.164  57.028  1.00  0.00     0.030 A 
HETATM   37  N   UNL     1      30.728  43.089  54.795  1.00  0.00    -0.365 N 
HETATM   38  C   UNL     1      30.708  45.164  57.887  1.00  0.00     0.002 A 
HETATM   39  C   UNL     1      29.609  45.948  57.546  1.00  0.00     0.001 A 
HETATM   40  H   UNL     1      31.463  42.395  54.799  1.00  0.00     0.165 HD
HETATM   41  C   UNL     1      29.838  43.292  53.775  1.00  0.00     0.097 A 
ENDBRANCH  31  32
ENDBRANCH   2  31
TORSDOF 9
ENDMDL
MODEL 7
REMARK VINA RESULT:      -8.6      3.110     10.164
REMARK  9 active torsions:
REMARK  status: ('A' for Active; 'I' for Inactive)
REMARK    1  A    between atoms: C_4  and  C_5 
REMARK    2  A    between atoms: C_5  and  N_6 
REMARK    3  A    between atoms: C_12  and  N_13 
REMARK       I    between atoms: N_13  and  C_14 
REMARK    4  A    between atoms: N_13  and  C_27 
REMARK    5  A    between atoms: C_14  and  C_15 
REMARK    6  A    between atoms: C_15  and  C_16 
REMARK    7  A    between atoms: C_27  and  C_28 
REMARK    8  A    between atoms: C_28  and  C_29 
REMARK    9  A    between atoms: C_35  and  N_36 
ROOT
HETATM    1  N   UNL     1      25.322  45.084  50.807  1.00  0.00    -0.310 N 
HETATM    2  C   UNL     1      26.556  44.801  50.186  1.00  0.00     0.228 C 
HETATM    3  O   UNL     1      26.951  45.409  49.181  1.00  0.00    -0.273 OA
ENDROOT
BRANCH   1   4
HETATM    4  C   UNL     1      24.296  45.726  50.038  1.00  0.00     0.144 C 
HETATM    5  C   UNL     1      23.327  44.837  49.296  1.00  0.00     0.279 C 
HETATM    6  N   UNL     1      22.143  45.396  48.954  1.00  0.00    -0.273 N 
HETATM    7  O   UNL     1      23.577  43.670  48.999  1.00  0.00    -0.265 OA
HETATM    8  C   UNL     1      22.132  46.661  48.468  1.00  0.00     0.331 C 
HETATM    9  H   UNL     1      21.523  44.782  48.445  1.00  0.00     0.173 HD
HETATM   10  N   UNL     1      23.123  47.503  48.951  1.00  0.00    -0.284 N 
HETATM   11  O   UNL     1      21.297  46.965  47.619  1.00  0.00    -0.246 OA
HETATM   12  C   UNL     1      24.111  47.066  49.847  1.00  0.00     0.117 C 
BRANCH  10  13
HETATM   13  C   UNL     1      23.184  48.834  48.340  1.00  0.00     0.173 C 
BRANCH  13  14
HETATM   14  C   UNL     1      22.080  49.807  48.693  1.00  0.00    -0.040 A 
HETATM   15  C   UNL     1      21.816  50.242  49.998  1.00  0.00     0.009 A 
HETATM   16  C   UNL     1      20.763  51.127  50.252  1.00  0.00     0.001 A 
HETATM   17  C   UNL     1      19.962  51.586  49.208  1.00  0.00     0.000 A 
HETATM   18  C   UNL     1      20.208  51.160  47.907  1.00  0.00     0.001 A 
HETATM   19  C   UNL     1      21.260  50.278  47.652  1.00  0.00     0.009 A 
ENDBRANCH  13  14
ENDBRANCH  10  13
BRANCH  12  20
HETATM   20  N   UNL     1      24.859  48.004  50.549  1.00  0.00    -0.286 NA
HETATM   21  H   UNL     1      25.856  47.755  50.526  1.00  0.00     0.125 HD
HETATM   22  H   UNL     1      24.743  48.959  50.236  1.00  0.00     0.125 HD
ENDBRANCH  12  20
ENDBRANCH   1   4
BRANCH   1  23
HETATM   23  C   UNL     1      24.850  44.419  52.055  1.00  0.00     0.137 C 
BRANCH  23  24
HETATM   24  C   UNL     1      25.395  44.812  53.450  1.00  0.00     0.054 C 
BRANCH  24  25
HETATM   25  C   UNL     1      26.746  44.382  53.966  1.00  0.00    -0.082 C 
HETATM   26  C   UNL     1      27.627  45.547  54.384  1.00  0.00     0.034 C 
HETATM   27  C   UNL     1      28.883  45.145  55.155  1.00  0.00     0.005 C 
HETATM   28  C   UNL     1      29.541  43.927  54.524  1.00  0.00     0.004 C 
HETATM   29  C   UNL     1      28.575  42.743  54.494  1.00  0.00     0.027 C 
HETATM   30  C   UNL     1      27.189  43.115  54.040  1.00  0.00    -0.024 C 
ENDBRANCH  24  25
ENDBRANCH  23  24
ENDBRANCH   1  23
BRANCH   2  31
HETATM   31  C   UNL     1      27.429  43.681  50.736  1.00  0.00     0.144 C 
BRANCH  31  32
HETATM   32  C   UNL     1      27.279  42.402  49.971  1.00  0.00    -0.021 A 
HETATM   33  C   UNL     1      27.893  41.149  50.298  1.00  0.00    -0.001 A 
HETATM   34  C   UNL     1      27.577  40.251  49.279  1.00  0.00     0.042 A 
HETATM   35  C   UNL     1      28.707  40.702  51.359  1.00  0.00     0.014 A 
HETATM   36  C   UNL     1      28.048  38.932  49.261  1.00  0.00     0.030 A 
HETATM   37  N   UNL     1      26.773  40.920  48.386  1.00  0.00    -0.365 N 
HETATM   38  C   UNL     1      28.858  38.517  50.322  1.00  0.00     0.002 A 
HETATM   39  C   UNL     1      29.180  39.386  51.361  1.00  0.00     0.001 A 
HETATM   40  H   UNL     1      26.388  40.509  47.546  1.00  0.00     0.165 HD
HETATM   41  C   UNL     1      26.593  42.216  48.787  1.00  0.00     0.097 A 
ENDBRANCH  31  32
ENDBRANCH   2  31
TORSDOF 9
ENDMDL
MODEL 8
REMARK VINA RESULT:      -8.6      5.462     10.230
REMARK  9 active torsions:
REMARK  status: ('A' for Active; 'I' for Inactive)
REMARK    1  A    between atoms: C_4  and  C_5 
REMARK    2  A    between atoms: C_5  and  N_6 
REMARK    3  A    between atoms: C_12  and  N_13 
REMARK       I    between atoms: N_13  and  C_14 
REMARK    4  A    between atoms: N_13  and  C_27 
REMARK    5  A    between atoms: C_14  and  C_15 
REMARK    6  A    between atoms: C_15  and  C_16 
REMARK    7  A    between atoms: C_27  and  C_28 
REMARK    8  A    between atoms: C_28  and  C_29 
REMARK    9  A    between atoms: C_35  and  N_36 
ROOT
HETATM    1  N   UNL     1      26.686  43.893  50.566  1.00  0.00    -0.310 N 
HETATM    2  C   UNL     1      27.068  43.499  51.865  1.00  0.00     0.228 C 
HETATM    3  O   UNL     1      26.934  42.337  52.275  1.00  0.00    -0.273 OA
ENDROOT
BRANCH   1   4
HETATM    4  C   UNL     1      25.713  43.106  49.866  1.00  0.00     0.144 C 
HETATM    5  C   UNL     1      24.292  43.151  50.373  1.00  0.00     0.279 C 
HETATM    6  N   UNL     1      23.330  42.789  49.491  1.00  0.00    -0.273 N 
HETATM    7  O   UNL     1      23.996  43.484  51.518  1.00  0.00    -0.265 OA
HETATM    8  C   UNL     1      23.543  41.714  48.694  1.00  0.00     0.331 C 
HETATM    9  H   UNL     1      22.392  42.814  49.863  1.00  0.00     0.173 HD
HETATM   10  N   UNL     1      24.862  41.477  48.338  1.00  0.00    -0.284 N 
HETATM   11  O   UNL     1      22.588  41.006  48.382  1.00  0.00    -0.246 OA
HETATM   12  C   UNL     1      25.923  42.266  48.810  1.00  0.00     0.117 C 
BRANCH  10  13
HETATM   13  C   UNL     1      25.107  40.250  47.574  1.00  0.00     0.173 C 
BRANCH  13  14
HETATM   14  C   UNL     1      26.242  39.362  48.037  1.00  0.00    -0.040 A 
HETATM   15  C   UNL     1      26.417  38.955  49.365  1.00  0.00     0.009 A 
HETATM   16  C   UNL     1      27.504  38.152  49.724  1.00  0.00     0.001 A 
HETATM   17  C   UNL     1      28.428  37.748  48.763  1.00  0.00     0.000 A 
HETATM   18  C   UNL     1      28.271  38.147  47.439  1.00  0.00     0.001 A 
HETATM   19  C   UNL     1      27.186  38.948  47.080  1.00  0.00     0.009 A 
ENDBRANCH  13  14
ENDBRANCH  10  13
BRANCH  12  20
HETATM   20  N   UNL     1      27.157  42.203  48.172  1.00  0.00    -0.286 NA
HETATM   21  H   UNL     1      27.238  41.329  47.638  1.00  0.00     0.125 HD
HETATM   22  H   UNL     1      27.362  42.988  47.568  1.00  0.00     0.125 HD
ENDBRANCH  12  20
ENDBRANCH   1   4
BRANCH   1  23
HETATM   23  C   UNL     1      26.897  45.265  50.020  1.00  0.00     0.137 C 
BRANCH  23  24
HETATM   24  C   UNL     1      25.999  46.457  50.432  1.00  0.00     0.054 C 
BRANCH  24  25
HETATM   25  C   UNL     1      26.001  47.785  49.716  1.00  0.00    -0.082 C 
HETATM   26  C   UNL     1      24.617  48.228  49.268  1.00  0.00     0.034 C 
HETATM   27  C   UNL     1      24.542  49.675  48.786  1.00  0.00     0.005 C 
HETATM   28  C   UNL     1      25.733  50.016  47.904  1.00  0.00     0.004 C 
HETATM   29  C   UNL     1      27.045  49.812  48.662  1.00  0.00     0.027 C 
HETATM   30  C   UNL     1      27.088  48.528  49.445  1.00  0.00    -0.024 C 
ENDBRANCH  24  25
ENDBRANCH  23  24
ENDBRANCH   1  23
BRANCH   2  31
HETATM   31  C   UNL     1      27.631  44.538  52.826  1.00  0.00     0.144 C 
BRANCH  31  32
HETATM   32  C   UNL     1      28.783  44.015  53.630  1.00  0.00    -0.021 A 
HETATM   33  C   UNL     1      29.221  44.520  54.898  1.00  0.00    -0.001 A 
HETATM   34  C   UNL     1      30.378  43.824  55.247  1.00  0.00     0.042 A 
HETATM   35  C   UNL     1      28.750  45.521  55.772  1.00  0.00     0.014 A 
HETATM   36  C   UNL     1      31.095  44.090  56.420  1.00  0.00     0.030 A 
HETATM   37  N   UNL     1      30.614  42.907  54.250  1.00  0.00    -0.365 N 
HETATM   38  C   UNL     1      30.609  45.092  57.265  1.00  0.00     0.002 A 
HETATM   39  C   UNL     1      29.450  45.796  56.951  1.00  0.00     0.001 A 
HETATM   40  H   UNL     1      31.390  42.259  54.242  1.00  0.00     0.165 HD
HETATM   41  C   UNL     1      29.667  43.018  53.267  1.00  0.00     0.097 A 
ENDBRANCH  31  32
ENDBRANCH   2  31
TORSDOF 9
ENDMDL
MODEL 9
REMARK VINA RESULT:      -8.5      2.430      8.441
REMARK  9 active torsions:
REMARK  status: ('A' for Active; 'I' for Inactive)
REMARK    1  A    between atoms: C_4  and  C_5 
REMARK    2  A    between atoms: C_5  and  N_6 
REMARK    3  A    between atoms: C_12  and  N_13 
REMARK       I    between atoms: N_13  and  C_14 
REMARK    4  A    between atoms: N_13  and  C_27 
REMARK    5  A    between atoms: C_14  and  C_15 
REMARK    6  A    between atoms: C_15  and  C_16 
REMARK    7  A    between atoms: C_27  and  C_28 
REMARK    8  A    between atoms: C_28  and  C_29 
REMARK    9  A    between atoms: C_35  and  N_36 
ROOT
HETATM    1  N   UNL     1      22.598  46.275  48.396  1.00  0.00    -0.310 N 
HETATM    2  C   UNL     1      23.357  45.431  49.233  1.00  0.00     0.228 C 
HETATM    3  O   UNL     1      23.340  44.196  49.125  1.00  0.00    -0.273 OA
ENDROOT
BRANCH   1   4
HETATM    4  C   UNL     1      21.445  45.735  47.736  1.00  0.00     0.144 C 
HETATM    5  C   UNL     1      21.624  45.247  46.319  1.00  0.00     0.279 C 
HETATM    6  N   UNL     1      20.701  44.365  45.869  1.00  0.00    -0.273 N 
HETATM    7  O   UNL     1      22.541  45.619  45.589  1.00  0.00    -0.265 OA
HETATM    8  C   UNL     1      19.395  44.575  46.164  1.00  0.00     0.331 C 
HETATM    9  H   UNL     1      20.837  44.069  44.914  1.00  0.00     0.173 HD
HETATM   10  N   UNL     1      19.143  45.207  47.373  1.00  0.00    -0.284 N 
HETATM   11  O   UNL     1      18.540  44.245  45.346  1.00  0.00    -0.246 OA
HETATM   12  C   UNL     1      20.171  45.651  48.219  1.00  0.00     0.117 C 
BRANCH  10  13
HETATM   13  C   UNL     1      17.740  45.540  47.639  1.00  0.00     0.173 C 
BRANCH  13  14
HETATM   14  C   UNL     1      17.333  46.989  47.488  1.00  0.00    -0.040 A 
HETATM   15  C   UNL     1      17.864  47.848  46.518  1.00  0.00     0.009 A 
HETATM   16  C   UNL     1      17.455  49.184  46.453  1.00  0.00     0.001 A 
HETATM   17  C   UNL     1      16.515  49.677  47.355  1.00  0.00     0.000 A 
HETATM   18  C   UNL     1      15.980  48.838  48.328  1.00  0.00     0.001 A 
HETATM   19  C   UNL     1      16.386  47.504  48.393  1.00  0.00     0.009 A 
ENDBRANCH  13  14
ENDBRANCH  10  13
BRANCH  12  20
HETATM   20  N   UNL     1      19.879  45.964  49.542  1.00  0.00    -0.286 NA
HETATM   21  H   UNL     1      18.920  46.327  49.619  1.00  0.00     0.125 HD
HETATM   22  H   UNL     1      20.004  45.202  50.195  1.00  0.00     0.125 HD
ENDBRANCH  12  20
ENDBRANCH   1   4
BRANCH   1  23
HETATM   23  C   UNL     1      22.650  47.764  48.455  1.00  0.00     0.137 C 
BRANCH  23  24
HETATM   24  C   UNL     1      21.611  48.649  47.724  1.00  0.00     0.054 C 
BRANCH  24  25
HETATM   25  C   UNL     1      20.628  49.542  48.440  1.00  0.00    -0.082 C 
HETATM   26  C   UNL     1      20.596  50.960  47.893  1.00  0.00     0.034 C 
HETATM   27  C   UNL     1      19.435  51.810  48.407  1.00  0.00     0.005 C 
HETATM   28  C   UNL     1      19.230  51.603  49.900  1.00  0.00     0.004 C 
HETATM   29  C   UNL     1      18.946  50.132  50.210  1.00  0.00     0.027 C 
HETATM   30  C   UNL     1      19.859  49.183  49.482  1.00  0.00    -0.024 C 
ENDBRANCH  24  25
ENDBRANCH  23  24
ENDBRANCH   1  23
BRANCH   2  31
HETATM   31  C   UNL     1      24.204  46.042  50.341  1.00  0.00     0.144 C 
BRANCH  31  32
HETATM   32  C   UNL     1      25.450  45.255  50.616  1.00  0.00    -0.021 A 
HETATM   33  C   UNL     1      25.839  44.713  51.884  1.00  0.00    -0.001 A 
HETATM   34  C   UNL     1      27.104  44.147  51.726  1.00  0.00     0.042 A 
HETATM   35  C   UNL     1      25.239  44.671  53.160  1.00  0.00     0.014 A 
HETATM   36  C   UNL     1      27.804  43.554  52.784  1.00  0.00     0.030 A 
HETATM   37  N   UNL     1      27.454  44.306  50.406  1.00  0.00    -0.365 N 
HETATM   38  C   UNL     1      27.188  43.531  54.038  1.00  0.00     0.002 A 
HETATM   39  C   UNL     1      25.921  44.076  54.226  1.00  0.00     0.001 A 
HETATM   40  H   UNL     1      28.324  43.984  50.004  1.00  0.00     0.165 HD
HETATM   41  C   UNL     1      26.472  44.978  49.730  1.00  0.00     0.097 A 
ENDBRANCH  31  32
ENDBRANCH   2  31
TORSDOF 9
ENDMDL
MODEL 10
REMARK VINA RESULT:      -8.4      1.549      3.221
REMARK  9 active torsions:
REMARK  status: ('A' for Active; 'I' for Inactive)
REMARK    1  A    between atoms: C_4  and  C_5 
REMARK    2  A    between atoms: C_5  and  N_6 
REMARK    3  A    between atoms: C_12  and  N_13 
REMARK       I    between atoms: N_13  and  C_14 
REMARK    4  A    between atoms: N_13  and  C_27 
REMARK    5  A    between atoms: C_14  and  C_15 
REMARK    6  A    between atoms: C_15  and  C_16 
REMARK    7  A    between atoms: C_27  and  C_28 
REMARK    8  A    between atoms: C_28  and  C_29 
REMARK    9  A    between atoms: C_35  and  N_36 
ROOT
HETATM    1  N   UNL     1      22.266  49.117  48.875  1.00  0.00    -0.310 N 
HETATM    2  C   UNL     1      21.689  50.063  49.746  1.00  0.00     0.228 C 
HETATM    3  O   UNL     1      22.355  50.945  50.309  1.00  0.00    -0.273 OA
ENDROOT
BRANCH   1   4
HETATM    4  C   UNL     1      23.670  48.845  48.987  1.00  0.00     0.144 C 
HETATM    5  C   UNL     1      24.613  49.744  48.226  1.00  0.00     0.279 C 
HETATM    6  N   UNL     1      25.893  49.776  48.665  1.00  0.00    -0.273 N 
HETATM    7  O   UNL     1      24.268  50.415  47.256  1.00  0.00    -0.265 OA
HETATM    8  C   UNL     1      26.492  48.615  49.025  1.00  0.00     0.331 C 
HETATM    9  H   UNL     1      26.504  50.374  48.127  1.00  0.00     0.173 HD
HETATM   10  N   UNL     1      25.656  47.643  49.555  1.00  0.00    -0.284 N 
HETATM   11  O   UNL     1      27.696  48.479  48.822  1.00  0.00    -0.246 OA
HETATM   12  C   UNL     1      24.269  47.823  49.668  1.00  0.00     0.117 C 
BRANCH  10  13
HETATM   13  C   UNL     1      26.281  46.347  49.834  1.00  0.00     0.173 C 
BRANCH  13  14
HETATM   14  C   UNL     1      26.518  45.993  51.287  1.00  0.00    -0.040 A 
HETATM   15  C   UNL     1      26.397  46.909  52.339  1.00  0.00     0.009 A 
HETATM   16  C   UNL     1      26.654  46.514  53.656  1.00  0.00     0.001 A 
HETATM   17  C   UNL     1      27.033  45.204  53.937  1.00  0.00     0.000 A 
HETATM   18  C   UNL     1      27.161  44.282  52.903  1.00  0.00     0.001 A 
HETATM   19  C   UNL     1      26.905  44.674  51.588  1.00  0.00     0.009 A 
ENDBRANCH  13  14
ENDBRANCH  10  13
BRANCH  12  20
HETATM   20  N   UNL     1      23.536  46.981  50.496  1.00  0.00    -0.286 NA
HETATM   21  H   UNL     1      22.734  46.589  49.987  1.00  0.00     0.125 HD
HETATM   22  H   UNL     1      24.069  46.230  50.915  1.00  0.00     0.125 HD
ENDBRANCH  12  20
ENDBRANCH   1   4
BRANCH   1  23
HETATM   23  C   UNL     1      21.483  48.090  48.130  1.00  0.00     0.137 C 
BRANCH  23  24
HETATM   24  C   UNL     1      20.681  48.438  46.852  1.00  0.00     0.054 C 
BRANCH  24  25
HETATM   25  C   UNL     1      19.339  47.832  46.521  1.00  0.00    -0.082 C 
HETATM   26  C   UNL     1      19.002  46.619  47.372  1.00  0.00     0.034 C 
HETATM   27  C   UNL     1      17.554  46.147  47.254  1.00  0.00     0.005 C 
HETATM   28  C   UNL     1      17.094  46.167  45.804  1.00  0.00     0.004 C 
HETATM   29  C   UNL     1      17.207  47.574  45.218  1.00  0.00     0.027 C 
HETATM   30  C   UNL     1      18.503  48.259  45.559  1.00  0.00    -0.024 C 
ENDBRANCH  24  25
ENDBRANCH  23  24
ENDBRANCH   1  23
BRANCH   2  31
HETATM   31  C   UNL     1      20.198  49.990  50.047  1.00  0.00     0.144 C 
BRANCH  31  32
HETATM   32  C   UNL     1      19.386  50.891  49.168  1.00  0.00    -0.021 A 
HETATM   33  C   UNL     1      18.081  50.606  48.646  1.00  0.00    -0.001 A 
HETATM   34  C   UNL     1      17.732  51.656  47.798  1.00  0.00     0.042 A 
HETATM   35  C   UNL     1      17.174  49.538  48.802  1.00  0.00     0.014 A 
HETATM   36  C   UNL     1      16.526  51.685  47.087  1.00  0.00     0.030 A 
HETATM   37  N   UNL     1      18.766  52.562  47.831  1.00  0.00    -0.365 N 
HETATM   38  C   UNL     1      15.648  50.610  47.256  1.00  0.00     0.002 A 
HETATM   39  C   UNL     1      15.961  49.553  48.105  1.00  0.00     0.001 A 
HETATM   40  H   UNL     1      18.782  53.429  47.310  1.00  0.00     0.165 HD
HETATM   41  C   UNL     1      19.770  52.110  48.644  1.00  0.00     0.097 A 
ENDBRANCH  31  32
ENDBRANCH   2  31
TORSDOF 9
ENDMDL
