MODEL 1
REMARK VINA RESULT:      -7.7      0.000      0.000
REMARK  6 active torsions:
REMARK  status: ('A' for Active; 'I' for Inactive)
REMARK    1  A    between atoms: C_3  and  C_4 
REMARK    2  A    between atoms: C_4  and  N_5 
REMARK    3  A    between atoms: C_4  and  C_19 
REMARK    4  A    between atoms: N_9  and  C_10 
REMARK    5  A    between atoms: C_25  and  N_26 
REMARK       I    between atoms: N_26  and  C_27 
REMARK    6  A    between atoms: C_27  and  C_28 
ROOT
HETATM    1  C   UNL     1      27.857  46.807  40.439  1.00  0.00     0.259 C 
ENDROOT
BRANCH   1   2
HETATM    2  C   UNL     1      26.883  47.798  39.818  1.00  0.00     0.018 A 
HETATM    3  C   UNL     1      25.436  47.728  40.070  1.00  0.00    -0.038 A 
HETATM    4  C   UNL     1      24.751  46.655  40.870  1.00  0.00     0.050 C 
HETATM    5  C   UNL     1      24.753  48.778  39.474  1.00  0.00    -0.013 A 
HETATM    6  S   UNL     1      25.788  49.790  38.590  1.00  0.00    -0.076 SA
HETATM    7  C   UNL     1      23.285  49.077  39.498  1.00  0.00     0.057 C 
HETATM    8  C   UNL     1      27.167  48.902  39.021  1.00  0.00     0.086 A 
BRANCH   8   9
HETATM    9  N   UNL     1      28.362  49.247  38.426  1.00  0.00    -0.315 N 
HETATM   10  C   UNL     1      29.012  50.470  38.389  1.00  0.00     0.280 C 
HETATM   11  O   UNL     1      29.919  50.567  37.559  1.00  0.00    -0.265 OA
HETATM   12  H   UNL     1      28.754  48.601  37.754  1.00  0.00     0.170 HD
BRANCH  10  13
HETATM   13  C   UNL     1      28.765  51.489  39.386  1.00  0.00     0.142 A 
HETATM   14  O   UNL     1      28.324  51.139  40.640  1.00  0.00    -0.317 OA
HETATM   15  C   UNL     1      28.165  52.294  41.341  1.00  0.00     0.143 A 
HETATM   16  C   UNL     1      28.574  53.372  40.594  1.00  0.00     0.027 A 
HETATM   17  C   UNL     1      28.984  52.853  39.344  1.00  0.00     0.045 A 
ENDBRANCH  10  13
ENDBRANCH   8   9
ENDBRANCH   1   2
BRANCH   1  18
HETATM   18  N   UNL     1      29.232  47.325  40.905  1.00  0.00    -0.056 N 
HETATM   19  H   UNL     1      29.561  46.589  41.540  1.00  0.00     0.281 HD
HETATM   20  C   UNL     1      30.323  47.458  39.854  1.00  0.00     0.256 C 
HETATM   21  C   UNL     1      31.684  47.808  40.513  1.00  0.00     0.152 C 
HETATM   22  N   UNL     1      31.574  49.010  41.374  1.00  0.00    -0.364 N 
HETATM   23  C   UNL     1      30.495  48.924  42.392  1.00  0.00     0.152 C 
HETATM   24  C   UNL     1      29.119  48.587  41.760  1.00  0.00     0.256 C 
BRANCH  22  25
HETATM   25  C   UNL     1      31.934  50.241  40.846  1.00  0.00     0.102 A 
HETATM   26  N   UNL     1      32.488  50.277  39.619  1.00  0.00    -0.352 N 
HETATM   27  H   UNL     1      32.670  49.390  39.156  1.00  0.00     0.166 HD
HETATM   28  C   UNL     1      32.892  51.402  39.006  1.00  0.00     0.089 A 
HETATM   29  C   UNL     1      32.766  52.624  39.642  1.00  0.00     0.017 A 
HETATM   30  C   UNL     1      32.236  52.653  40.922  1.00  0.00     0.005 A 
HETATM   31  C   UNL     1      31.827  51.464  41.527  1.00  0.00     0.048 A 
ENDBRANCH  22  25
ENDBRANCH   1  18
BRANCH   1  32
HETATM   32  C   UNL     1      27.902  45.515  39.646  1.00  0.00    -0.005 A 
HETATM   33  C   UNL     1      28.025  44.318  40.361  1.00  0.00     0.125 A 
HETATM   34  N   UNL     1      28.145  43.096  39.809  1.00  0.00    -0.273 NA
HETATM   35  C   UNL     1      28.075  43.016  38.466  1.00  0.00     0.116 A 
HETATM   36  C   UNL     1      27.915  44.122  37.655  1.00  0.00     0.020 A 
HETATM   37  C   UNL     1      27.829  45.383  38.252  1.00  0.00     0.012 A 
ENDBRANCH   1  32
TORSDOF 6
ENDMDL
MODEL 2
REMARK VINA RESULT:      -7.6     10.805     12.846
REMARK  6 active torsions:
REMARK  status: ('A' for Active; 'I' for Inactive)
REMARK    1  A    between atoms: C_3  and  C_4 
REMARK    2  A    between atoms: C_4  and  N_5 
REMARK    3  A    between atoms: C_4  and  C_19 
REMARK    4  A    between atoms: N_9  and  C_10 
REMARK    5  A    between atoms: C_25  and  N_26 
REMARK       I    between atoms: N_26  and  C_27 
REMARK    6  A    between atoms: C_27  and  C_28 
ROOT
HETATM    1  C   UNL     1      22.635  46.561  48.344  1.00  0.00     0.259 C 
ENDROOT
BRANCH   1   2
HETATM    2  C   UNL     1      21.309  45.970  47.886  1.00  0.00     0.018 A 
HETATM    3  C   UNL     1      21.196  45.175  46.654  1.00  0.00    -0.038 A 
HETATM    4  C   UNL     1      22.316  44.929  45.681  1.00  0.00     0.050 C 
HETATM    5  C   UNL     1      19.918  44.667  46.479  1.00  0.00    -0.013 A 
HETATM    6  S   UNL     1      18.861  45.165  47.709  1.00  0.00    -0.076 SA
HETATM    7  C   UNL     1      19.394  43.806  45.371  1.00  0.00     0.057 C 
HETATM    8  C   UNL     1      20.077  46.012  48.531  1.00  0.00     0.086 A 
BRANCH   8   9
HETATM    9  N   UNL     1      19.705  46.768  49.622  1.00  0.00    -0.315 N 
HETATM   10  C   UNL     1      18.926  47.912  49.684  1.00  0.00     0.280 C 
HETATM   11  O   UNL     1      18.981  48.538  50.745  1.00  0.00    -0.265 OA
HETATM   12  H   UNL     1      20.203  46.615  50.489  1.00  0.00     0.170 HD
BRANCH  10  13
HETATM   13  C   UNL     1      17.972  48.233  48.644  1.00  0.00     0.142 A 
HETATM   14  O   UNL     1      16.665  47.823  48.751  1.00  0.00    -0.317 OA
HETATM   15  C   UNL     1      16.023  48.250  47.631  1.00  0.00     0.143 A 
HETATM   16  C   UNL     1      16.867  48.998  46.845  1.00  0.00     0.027 A 
HETATM   17  C   UNL     1      18.115  49.009  47.509  1.00  0.00     0.045 A 
ENDBRANCH  10  13
ENDBRANCH   8   9
ENDBRANCH   1   2
BRANCH   1  18
HETATM   18  N   UNL     1      23.386  45.868  49.498  1.00  0.00    -0.056 N 
HETATM   19  H   UNL     1      23.093  46.400  50.326  1.00  0.00     0.281 HD
HETATM   20  C   UNL     1      23.021  44.425  49.805  1.00  0.00     0.256 C 
HETATM   21  C   UNL     1      23.725  43.941  51.101  1.00  0.00     0.152 C 
HETATM   22  N   UNL     1      25.191  44.154  51.031  1.00  0.00    -0.364 N 
HETATM   23  C   UNL     1      25.581  45.549  50.701  1.00  0.00     0.152 C 
HETATM   24  C   UNL     1      24.901  46.057  49.403  1.00  0.00     0.256 C 
BRANCH  22  25
HETATM   25  C   UNL     1      25.999  43.097  50.639  1.00  0.00     0.102 A 
HETATM   26  N   UNL     1      26.516  42.296  51.591  1.00  0.00    -0.352 N 
HETATM   27  H   UNL     1      26.334  42.537  52.562  1.00  0.00     0.166 HD
HETATM   28  C   UNL     1      27.322  41.251  51.342  1.00  0.00     0.089 A 
HETATM   29  C   UNL     1      27.687  40.949  50.042  1.00  0.00     0.017 A 
HETATM   30  C   UNL     1      27.218  41.756  49.018  1.00  0.00     0.005 A 
HETATM   31  C   UNL     1      26.382  42.832  49.315  1.00  0.00     0.048 A 
ENDBRANCH  22  25
ENDBRANCH   1  18
BRANCH   1  32
HETATM   32  C   UNL     1      22.550  48.071  48.459  1.00  0.00    -0.005 A 
HETATM   33  C   UNL     1      23.197  48.677  49.541  1.00  0.00     0.125 A 
HETATM   34  N   UNL     1      23.164  49.993  49.824  1.00  0.00    -0.273 NA
HETATM   35  C   UNL     1      22.510  50.794  48.961  1.00  0.00     0.116 A 
HETATM   36  C   UNL     1      21.867  50.318  47.836  1.00  0.00     0.020 A 
HETATM   37  C   UNL     1      21.886  48.943  47.585  1.00  0.00     0.012 A 
ENDBRANCH   1  32
TORSDOF 6
ENDMDL
MODEL 3
REMARK VINA RESULT:      -7.5     10.932     12.868
REMARK  6 active torsions:
REMARK  status: ('A' for Active; 'I' for Inactive)
REMARK    1  A    between atoms: C_3  and  C_4 
REMARK    2  A    between atoms: C_4  and  N_5 
REMARK    3  A    between atoms: C_4  and  C_19 
REMARK    4  A    between atoms: N_9  and  C_10 
REMARK    5  A    between atoms: C_25  and  N_26 
REMARK       I    between atoms: N_26  and  C_27 
REMARK    6  A    between atoms: C_27  and  C_28 
ROOT
HETATM    1  C   UNL     1      21.651  47.141  48.098  1.00  0.00     0.259 C 
ENDROOT
BRANCH   1   2
HETATM    2  C   UNL     1      20.167  47.044  47.776  1.00  0.00     0.018 A 
HETATM    3  C   UNL     1      19.683  46.612  46.456  1.00  0.00    -0.038 A 
HETATM    4  C   UNL     1      20.562  46.310  45.274  1.00  0.00     0.050 C 
HETATM    5  C   UNL     1      18.301  46.515  46.415  1.00  0.00    -0.013 A 
HETATM    6  S   UNL     1      17.586  46.978  47.882  1.00  0.00    -0.076 SA
HETATM    7  C   UNL     1      17.422  46.102  45.274  1.00  0.00     0.057 C 
HETATM    8  C   UNL     1      19.084  47.260  48.624  1.00  0.00     0.086 A 
BRANCH   8   9
HETATM    9  N   UNL     1      19.080  47.815  49.885  1.00  0.00    -0.315 N 
HETATM   10  C   UNL     1      19.024  49.146  50.268  1.00  0.00     0.280 C 
HETATM   11  O   UNL     1      19.314  49.375  51.445  1.00  0.00    -0.265 OA
HETATM   12  H   UNL     1      19.346  47.221  50.659  1.00  0.00     0.170 HD
BRANCH  10  13
HETATM   13  C   UNL     1      18.478  50.161  49.394  1.00  0.00     0.142 A 
HETATM   14  O   UNL     1      17.142  50.153  49.071  1.00  0.00    -0.317 OA
HETATM   15  C   UNL     1      16.931  51.202  48.230  1.00  0.00     0.143 A 
HETATM   16  C   UNL     1      18.083  51.934  48.073  1.00  0.00     0.027 A 
HETATM   17  C   UNL     1      19.074  51.280  48.841  1.00  0.00     0.045 A 
ENDBRANCH  10  13
ENDBRANCH   8   9
ENDBRANCH   1   2
BRANCH   1  18
HETATM   18  N   UNL     1      22.257  46.119  49.079  1.00  0.00    -0.056 N 
HETATM   19  H   UNL     1      21.880  46.409  49.989  1.00  0.00     0.281 HD
HETATM   20  C   UNL     1      21.838  44.666  48.923  1.00  0.00     0.256 C 
HETATM   21  C   UNL     1      22.385  43.805  50.094  1.00  0.00     0.152 C 
HETATM   22  N   UNL     1      23.852  43.961  50.241  1.00  0.00    -0.364 N 
HETATM   23  C   UNL     1      24.297  45.374  50.363  1.00  0.00     0.152 C 
HETATM   24  C   UNL     1      23.775  46.256  49.200  1.00  0.00     0.256 C 
BRANCH  22  25
HETATM   25  C   UNL     1      24.684  43.021  49.651  1.00  0.00     0.102 A 
HETATM   26  N   UNL     1      24.135  41.884  49.180  1.00  0.00    -0.352 N 
HETATM   27  H   UNL     1      23.140  41.742  49.329  1.00  0.00     0.166 HD
HETATM   28  C   UNL     1      24.833  40.893  48.603  1.00  0.00     0.089 A 
HETATM   29  C   UNL     1      26.208  40.993  48.475  1.00  0.00     0.017 A 
HETATM   30  C   UNL     1      26.838  42.122  48.972  1.00  0.00     0.005 A 
HETATM   31  C   UNL     1      26.080  43.132  49.565  1.00  0.00     0.048 A 
ENDBRANCH  22  25
ENDBRANCH   1  18
BRANCH   1  32
HETATM   32  C   UNL     1      22.063  48.580  48.347  1.00  0.00    -0.005 A 
HETATM   33  C   UNL     1      22.536  48.908  49.622  1.00  0.00     0.125 A 
HETATM   34  N   UNL     1      22.879  50.146  50.025  1.00  0.00    -0.273 NA
HETATM   35  C   UNL     1      22.822  51.132  49.109  1.00  0.00     0.116 A 
HETATM   36  C   UNL     1      22.409  50.923  47.808  1.00  0.00     0.020 A 
HETATM   37  C   UNL     1      22.025  49.635  47.425  1.00  0.00     0.012 A 
ENDBRANCH   1  32
TORSDOF 6
ENDMDL
MODEL 4
REMARK VINA RESULT:      -7.5      1.536      2.362
REMARK  6 active torsions:
REMARK  status: ('A' for Active; 'I' for Inactive)
REMARK    1  A    between atoms: C_3  and  C_4 
REMARK    2  A    between atoms: C_4  and  N_5 
REMARK    3  A    between atoms: C_4  and  C_19 
REMARK    4  A    between atoms: N_9  and  C_10 
REMARK    5  A    between atoms: C_25  and  N_26 
REMARK       I    between atoms: N_26  and  C_27 
REMARK    6  A    between atoms: C_27  and  C_28 
ROOT
HETATM    1  C   UNL     1      27.417  47.513  40.767  1.00  0.00     0.259 C 
ENDROOT
BRANCH   1   2
HETATM    2  C   UNL     1      26.838  48.140  39.506  1.00  0.00     0.018 A 
HETATM    3  C   UNL     1      26.687  47.379  38.257  1.00  0.00    -0.038 A 
HETATM    4  C   UNL     1      27.151  45.963  38.050  1.00  0.00     0.050 C 
HETATM    5  C   UNL     1      26.061  48.121  37.268  1.00  0.00    -0.013 A 
HETATM    6  S   UNL     1      25.711  49.700  37.782  1.00  0.00    -0.076 SA
HETATM    7  C   UNL     1      25.711  47.716  35.869  1.00  0.00     0.057 C 
HETATM    8  C   UNL     1      26.324  49.422  39.339  1.00  0.00     0.086 A 
BRANCH   8   9
HETATM    9  N   UNL     1      26.403  50.497  40.197  1.00  0.00    -0.315 N 
HETATM   10  C   UNL     1      27.427  51.413  40.378  1.00  0.00     0.280 C 
HETATM   11  O   UNL     1      27.353  52.101  41.398  1.00  0.00    -0.265 OA
HETATM   12  H   UNL     1      25.728  50.548  40.948  1.00  0.00     0.170 HD
BRANCH  10  13
HETATM   13  C   UNL     1      28.404  51.669  39.341  1.00  0.00     0.142 A 
HETATM   14  O   UNL     1      29.310  50.698  38.987  1.00  0.00    -0.317 OA
HETATM   15  C   UNL     1      30.099  51.229  38.015  1.00  0.00     0.143 A 
HETATM   16  C   UNL     1      29.668  52.489  37.676  1.00  0.00     0.027 A 
HETATM   17  C   UNL     1      28.560  52.764  38.511  1.00  0.00     0.045 A 
ENDBRANCH  10  13
ENDBRANCH   8   9
ENDBRANCH   1   2
BRANCH   1  18
HETATM   18  N   UNL     1      28.925  47.677  41.040  1.00  0.00    -0.056 N 
HETATM   19  H   UNL     1      29.182  46.792  41.492  1.00  0.00     0.281 HD
HETATM   20  C   UNL     1      29.847  47.789  39.837  1.00  0.00     0.256 C 
HETATM   21  C   UNL     1      31.335  47.759  40.277  1.00  0.00     0.152 C 
HETATM   22  N   UNL     1      31.616  48.790  41.306  1.00  0.00    -0.364 N 
HETATM   23  C   UNL     1      30.709  48.727  42.482  1.00  0.00     0.152 C 
HETATM   24  C   UNL     1      29.214  48.767  42.073  1.00  0.00     0.256 C 
BRANCH  22  25
HETATM   25  C   UNL     1      32.144  50.007  40.902  1.00  0.00     0.102 A 
HETATM   26  N   UNL     1      33.224  50.002  40.096  1.00  0.00    -0.352 N 
HETATM   27  H   UNL     1      33.638  49.103  39.865  1.00  0.00     0.166 HD
HETATM   28  C   UNL     1      33.837  51.111  39.649  1.00  0.00     0.089 A 
HETATM   29  C   UNL     1      33.375  52.360  40.026  1.00  0.00     0.017 A 
HETATM   30  C   UNL     1      32.289  52.434  40.883  1.00  0.00     0.005 A 
HETATM   31  C   UNL     1      31.678  51.261  41.326  1.00  0.00     0.048 A 
ENDBRANCH  22  25
ENDBRANCH   1  18
BRANCH   1  32
HETATM   32  C   UNL     1      26.885  46.108  40.972  1.00  0.00    -0.005 A 
HETATM   33  C   UNL     1      25.533  45.968  41.305  1.00  0.00     0.125 A 
HETATM   34  N   UNL     1      24.922  44.801  41.584  1.00  0.00    -0.273 NA
HETATM   35  C   UNL     1      25.655  43.677  41.471  1.00  0.00     0.116 A 
HETATM   36  C   UNL     1      26.988  43.684  41.111  1.00  0.00     0.020 A 
HETATM   37  C   UNL     1      27.607  44.912  40.861  1.00  0.00     0.012 A 
ENDBRANCH   1  32
TORSDOF 6
ENDMDL
MODEL 5
REMARK VINA RESULT:      -7.4      2.656      4.710
REMARK  6 active torsions:
REMARK  status: ('A' for Active; 'I' for Inactive)
REMARK    1  A    between atoms: C_3  and  C_4 
REMARK    2  A    between atoms: C_4  and  N_5 
REMARK    3  A    between atoms: C_4  and  C_19 
REMARK    4  A    between atoms: N_9  and  C_10 
REMARK    5  A    between atoms: C_25  and  N_26 
REMARK       I    between atoms: N_26  and  C_27 
REMARK    6  A    between atoms: C_27  and  C_28 
ROOT
HETATM    1  C   UNL     1      27.650  48.213  40.180  1.00  0.00     0.259 C 
ENDROOT
BRANCH   1   2
HETATM    2  C   UNL     1      26.141  48.333  40.029  1.00  0.00     0.018 A 
HETATM    3  C   UNL     1      25.526  49.267  39.075  1.00  0.00    -0.038 A 
HETATM    4  C   UNL     1      26.282  50.251  38.224  1.00  0.00     0.050 C 
HETATM    5  C   UNL     1      24.145  49.147  39.044  1.00  0.00    -0.013 A 
HETATM    6  S   UNL     1      23.582  47.998  40.158  1.00  0.00    -0.076 SA
HETATM    7  C   UNL     1      23.155  49.900  38.209  1.00  0.00     0.057 C 
HETATM    8  C   UNL     1      25.149  47.591  40.663  1.00  0.00     0.086 A 
BRANCH   8   9
HETATM    9  N   UNL     1      25.273  46.724  41.727  1.00  0.00    -0.315 N 
HETATM   10  C   UNL     1      25.286  45.338  41.744  1.00  0.00     0.280 C 
HETATM   11  O   UNL     1      25.131  44.817  42.851  1.00  0.00    -0.265 OA
HETATM   12  H   UNL     1      25.146  47.101  42.656  1.00  0.00     0.170 HD
BRANCH  10  13
HETATM   13  C   UNL     1      25.650  44.571  40.572  1.00  0.00     0.142 A 
HETATM   14  O   UNL     1      26.503  43.499  40.681  1.00  0.00    -0.317 OA
HETATM   15  C   UNL     1      26.671  42.997  39.429  1.00  0.00     0.143 A 
HETATM   16  C   UNL     1      25.879  43.669  38.528  1.00  0.00     0.027 A 
HETATM   17  C   UNL     1      25.202  44.667  39.267  1.00  0.00     0.045 A 
ENDBRANCH  10  13
ENDBRANCH   8   9
ENDBRANCH   1   2
BRANCH   1  18
HETATM   18  N   UNL     1      28.491  49.504  40.182  1.00  0.00    -0.056 N 
HETATM   19  H   UNL     1      28.105  50.041  39.397  1.00  0.00     0.281 HD
HETATM   20  C   UNL     1      28.365  50.420  41.389  1.00  0.00     0.256 C 
HETATM   21  C   UNL     1      29.124  51.753  41.152  1.00  0.00     0.152 C 
HETATM   22  N   UNL     1      30.536  51.511  40.768  1.00  0.00    -0.364 N 
HETATM   23  C   UNL     1      30.694  50.592  39.610  1.00  0.00     0.152 C 
HETATM   24  C   UNL     1      29.955  49.246  39.824  1.00  0.00     0.256 C 
BRANCH  22  25
HETATM   25  C   UNL     1      31.511  51.560  41.752  1.00  0.00     0.102 A 
HETATM   26  N   UNL     1      32.762  51.171  41.437  1.00  0.00    -0.352 N 
HETATM   27  H   UNL     1      32.922  50.804  40.503  1.00  0.00     0.166 HD
HETATM   28  C   UNL     1      33.789  51.158  42.303  1.00  0.00     0.089 A 
HETATM   29  C   UNL     1      33.595  51.545  43.618  1.00  0.00     0.017 A 
HETATM   30  C   UNL     1      32.322  51.923  44.015  1.00  0.00     0.005 A 
HETATM   31  C   UNL     1      31.280  51.925  43.088  1.00  0.00     0.048 A 
ENDBRANCH  22  25
ENDBRANCH   1  18
BRANCH   1  32
HETATM   32  C   UNL     1      28.200  47.099  39.310  1.00  0.00    -0.005 A 
HETATM   33  C   UNL     1      28.956  46.101  39.933  1.00  0.00     0.125 A 
HETATM   34  N   UNL     1      29.568  45.083  39.298  1.00  0.00    -0.273 NA
HETATM   35  C   UNL     1      29.382  44.985  37.967  1.00  0.00     0.116 A 
HETATM   36  C   UNL     1      28.624  45.887  37.247  1.00  0.00     0.020 A 
HETATM   37  C   UNL     1      28.029  46.954  37.926  1.00  0.00     0.012 A 
ENDBRANCH   1  32
TORSDOF 6
ENDMDL
MODEL 6
REMARK VINA RESULT:      -7.3     11.742     14.732
REMARK  6 active torsions:
REMARK  status: ('A' for Active; 'I' for Inactive)
REMARK    1  A    between atoms: C_3  and  C_4 
REMARK    2  A    between atoms: C_4  and  N_5 
REMARK    3  A    between atoms: C_4  and  C_19 
REMARK    4  A    between atoms: N_9  and  C_10 
REMARK    5  A    between atoms: C_25  and  N_26 
REMARK       I    between atoms: N_26  and  C_27 
REMARK    6  A    between atoms: C_27  and  C_28 
ROOT
HETATM    1  C   UNL     1      16.781  51.671  47.773  1.00  0.00     0.259 C 
ENDROOT
BRANCH   1   2
HETATM    2  C   UNL     1      16.182  50.919  46.594  1.00  0.00     0.018 A 
HETATM    3  C   UNL     1      15.447  49.657  46.766  1.00  0.00    -0.038 A 
HETATM    4  C   UNL     1      15.279  48.931  48.073  1.00  0.00     0.050 C 
HETATM    5  C   UNL     1      14.918  49.195  45.571  1.00  0.00    -0.013 A 
HETATM    6  S   UNL     1      15.328  50.196  44.265  1.00  0.00    -0.076 SA
HETATM    7  C   UNL     1      14.102  47.964  45.319  1.00  0.00     0.057 C 
HETATM    8  C   UNL     1      16.161  51.293  45.253  1.00  0.00     0.086 A 
BRANCH   8   9
HETATM    9  N   UNL     1      16.851  52.314  44.636  1.00  0.00    -0.315 N 
HETATM   10  C   UNL     1      16.374  53.397  43.915  1.00  0.00     0.280 C 
HETATM   11  O   UNL     1      17.213  54.000  43.241  1.00  0.00    -0.265 OA
HETATM   12  H   UNL     1      17.846  52.193  44.502  1.00  0.00     0.170 HD
BRANCH  10  13
HETATM   13  C   UNL     1      15.027  53.892  44.098  1.00  0.00     0.142 A 
HETATM   14  O   UNL     1      14.795  55.002  44.874  1.00  0.00    -0.317 OA
HETATM   15  C   UNL     1      13.451  55.212  44.874  1.00  0.00     0.143 A 
HETATM   16  C   UNL     1      12.822  54.313  44.048  1.00  0.00     0.027 A 
HETATM   17  C   UNL     1      13.837  53.478  43.527  1.00  0.00     0.045 A 
ENDBRANCH  10  13
ENDBRANCH   8   9
ENDBRANCH   1   2
BRANCH   1  18
HETATM   18  N   UNL     1      17.824  50.950  48.649  1.00  0.00    -0.056 N 
HETATM   19  H   UNL     1      17.276  50.632  49.458  1.00  0.00     0.281 HD
HETATM   20  C   UNL     1      18.462  49.691  48.084  1.00  0.00     0.256 C 
HETATM   21  C   UNL     1      19.340  48.989  49.155  1.00  0.00     0.152 C 
HETATM   22  N   UNL     1      20.337  49.922  49.733  1.00  0.00    -0.364 N 
HETATM   23  C   UNL     1      19.747  51.178  50.266  1.00  0.00     0.152 C 
HETATM   24  C   UNL     1      18.874  51.908  49.213  1.00  0.00     0.256 C 
BRANCH  22  25
HETATM   25  C   UNL     1      21.624  49.925  49.216  1.00  0.00     0.102 A 
HETATM   26  N   UNL     1      22.435  48.888  49.504  1.00  0.00    -0.352 N 
HETATM   27  H   UNL     1      22.083  48.175  50.137  1.00  0.00     0.166 HD
HETATM   28  C   UNL     1      23.704  48.782  49.077  1.00  0.00     0.089 A 
HETATM   29  C   UNL     1      24.263  49.783  48.302  1.00  0.00     0.017 A 
HETATM   30  C   UNL     1      23.493  50.894  47.999  1.00  0.00     0.005 A 
HETATM   31  C   UNL     1      22.178  50.970  48.460  1.00  0.00     0.048 A 
ENDBRANCH  22  25
ENDBRANCH   1  18
BRANCH   1  32
HETATM   32  C   UNL     1      15.710  52.416  48.547  1.00  0.00    -0.005 A 
HETATM   33  C   UNL     1      14.940  53.355  47.851  1.00  0.00     0.125 A 
HETATM   34  N   UNL     1      13.999  54.144  48.401  1.00  0.00    -0.273 NA
HETATM   35  C   UNL     1      13.734  53.969  49.710  1.00  0.00     0.116 A 
HETATM   36  C   UNL     1      14.399  53.046  50.493  1.00  0.00     0.020 A 
HETATM   37  C   UNL     1      15.396  52.264  49.905  1.00  0.00     0.012 A 
ENDBRANCH   1  32
TORSDOF 6
ENDMDL
MODEL 7
REMARK VINA RESULT:      -7.3      2.055      3.399
REMARK  6 active torsions:
REMARK  status: ('A' for Active; 'I' for Inactive)
REMARK    1  A    between atoms: C_3  and  C_4 
REMARK    2  A    between atoms: C_4  and  N_5 
REMARK    3  A    between atoms: C_4  and  C_19 
REMARK    4  A    between atoms: N_9  and  C_10 
REMARK    5  A    between atoms: C_25  and  N_26 
REMARK       I    between atoms: N_26  and  C_27 
REMARK    6  A    between atoms: C_27  and  C_28 
ROOT
HETATM    1  C   UNL     1      28.668  46.351  39.920  1.00  0.00     0.259 C 
ENDROOT
BRANCH   1   2
HETATM    2  C   UNL     1      27.223  46.666  40.277  1.00  0.00     0.018 A 
HETATM    3  C   UNL     1      26.360  45.694  40.964  1.00  0.00    -0.038 A 
HETATM    4  C   UNL     1      26.756  44.284  41.308  1.00  0.00     0.050 C 
HETATM    5  C   UNL     1      25.116  46.224  41.266  1.00  0.00    -0.013 A 
HETATM    6  S   UNL     1      24.947  47.814  40.699  1.00  0.00    -0.076 SA
HETATM    7  C   UNL     1      23.962  45.573  41.965  1.00  0.00     0.057 C 
HETATM    8  C   UNL     1      26.531  47.860  40.097  1.00  0.00     0.086 A 
BRANCH   8   9
HETATM    9  N   UNL     1      26.907  48.968  39.368  1.00  0.00    -0.315 N 
HETATM   10  C   UNL     1      26.586  49.324  38.068  1.00  0.00     0.280 C 
HETATM   11  O   UNL     1      27.276  50.219  37.574  1.00  0.00    -0.265 OA
HETATM   12  H   UNL     1      27.673  49.524  39.723  1.00  0.00     0.170 HD
BRANCH  10  13
HETATM   13  C   UNL     1      25.400  48.812  37.415  1.00  0.00     0.142 A 
HETATM   14  O   UNL     1      24.164  49.330  37.717  1.00  0.00    -0.317 OA
HETATM   15  C   UNL     1      23.255  48.646  36.971  1.00  0.00     0.143 A 
HETATM   16  C   UNL     1      23.887  47.758  36.134  1.00  0.00     0.027 A 
HETATM   17  C   UNL     1      25.270  47.882  36.401  1.00  0.00     0.045 A 
ENDBRANCH  10  13
ENDBRANCH   8   9
ENDBRANCH   1   2
BRANCH   1  18
HETATM   18  N   UNL     1      29.732  47.446  40.131  1.00  0.00    -0.056 N 
HETATM   19  H   UNL     1      30.591  46.912  40.308  1.00  0.00     0.281 HD
HETATM   20  C   UNL     1      30.058  48.342  38.948  1.00  0.00     0.256 C 
HETATM   21  C   UNL     1      31.270  49.259  39.268  1.00  0.00     0.152 C 
HETATM   22  N   UNL     1      31.053  50.025  40.519  1.00  0.00    -0.364 N 
HETATM   23  C   UNL     1      30.700  49.179  41.688  1.00  0.00     0.152 C 
HETATM   24  C   UNL     1      29.485  48.260  41.402  1.00  0.00     0.256 C 
BRANCH  22  25
HETATM   25  C   UNL     1      30.569  51.321  40.429  1.00  0.00     0.102 A 
HETATM   26  N   UNL     1      29.429  51.536  39.743  1.00  0.00    -0.352 N 
HETATM   27  H   UNL     1      29.005  50.742  39.272  1.00  0.00     0.166 HD
HETATM   28  C   UNL     1      28.868  52.744  39.571  1.00  0.00     0.089 A 
HETATM   29  C   UNL     1      29.469  53.872  40.102  1.00  0.00     0.017 A 
HETATM   30  C   UNL     1      30.663  53.724  40.789  1.00  0.00     0.005 A 
HETATM   31  C   UNL     1      31.217  52.454  40.948  1.00  0.00     0.048 A 
ENDBRANCH  22  25
ENDBRANCH   1  18
BRANCH   1  32
HETATM   32  C   UNL     1      28.757  45.630  38.588  1.00  0.00    -0.005 A 
HETATM   33  C   UNL     1      29.518  44.457  38.534  1.00  0.00     0.125 A 
HETATM   34  N   UNL     1      29.751  43.737  37.420  1.00  0.00    -0.273 NA
HETATM   35  C   UNL     1      29.151  44.143  36.285  1.00  0.00     0.116 A 
HETATM   36  C   UNL     1      28.344  45.262  36.222  1.00  0.00     0.020 A 
HETATM   37  C   UNL     1      28.147  46.012  37.385  1.00  0.00     0.012 A 
ENDBRANCH   1  32
TORSDOF 6
ENDMDL
MODEL 8
REMARK VINA RESULT:      -7.1     10.637     13.464
REMARK  6 active torsions:
REMARK  status: ('A' for Active; 'I' for Inactive)
REMARK    1  A    between atoms: C_3  and  C_4 
REMARK    2  A    between atoms: C_4  and  N_5 
REMARK    3  A    between atoms: C_4  and  C_19 
REMARK    4  A    between atoms: N_9  and  C_10 
REMARK    5  A    between atoms: C_25  and  N_26 
REMARK       I    between atoms: N_26  and  C_27 
REMARK    6  A    between atoms: C_27  and  C_28 
ROOT
HETATM    1  C   UNL     1      17.317  51.146  46.397  1.00  0.00     0.259 C 
ENDROOT
BRANCH   1   2
HETATM    2  C   UNL     1      16.832  50.063  45.443  1.00  0.00     0.018 A 
HETATM    3  C   UNL     1      15.730  49.155  45.791  1.00  0.00    -0.038 A 
HETATM    4  C   UNL     1      15.026  49.124  47.120  1.00  0.00     0.050 C 
HETATM    5  C   UNL     1      15.401  48.310  44.743  1.00  0.00    -0.013 A 
HETATM    6  S   UNL     1      16.410  48.541  43.399  1.00  0.00    -0.076 SA
HETATM    7  C   UNL     1      14.339  47.254  44.685  1.00  0.00     0.057 C 
HETATM    8  C   UNL     1      17.263  49.801  44.146  1.00  0.00     0.086 A 
BRANCH   8   9
HETATM    9  N   UNL     1      18.363  50.308  43.487  1.00  0.00    -0.315 N 
HETATM   10  C   UNL     1      18.431  51.243  42.467  1.00  0.00     0.280 C 
HETATM   11  O   UNL     1      19.511  51.309  41.875  1.00  0.00    -0.265 OA
HETATM   12  H   UNL     1      19.241  49.819  43.597  1.00  0.00     0.170 HD
BRANCH  10  13
HETATM   13  C   UNL     1      17.370  52.203  42.249  1.00  0.00     0.142 A 
HETATM   14  O   UNL     1      16.213  51.824  41.612  1.00  0.00    -0.317 OA
HETATM   15  C   UNL     1      15.423  52.928  41.536  1.00  0.00     0.143 A 
HETATM   16  C   UNL     1      16.009  53.988  42.184  1.00  0.00     0.027 A 
HETATM   17  C   UNL     1      17.252  53.516  42.665  1.00  0.00     0.045 A 
ENDBRANCH  10  13
ENDBRANCH   8   9
ENDBRANCH   1   2
BRANCH   1  18
HETATM   18  N   UNL     1      18.139  50.722  47.629  1.00  0.00    -0.056 N 
HETATM   19  H   UNL     1      17.447  50.719  48.387  1.00  0.00     0.281 HD
HETATM   20  C   UNL     1      18.730  49.321  47.629  1.00  0.00     0.256 C 
HETATM   21  C   UNL     1      19.362  48.988  49.007  1.00  0.00     0.152 C 
HETATM   22  N   UNL     1      20.346  50.021  49.414  1.00  0.00    -0.364 N 
HETATM   23  C   UNL     1      19.807  51.405  49.394  1.00  0.00     0.152 C 
HETATM   24  C   UNL     1      19.179  51.771  48.025  1.00  0.00     0.256 C 
BRANCH  22  25
HETATM   25  C   UNL     1      21.690  49.796  49.159  1.00  0.00     0.102 A 
HETATM   26  N   UNL     1      22.237  48.634  49.570  1.00  0.00    -0.352 N 
HETATM   27  H   UNL     1      21.649  47.997  50.100  1.00  0.00     0.166 HD
HETATM   28  C   UNL     1      23.527  48.305  49.397  1.00  0.00     0.089 A 
HETATM   29  C   UNL     1      24.393  49.189  48.777  1.00  0.00     0.017 A 
HETATM   30  C   UNL     1      23.902  50.417  48.363  1.00  0.00     0.005 A 
HETATM   31  C   UNL     1      22.556  50.724  48.559  1.00  0.00     0.048 A 
ENDBRANCH  22  25
ENDBRANCH   1  18
BRANCH   1  32
HETATM   32  C   UNL     1      16.220  52.153  46.682  1.00  0.00    -0.005 A 
HETATM   33  C   UNL     1      15.919  52.424  48.022  1.00  0.00     0.125 A 
HETATM   34  N   UNL     1      14.934  53.238  48.444  1.00  0.00    -0.273 NA
HETATM   35  C   UNL     1      14.227  53.892  47.503  1.00  0.00     0.116 A 
HETATM   36  C   UNL     1      14.457  53.738  46.150  1.00  0.00     0.020 A 
HETATM   37  C   UNL     1      15.462  52.859  45.738  1.00  0.00     0.012 A 
ENDBRANCH   1  32
TORSDOF 6
ENDMDL
MODEL 9
REMARK VINA RESULT:      -6.9     11.279     14.372
REMARK  6 active torsions:
REMARK  status: ('A' for Active; 'I' for Inactive)
REMARK    1  A    between atoms: C_3  and  C_4 
REMARK    2  A    between atoms: C_4  and  N_5 
REMARK    3  A    between atoms: C_4  and  C_19 
REMARK    4  A    between atoms: N_9  and  C_10 
REMARK    5  A    between atoms: C_25  and  N_26 
REMARK       I    between atoms: N_26  and  C_27 
REMARK    6  A    between atoms: C_27  and  C_28 
ROOT
HETATM    1  C   UNL     1      16.404  51.495  47.671  1.00  0.00     0.259 C 
ENDROOT
BRANCH   1   2
HETATM    2  C   UNL     1      15.611  50.831  46.554  1.00  0.00     0.018 A 
HETATM    3  C   UNL     1      15.009  49.499  46.712  1.00  0.00    -0.038 A 
HETATM    4  C   UNL     1      15.169  48.620  47.921  1.00  0.00     0.050 C 
HETATM    5  C   UNL     1      14.263  49.131  45.603  1.00  0.00    -0.013 A 
HETATM    6  S   UNL     1      14.321  50.304  44.378  1.00  0.00    -0.076 SA
HETATM    7  C   UNL     1      13.488  47.870  45.369  1.00  0.00     0.057 C 
HETATM    8  C   UNL     1      15.280  51.350  45.305  1.00  0.00     0.086 A 
BRANCH   8   9
HETATM    9  N   UNL     1      15.758  52.489  44.695  1.00  0.00    -0.315 N 
HETATM   10  C   UNL     1      16.864  52.659  43.878  1.00  0.00     0.280 C 
HETATM   11  O   UNL     1      17.219  53.826  43.696  1.00  0.00    -0.265 OA
HETATM   12  H   UNL     1      15.397  53.378  45.014  1.00  0.00     0.170 HD
BRANCH  10  13
HETATM   13  C   UNL     1      17.437  51.553  43.141  1.00  0.00     0.142 A 
HETATM   14  O   UNL     1      18.304  50.683  43.757  1.00  0.00    -0.317 OA
HETATM   15  C   UNL     1      18.685  49.774  42.821  1.00  0.00     0.143 A 
HETATM   16  C   UNL     1      18.017  49.988  41.639  1.00  0.00     0.027 A 
HETATM   17  C   UNL     1      17.194  51.118  41.851  1.00  0.00     0.045 A 
ENDBRANCH  10  13
ENDBRANCH   8   9
ENDBRANCH   1   2
BRANCH   1  18
HETATM   18  N   UNL     1      17.439  50.649  48.437  1.00  0.00    -0.056 N 
HETATM   19  H   UNL     1      16.861  50.074  49.061  1.00  0.00     0.281 HD
HETATM   20  C   UNL     1      18.264  49.655  47.635  1.00  0.00     0.256 C 
HETATM   21  C   UNL     1      19.116  48.760  48.574  1.00  0.00     0.152 C 
HETATM   22  N   UNL     1      19.946  49.576  49.493  1.00  0.00    -0.364 N 
HETATM   23  C   UNL     1      19.172  50.579  50.269  1.00  0.00     0.152 C 
HETATM   24  C   UNL     1      18.319  51.497  49.356  1.00  0.00     0.256 C 
BRANCH  22  25
HETATM   25  C   UNL     1      21.265  49.831  49.149  1.00  0.00     0.102 A 
HETATM   26  N   UNL     1      22.194  48.896  49.431  1.00  0.00    -0.352 N 
HETATM   27  H   UNL     1      21.893  48.067  49.935  1.00  0.00     0.166 HD
HETATM   28  C   UNL     1      23.503  49.030  49.163  1.00  0.00     0.089 A 
HETATM   29  C   UNL     1      23.978  50.190  48.574  1.00  0.00     0.017 A 
HETATM   30  C   UNL     1      23.078  51.205  48.291  1.00  0.00     0.005 A 
HETATM   31  C   UNL     1      21.725  51.030  48.584  1.00  0.00     0.048 A 
ENDBRANCH  22  25
ENDBRANCH   1  18
BRANCH   1  32
HETATM   32  C   UNL     1      15.505  52.344  48.548  1.00  0.00    -0.005 A 
HETATM   33  C   UNL     1      14.946  53.496  47.983  1.00  0.00     0.125 A 
HETATM   34  N   UNL     1      14.183  54.389  48.641  1.00  0.00    -0.273 NA
HETATM   35  C   UNL     1      13.883  54.117  49.926  1.00  0.00     0.116 A 
HETATM   36  C   UNL     1      14.343  52.992  50.581  1.00  0.00     0.020 A 
HETATM   37  C   UNL     1      15.162  52.099  49.885  1.00  0.00     0.012 A 
ENDBRANCH   1  32
TORSDOF 6
ENDMDL
MODEL 10
REMARK VINA RESULT:      -6.9     25.934     29.004
REMARK  6 active torsions:
REMARK  status: ('A' for Active; 'I' for Inactive)
REMARK    1  A    between atoms: C_3  and  C_4 
REMARK    2  A    between atoms: C_4  and  N_5 
REMARK    3  A    between atoms: C_4  and  C_19 
REMARK    4  A    between atoms: N_9  and  C_10 
REMARK    5  A    between atoms: C_25  and  N_26 
REMARK       I    between atoms: N_26  and  C_27 
REMARK    6  A    between atoms: C_27  and  C_28 
ROOT
HETATM    1  C   UNL     1      39.180  47.933  67.519  1.00  0.00     0.259 C 
ENDROOT
BRANCH   1   2
HETATM    2  C   UNL     1      39.971  47.301  66.383  1.00  0.00     0.018 A 
HETATM    3  C   UNL     1      41.441  47.260  66.386  1.00  0.00    -0.038 A 
HETATM    4  C   UNL     1      42.318  47.895  67.430  1.00  0.00     0.050 C 
HETATM    5  C   UNL     1      41.944  46.564  65.298  1.00  0.00    -0.013 A 
HETATM    6  S   UNL     1      40.714  46.020  64.266  1.00  0.00    -0.076 SA
HETATM    7  C   UNL     1      43.373  46.286  64.941  1.00  0.00     0.057 C 
HETATM    8  C   UNL     1      39.487  46.638  65.259  1.00  0.00     0.086 A 
BRANCH   8   9
HETATM    9  N   UNL     1      38.192  46.575  64.791  1.00  0.00    -0.315 N 
HETATM   10  C   UNL     1      37.595  45.643  63.957  1.00  0.00     0.280 C 
HETATM   11  O   UNL     1      36.509  45.975  63.477  1.00  0.00    -0.265 OA
HETATM   12  H   UNL     1      37.618  47.403  64.887  1.00  0.00     0.170 HD
BRANCH  10  13
HETATM   13  C   UNL     1      38.124  44.303  63.821  1.00  0.00     0.142 A 
HETATM   14  O   UNL     1      38.305  43.512  64.931  1.00  0.00    -0.317 OA
HETATM   15  C   UNL     1      38.826  42.333  64.497  1.00  0.00     0.143 A 
HETATM   16  C   UNL     1      38.906  42.316  63.125  1.00  0.00     0.027 A 
HETATM   17  C   UNL     1      38.432  43.574  62.687  1.00  0.00     0.045 A 
ENDBRANCH  10  13
ENDBRANCH   8   9
ENDBRANCH   1   2
BRANCH   1  18
HETATM   18  N   UNL     1      38.065  47.104  68.186  1.00  0.00    -0.056 N 
HETATM   19  H   UNL     1      38.139  47.360  69.177  1.00  0.00     0.281 HD
HETATM   20  C   UNL     1      36.629  47.422  67.800  1.00  0.00     0.256 C 
HETATM   21  C   UNL     1      35.631  46.635  68.692  1.00  0.00     0.152 C 
HETATM   22  N   UNL     1      35.917  45.180  68.668  1.00  0.00    -0.364 N 
HETATM   23  C   UNL     1      37.322  44.838  69.010  1.00  0.00     0.152 C 
HETATM   24  C   UNL     1      38.343  45.601  68.127  1.00  0.00     0.256 C 
BRANCH  22  25
HETATM   25  C   UNL     1      35.199  44.375  67.796  1.00  0.00     0.102 A 
HETATM   26  N   UNL     1      34.105  43.740  68.261  1.00  0.00    -0.352 N 
HETATM   27  H   UNL     1      33.887  43.836  69.249  1.00  0.00     0.166 HD
HETATM   28  C   UNL     1      33.337  42.923  67.523  1.00  0.00     0.089 A 
HETATM   29  C   UNL     1      33.657  42.675  66.200  1.00  0.00     0.017 A 
HETATM   30  C   UNL     1      34.790  43.269  65.670  1.00  0.00     0.005 A 
HETATM   31  C   UNL     1      35.565  44.113  66.467  1.00  0.00     0.048 A 
ENDBRANCH  22  25
ENDBRANCH   1  18
BRANCH   1  32
HETATM   32  C   UNL     1      38.795  49.362  67.187  1.00  0.00    -0.005 A 
HETATM   33  C   UNL     1      39.208  50.367  68.069  1.00  0.00     0.125 A 
HETATM   34  N   UNL     1      38.895  51.672  67.956  1.00  0.00    -0.273 NA
HETATM   35  C   UNL     1      38.184  52.045  66.875  1.00  0.00     0.116 A 
HETATM   36  C   UNL     1      37.753  51.151  65.915  1.00  0.00     0.020 A 
HETATM   37  C   UNL     1      38.061  49.797  66.075  1.00  0.00     0.012 A 
ENDBRANCH   1  32
TORSDOF 6
ENDMDL
