MODEL 1
REMARK VINA RESULT:      -7.8      0.000      0.000
REMARK  3 active torsions:
REMARK  status: ('A' for Active; 'I' for Inactive)
REMARK    1  A    between atoms: C_2  and  C_3 
REMARK    2  A    between atoms: C_9  and  C_10 
REMARK    3  A    between atoms: C_20  and  N_21 
ROOT
HETATM    1  C   UNL     1      31.916  49.809  41.887  1.00  0.00     0.043 A 
HETATM    2  N   UNL     1      33.116  49.131  41.920  1.00  0.00    -0.279 N 
HETATM    3  H   UNL     1      33.986  49.423  42.354  1.00  0.00     0.189 HD
HETATM    4  N   UNL     1      33.086  47.937  41.299  1.00  0.00    -0.148 NA
HETATM    5  C   UNL     1      31.832  47.867  40.872  1.00  0.00     0.199 A 
HETATM    6  C   UNL     1      31.060  48.994  41.168  1.00  0.00     0.035 A 
HETATM    7  C   UNL     1      29.633  49.067  40.746  1.00  0.00     0.107 A 
HETATM    8  C   UNL     1      29.195  47.764  40.079  1.00  0.00     0.081 A 
HETATM    9  C   UNL     1      27.818  47.662  39.724  1.00  0.00     0.100 C 
HETATM   10  N   UNL     1      26.702  47.582  39.416  1.00  0.00    -0.191 NA
HETATM   11  C   UNL     1      30.045  46.726  39.855  1.00  0.00     0.140 A 
HETATM   12  O   UNL     1      31.398  46.777  40.217  1.00  0.00    -0.277 OA
ENDROOT
BRANCH   7  13
HETATM   13  C   UNL     1      29.528  50.272  39.812  1.00  0.00    -0.022 A 
HETATM   14  C   UNL     1      28.612  51.316  40.041  1.00  0.00     0.041 A 
HETATM   15 CL   UNL     1      27.549  51.336  41.403  1.00  0.00    -0.084 Cl
HETATM   16  C   UNL     1      28.519  52.396  39.154  1.00  0.00     0.024 A 
HETATM   17  C   UNL     1      29.330  52.453  38.023  1.00  0.00     0.002 A 
HETATM   18  C   UNL     1      30.234  51.429  37.771  1.00  0.00     0.001 A 
HETATM   19  C   UNL     1      30.330  50.349  38.650  1.00  0.00     0.010 A 
ENDBRANCH   7  13
BRANCH  11  20
HETATM   20  N   UNL     1      29.699  45.532  39.261  1.00  0.00    -0.282 NA
HETATM   21  H   UNL     1      29.833  44.696  39.825  1.00  0.00     0.126 HD
HETATM   22  H   UNL     1      28.785  45.577  38.815  1.00  0.00     0.126 HD
ENDBRANCH  11  20
BRANCH   1  23
HETATM   23  C   UNL     1      31.721  51.147  42.534  1.00  0.00     0.029 C 
HETATM   24  C   UNL     1      31.914  52.283  41.530  1.00  0.00     0.016 C 
HETATM   25  C   UNL     1      32.642  51.321  43.742  1.00  0.00     0.016 C 
ENDBRANCH   1  23
TORSDOF 3
ENDMDL
MODEL 2
REMARK VINA RESULT:      -7.3      2.441      4.808
REMARK  3 active torsions:
REMARK  status: ('A' for Active; 'I' for Inactive)
REMARK    1  A    between atoms: C_2  and  C_3 
REMARK    2  A    between atoms: C_9  and  C_10 
REMARK    3  A    between atoms: C_20  and  N_21 
ROOT
HETATM    1  C   UNL     1      31.083  48.244  39.757  1.00  0.00     0.043 A 
HETATM    2  N   UNL     1      31.518  47.171  40.506  1.00  0.00    -0.279 N 
HETATM    3  H   UNL     1      31.100  46.248  40.575  1.00  0.00     0.189 HD
HETATM    4  N   UNL     1      32.642  47.414  41.207  1.00  0.00    -0.148 NA
HETATM    5  C   UNL     1      32.917  48.670  40.882  1.00  0.00     0.199 A 
HETATM    6  C   UNL     1      31.987  49.258  40.020  1.00  0.00     0.035 A 
HETATM    7  C   UNL     1      32.156  50.669  39.571  1.00  0.00     0.107 A 
HETATM    8  C   UNL     1      33.460  51.257  40.106  1.00  0.00     0.081 A 
HETATM    9  C   UNL     1      33.796  52.570  39.661  1.00  0.00     0.100 C 
HETATM   10  N   UNL     1      34.064  53.645  39.316  1.00  0.00    -0.191 NA
HETATM   11  C   UNL     1      34.294  50.575  40.936  1.00  0.00     0.140 A 
HETATM   12  O   UNL     1      34.013  49.273  41.372  1.00  0.00    -0.277 OA
ENDROOT
BRANCH   7  13
HETATM   13  C   UNL     1      30.922  51.422  40.067  1.00  0.00    -0.022 A 
HETATM   14  C   UNL     1      29.984  51.985  39.180  1.00  0.00     0.041 A 
HETATM   15 CL   UNL     1      30.135  51.852  37.464  1.00  0.00    -0.084 Cl
HETATM   16  C   UNL     1      28.876  52.691  39.662  1.00  0.00     0.024 A 
HETATM   17  C   UNL     1      28.685  52.858  41.031  1.00  0.00     0.002 A 
HETATM   18  C   UNL     1      29.603  52.321  41.926  1.00  0.00     0.001 A 
HETATM   19  C   UNL     1      30.711  51.616  41.452  1.00  0.00     0.010 A 
ENDBRANCH   7  13
BRANCH  11  20
HETATM   20  N   UNL     1      35.480  51.059  41.442  1.00  0.00    -0.282 NA
HETATM   21  H   UNL     1      35.417  51.570  42.319  1.00  0.00     0.126 HD
HETATM   22  H   UNL     1      36.215  50.355  41.436  1.00  0.00     0.126 HD
ENDBRANCH  11  20
BRANCH   1  23
HETATM   23  C   UNL     1      29.864  48.186  38.886  1.00  0.00     0.029 C 
HETATM   24  C   UNL     1      28.620  48.652  39.641  1.00  0.00     0.016 C 
HETATM   25  C   UNL     1      29.661  46.786  38.305  1.00  0.00     0.016 C 
ENDBRANCH   1  23
TORSDOF 3
ENDMDL
MODEL 3
REMARK VINA RESULT:      -7.3     12.260     13.137
REMARK  3 active torsions:
REMARK  status: ('A' for Active; 'I' for Inactive)
REMARK    1  A    between atoms: C_2  and  C_3 
REMARK    2  A    between atoms: C_9  and  C_10 
REMARK    3  A    between atoms: C_20  and  N_21 
ROOT
HETATM    1  C   UNL     1      28.109  42.372  52.059  1.00  0.00     0.043 A 
HETATM    2  N   UNL     1      28.934  41.429  51.482  1.00  0.00    -0.279 N 
HETATM    3  H   UNL     1      29.878  41.175  51.756  1.00  0.00     0.189 HD
HETATM    4  N   UNL     1      28.378  40.782  50.440  1.00  0.00    -0.148 NA
HETATM    5  C   UNL     1      27.174  41.333  50.370  1.00  0.00     0.199 A 
HETATM    6  C   UNL     1      26.946  42.340  51.311  1.00  0.00     0.035 A 
HETATM    7  C   UNL     1      25.641  43.059  51.351  1.00  0.00     0.107 A 
HETATM    8  C   UNL     1      24.666  42.475  50.330  1.00  0.00     0.081 A 
HETATM    9  C   UNL     1      23.342  43.003  50.339  1.00  0.00     0.100 C 
HETATM   10  N   UNL     1      22.268  43.444  50.331  1.00  0.00    -0.191 NA
HETATM   11  C   UNL     1      25.006  41.479  49.468  1.00  0.00     0.140 A 
HETATM   12  O   UNL     1      26.289  40.914  49.449  1.00  0.00    -0.277 OA
ENDROOT
BRANCH   7  13
HETATM   13  C   UNL     1      25.959  44.530  51.089  1.00  0.00    -0.022 A 
HETATM   14  C   UNL     1      25.708  45.531  52.047  1.00  0.00     0.041 A 
HETATM   15 CL   UNL     1      25.043  45.179  53.603  1.00  0.00    -0.084 Cl
HETATM   16  C   UNL     1      25.986  46.875  51.770  1.00  0.00     0.024 A 
HETATM   17  C   UNL     1      26.511  47.248  50.536  1.00  0.00     0.002 A 
HETATM   18  C   UNL     1      26.757  46.280  49.570  1.00  0.00     0.001 A 
HETATM   19  C   UNL     1      26.481  44.938  49.839  1.00  0.00     0.010 A 
ENDBRANCH   7  13
BRANCH  11  20
HETATM   20  N   UNL     1      24.165  40.918  48.533  1.00  0.00    -0.282 NA
HETATM   21  H   UNL     1      24.013  39.916  48.612  1.00  0.00     0.126 HD
HETATM   22  H   UNL     1      23.305  41.451  48.423  1.00  0.00     0.126 HD
ENDBRANCH  11  20
BRANCH   1  23
HETATM   23  C   UNL     1      28.519  43.193  53.244  1.00  0.00     0.029 C 
HETATM   24  C   UNL     1      29.980  42.942  53.614  1.00  0.00     0.016 C 
HETATM   25  C   UNL     1      27.600  42.944  54.440  1.00  0.00     0.016 C 
ENDBRANCH   1  23
TORSDOF 3
ENDMDL
MODEL 4
REMARK VINA RESULT:      -7.3      3.121      4.837
REMARK  3 active torsions:
REMARK  status: ('A' for Active; 'I' for Inactive)
REMARK    1  A    between atoms: C_2  and  C_3 
REMARK    2  A    between atoms: C_9  and  C_10 
REMARK    3  A    between atoms: C_20  and  N_21 
ROOT
HETATM    1  C   UNL     1      31.874  52.713  39.880  1.00  0.00     0.043 A 
HETATM    2  N   UNL     1      31.850  54.015  40.334  1.00  0.00    -0.279 N 
HETATM    3  H   UNL     1      32.591  54.707  40.285  1.00  0.00     0.189 HD
HETATM    4  N   UNL     1      30.679  54.377  40.893  1.00  0.00    -0.148 NA
HETATM    5  C   UNL     1      29.954  53.272  40.780  1.00  0.00     0.199 A 
HETATM    6  C   UNL     1      30.630  52.198  40.196  1.00  0.00     0.035 A 
HETATM    7  C   UNL     1      29.949  50.885  40.009  1.00  0.00     0.107 A 
HETATM    8  C   UNL     1      28.487  50.964  40.447  1.00  0.00     0.081 A 
HETATM    9  C   UNL     1      27.691  49.803  40.219  1.00  0.00     0.100 C 
HETATM   10  N   UNL     1      27.045  48.854  40.052  1.00  0.00    -0.191 NA
HETATM   11  C   UNL     1      27.938  52.080  40.996  1.00  0.00     0.140 A 
HETATM   12  O   UNL     1      28.680  53.250  41.209  1.00  0.00    -0.277 OA
ENDROOT
BRANCH   7  13
HETATM   13  C   UNL     1      30.754  49.870  40.818  1.00  0.00    -0.022 A 
HETATM   14  C   UNL     1      31.182  48.647  40.268  1.00  0.00     0.041 A 
HETATM   15 CL   UNL     1      30.855  48.201  38.630  1.00  0.00    -0.084 Cl
HETATM   16  C   UNL     1      31.896  47.724  41.041  1.00  0.00     0.024 A 
HETATM   17  C   UNL     1      32.191  47.996  42.374  1.00  0.00     0.002 A 
HETATM   18  C   UNL     1      31.770  49.192  42.943  1.00  0.00     0.001 A 
HETATM   19  C   UNL     1      31.056  50.117  42.178  1.00  0.00     0.010 A 
ENDBRANCH   7  13
BRANCH  11  20
HETATM   20  N   UNL     1      26.628  52.202  41.404  1.00  0.00    -0.282 NA
HETATM   21  H   UNL     1      26.151  51.336  41.641  1.00  0.00     0.126 HD
HETATM   22  H   UNL     1      26.511  52.933  42.103  1.00  0.00     0.126 HD
ENDBRANCH  11  20
BRANCH   1  23
HETATM   23  C   UNL     1      33.070  52.111  39.205  1.00  0.00     0.029 C 
HETATM   24  C   UNL     1      32.657  51.229  38.028  1.00  0.00     0.016 C 
HETATM   25  C   UNL     1      33.935  51.332  40.196  1.00  0.00     0.016 C 
ENDBRANCH   1  23
TORSDOF 3
ENDMDL
MODEL 5
REMARK VINA RESULT:      -6.9     12.976     13.846
REMARK  3 active torsions:
REMARK  status: ('A' for Active; 'I' for Inactive)
REMARK    1  A    between atoms: C_2  and  C_3 
REMARK    2  A    between atoms: C_9  and  C_10 
REMARK    3  A    between atoms: C_20  and  N_21 
ROOT
HETATM    1  C   UNL     1      27.559  44.064  54.233  1.00  0.00     0.043 A 
HETATM    2  N   UNL     1      28.776  44.068  54.882  1.00  0.00    -0.279 N 
HETATM    3  H   UNL     1      29.079  44.678  55.635  1.00  0.00     0.189 HD
HETATM    4  N   UNL     1      29.633  43.127  54.442  1.00  0.00    -0.148 NA
HETATM    5  C   UNL     1      28.930  42.518  53.497  1.00  0.00     0.199 A 
HETATM    6  C   UNL     1      27.658  43.058  53.288  1.00  0.00     0.035 A 
HETATM    7  C   UNL     1      26.752  42.485  52.253  1.00  0.00     0.107 A 
HETATM    8  C   UNL     1      27.383  41.258  51.596  1.00  0.00     0.081 A 
HETATM    9  C   UNL     1      26.573  40.550  50.661  1.00  0.00     0.100 C 
HETATM   10  N   UNL     1      25.924  39.981  49.884  1.00  0.00    -0.191 NA
HETATM   11  C   UNL     1      28.636  40.822  51.895  1.00  0.00     0.140 A 
HETATM   12  O   UNL     1      29.451  41.474  52.830  1.00  0.00    -0.277 OA
ENDROOT
BRANCH   7  13
HETATM   13  C   UNL     1      26.479  43.612  51.258  1.00  0.00    -0.022 A 
HETATM   14  C   UNL     1      25.194  43.852  50.735  1.00  0.00     0.041 A 
HETATM   15 CL   UNL     1      23.817  42.912  51.191  1.00  0.00    -0.084 Cl
HETATM   16  C   UNL     1      24.977  44.876  49.806  1.00  0.00     0.024 A 
HETATM   17  C   UNL     1      26.034  45.673  49.374  1.00  0.00     0.002 A 
HETATM   18  C   UNL     1      27.314  45.448  49.867  1.00  0.00     0.001 A 
HETATM   19  C   UNL     1      27.537  44.428  50.793  1.00  0.00     0.010 A 
ENDBRANCH   7  13
BRANCH  11  20
HETATM   20  N   UNL     1      29.247  39.722  51.333  1.00  0.00    -0.282 NA
HETATM   21  H   UNL     1      28.881  39.416  50.436  1.00  0.00     0.126 HD
HETATM   22  H   UNL     1      30.262  39.798  51.352  1.00  0.00     0.126 HD
ENDBRANCH  11  20
BRANCH   1  23
HETATM   23  C   UNL     1      26.452  45.013  54.578  1.00  0.00     0.029 C 
HETATM   24  C   UNL     1      25.092  44.317  54.538  1.00  0.00     0.016 C 
HETATM   25  C   UNL     1      26.466  46.241  53.668  1.00  0.00     0.016 C 
ENDBRANCH   1  23
TORSDOF 3
ENDMDL
MODEL 6
REMARK VINA RESULT:      -6.8      2.650      4.535
REMARK  3 active torsions:
REMARK  status: ('A' for Active; 'I' for Inactive)
REMARK    1  A    between atoms: C_2  and  C_3 
REMARK    2  A    between atoms: C_9  and  C_10 
REMARK    3  A    between atoms: C_20  and  N_21 
ROOT
HETATM    1  C   UNL     1      28.911  52.403  40.498  1.00  0.00     0.043 A 
HETATM    2  N   UNL     1      27.731  52.779  41.105  1.00  0.00    -0.279 N 
HETATM    3  H   UNL     1      27.352  53.716  41.205  1.00  0.00     0.189 HD
HETATM    4  N   UNL     1      27.021  51.749  41.604  1.00  0.00    -0.148 NA
HETATM    5  C   UNL     1      27.775  50.704  41.295  1.00  0.00     0.199 A 
HETATM    6  C   UNL     1      28.968  51.028  40.643  1.00  0.00     0.035 A 
HETATM    7  C   UNL     1      29.926  49.960  40.238  1.00  0.00     0.107 A 
HETATM    8  C   UNL     1      29.363  48.576  40.557  1.00  0.00     0.081 A 
HETATM    9  C   UNL     1      30.135  47.459  40.122  1.00  0.00     0.100 C 
HETATM   10  N   UNL     1      30.769  46.547  39.785  1.00  0.00    -0.191 NA
HETATM   11  C   UNL     1      28.174  48.389  41.191  1.00  0.00     0.140 A 
HETATM   12  O   UNL     1      27.373  49.460  41.608  1.00  0.00    -0.277 OA
ENDROOT
BRANCH   7  13
HETATM   13  C   UNL     1      31.227  50.253  40.982  1.00  0.00    -0.022 A 
HETATM   14  C   UNL     1      32.395  50.664  40.311  1.00  0.00     0.041 A 
HETATM   15 CL   UNL     1      32.449  50.892  38.599  1.00  0.00    -0.084 Cl
HETATM   16  C   UNL     1      33.581  50.901  41.016  1.00  0.00     0.024 A 
HETATM   17  C   UNL     1      33.630  50.728  42.396  1.00  0.00     0.002 A 
HETATM   18  C   UNL     1      32.493  50.313  43.080  1.00  0.00     0.001 A 
HETATM   19  C   UNL     1      31.307  50.073  42.383  1.00  0.00     0.010 A 
ENDBRANCH   7  13
BRANCH  11  20
HETATM   20  N   UNL     1      27.623  47.164  41.498  1.00  0.00    -0.282 NA
HETATM   21  H   UNL     1      28.261  46.470  41.880  1.00  0.00     0.126 HD
HETATM   22  H   UNL     1      26.759  47.255  42.028  1.00  0.00     0.126 HD
ENDBRANCH  11  20
BRANCH   1  23
HETATM   23  C   UNL     1      29.844  53.386  39.859  1.00  0.00     0.029 C 
HETATM   24  C   UNL     1      30.857  53.926  40.867  1.00  0.00     0.016 C 
HETATM   25  C   UNL     1      29.079  54.526  39.187  1.00  0.00     0.016 C 
ENDBRANCH   1  23
TORSDOF 3
ENDMDL
MODEL 7
REMARK VINA RESULT:      -6.7      2.368      4.667
REMARK  3 active torsions:
REMARK  status: ('A' for Active; 'I' for Inactive)
REMARK    1  A    between atoms: C_2  and  C_3 
REMARK    2  A    between atoms: C_9  and  C_10 
REMARK    3  A    between atoms: C_20  and  N_21 
ROOT
HETATM    1  C   UNL     1      30.476  48.904  41.027  1.00  0.00     0.043 A 
HETATM    2  N   UNL     1      30.422  48.466  42.333  1.00  0.00    -0.279 N 
HETATM    3  H   UNL     1      29.801  47.768  42.733  1.00  0.00     0.189 HD
HETATM    4  N   UNL     1      31.327  49.049  43.142  1.00  0.00    -0.148 NA
HETATM    5  C   UNL     1      31.963  49.869  42.317  1.00  0.00     0.199 A 
HETATM    6  C   UNL     1      31.476  49.859  41.007  1.00  0.00     0.035 A 
HETATM    7  C   UNL     1      32.085  50.734  39.965  1.00  0.00     0.107 A 
HETATM    8  C   UNL     1      33.284  51.495  40.527  1.00  0.00     0.081 A 
HETATM    9  C   UNL     1      34.024  52.289  39.602  1.00  0.00     0.100 C 
HETATM   10  N   UNL     1      34.619  52.950  38.857  1.00  0.00    -0.191 NA
HETATM   11  C   UNL     1      33.669  51.412  41.829  1.00  0.00     0.140 A 
HETATM   12  O   UNL     1      32.985  50.621  42.761  1.00  0.00    -0.277 OA
ENDROOT
BRANCH   7  13
HETATM   13  C   UNL     1      30.970  51.661  39.486  1.00  0.00    -0.022 A 
HETATM   14  C   UNL     1      30.402  52.642  40.322  1.00  0.00     0.041 A 
HETATM   15 CL   UNL     1      30.933  52.895  41.947  1.00  0.00    -0.084 Cl
HETATM   16  C   UNL     1      29.363  53.461  39.863  1.00  0.00     0.024 A 
HETATM   17  C   UNL     1      28.865  53.314  38.571  1.00  0.00     0.002 A 
HETATM   18  C   UNL     1      29.402  52.346  37.731  1.00  0.00     0.001 A 
HETATM   19  C   UNL     1      30.437  51.525  38.182  1.00  0.00     0.010 A 
ENDBRANCH   7  13
BRANCH  11  20
HETATM   20  N   UNL     1      34.742  52.076  42.382  1.00  0.00    -0.282 NA
HETATM   21  H   UNL     1      35.038  52.924  41.906  1.00  0.00     0.126 HD
HETATM   22  H   UNL     1      34.644  52.190  43.389  1.00  0.00     0.126 HD
ENDBRANCH  11  20
BRANCH   1  23
HETATM   23  C   UNL     1      29.573  48.372  39.954  1.00  0.00     0.029 C 
HETATM   24  C   UNL     1      28.175  48.979  40.055  1.00  0.00     0.016 C 
HETATM   25  C   UNL     1      29.511  46.844  39.986  1.00  0.00     0.016 C 
ENDBRANCH   1  23
TORSDOF 3
ENDMDL
MODEL 8
REMARK VINA RESULT:      -6.7     12.004     13.127
REMARK  3 active torsions:
REMARK  status: ('A' for Active; 'I' for Inactive)
REMARK    1  A    between atoms: C_2  and  C_3 
REMARK    2  A    between atoms: C_9  and  C_10 
REMARK    3  A    between atoms: C_20  and  N_21 
ROOT
HETATM    1  C   UNL     1      21.864  49.305  48.687  1.00  0.00     0.043 A 
HETATM    2  N   UNL     1      22.951  48.487  48.461  1.00  0.00    -0.279 N 
HETATM    3  H   UNL     1      23.932  48.746  48.435  1.00  0.00     0.189 HD
HETATM    4  N   UNL     1      22.630  47.193  48.267  1.00  0.00    -0.148 NA
HETATM    5  C   UNL     1      21.309  47.206  48.380  1.00  0.00     0.199 A 
HETATM    6  C   UNL     1      20.762  48.472  48.607  1.00  0.00     0.035 A 
HETATM    7  C   UNL     1      19.289  48.648  48.748  1.00  0.00     0.107 A 
HETATM    8  C   UNL     1      18.573  47.299  48.697  1.00  0.00     0.081 A 
HETATM    9  C   UNL     1      17.166  47.317  48.928  1.00  0.00     0.100 C 
HETATM   10  N   UNL     1      16.018  47.329  49.098  1.00  0.00    -0.191 NA
HETATM   11  C   UNL     1      19.222  46.125  48.479  1.00  0.00     0.140 A 
HETATM   12  O   UNL     1      20.608  46.063  48.277  1.00  0.00    -0.277 OA
ENDROOT
BRANCH   7  13
HETATM   13  C   UNL     1      18.864  49.585  47.618  1.00  0.00    -0.022 A 
HETATM   14  C   UNL     1      18.297  50.849  47.870  1.00  0.00     0.041 A 
HETATM   15 CL   UNL     1      18.056  51.455  49.471  1.00  0.00    -0.084 Cl
HETATM   16  C   UNL     1      17.893  51.676  46.815  1.00  0.00     0.024 A 
HETATM   17  C   UNL     1      18.038  51.260  45.495  1.00  0.00     0.002 A 
HETATM   18  C   UNL     1      18.585  50.012  45.222  1.00  0.00     0.001 A 
HETATM   19  C   UNL     1      18.989  49.181  46.269  1.00  0.00     0.010 A 
ENDBRANCH   7  13
BRANCH  11  20
HETATM   20  N   UNL     1      18.623  44.885  48.427  1.00  0.00    -0.282 NA
HETATM   21  H   UNL     1      18.186  44.563  49.286  1.00  0.00     0.126 HD
HETATM   22  H   UNL     1      18.030  44.781  47.607  1.00  0.00     0.126 HD
ENDBRANCH  11  20
BRANCH   1  23
HETATM   23  C   UNL     1      21.995  50.776  48.947  1.00  0.00     0.029 C 
HETATM   24  C   UNL     1      23.421  51.260  48.690  1.00  0.00     0.016 C 
HETATM   25  C   UNL     1      21.542  51.133  50.363  1.00  0.00     0.016 C 
ENDBRANCH   1  23
TORSDOF 3
ENDMDL
MODEL 9
REMARK VINA RESULT:      -6.6      1.664      2.093
REMARK  3 active torsions:
REMARK  status: ('A' for Active; 'I' for Inactive)
REMARK    1  A    between atoms: C_2  and  C_3 
REMARK    2  A    between atoms: C_9  and  C_10 
REMARK    3  A    between atoms: C_20  and  N_21 
ROOT
HETATM    1  C   UNL     1      33.090  50.207  42.229  1.00  0.00     0.043 A 
HETATM    2  N   UNL     1      34.239  49.548  41.844  1.00  0.00    -0.279 N 
HETATM    3  H   UNL     1      35.201  49.802  42.045  1.00  0.00     0.189 HD
HETATM    4  N   UNL     1      34.013  48.431  41.127  1.00  0.00    -0.148 NA
HETATM    5  C   UNL     1      32.689  48.390  41.067  1.00  0.00     0.199 A 
HETATM    6  C   UNL     1      32.052  49.464  41.695  1.00  0.00     0.035 A 
HETATM    7  C   UNL     1      30.565  49.563  41.705  1.00  0.00     0.107 A 
HETATM    8  C   UNL     1      29.935  48.337  41.047  1.00  0.00     0.081 A 
HETATM    9  C   UNL     1      28.512  48.254  41.087  1.00  0.00     0.100 C 
HETATM   10  N   UNL     1      27.353  48.193  41.101  1.00  0.00    -0.191 NA
HETATM   11  C   UNL     1      30.668  47.344  40.476  1.00  0.00     0.140 A 
HETATM   12  O   UNL     1      32.069  47.375  40.443  1.00  0.00    -0.277 OA
ENDROOT
BRANCH   7  13
HETATM   13  C   UNL     1      30.221  50.864  40.981  1.00  0.00    -0.022 A 
HETATM   14  C   UNL     1      30.511  51.059  39.617  1.00  0.00     0.041 A 
HETATM   15 CL   UNL     1      31.256  49.840  38.644  1.00  0.00    -0.084 Cl
HETATM   16  C   UNL     1      30.208  52.271  38.986  1.00  0.00     0.024 A 
HETATM   17  C   UNL     1      29.619  53.312  39.700  1.00  0.00     0.002 A 
HETATM   18  C   UNL     1      29.333  53.147  41.050  1.00  0.00     0.001 A 
HETATM   19  C   UNL     1      29.634  51.941  41.686  1.00  0.00     0.010 A 
ENDBRANCH   7  13
BRANCH  11  20
HETATM   20  N   UNL     1      30.148  46.220  39.874  1.00  0.00    -0.282 NA
HETATM   21  H   UNL     1      30.606  45.340  40.097  1.00  0.00     0.126 HD
HETATM   22  H   UNL     1      29.133  46.179  39.950  1.00  0.00     0.126 HD
ENDBRANCH  11  20
BRANCH   1  23
HETATM   23  C   UNL     1      33.110  51.460  43.052  1.00  0.00     0.029 C 
HETATM   24  C   UNL     1      34.536  51.847  43.439  1.00  0.00     0.016 C 
HETATM   25  C   UNL     1      32.223  51.327  44.290  1.00  0.00     0.016 C 
ENDBRANCH   1  23
TORSDOF 3
ENDMDL
MODEL 10
REMARK VINA RESULT:      -6.4     11.970     13.238
REMARK  3 active torsions:
REMARK  status: ('A' for Active; 'I' for Inactive)
REMARK    1  A    between atoms: C_2  and  C_3 
REMARK    2  A    between atoms: C_9  and  C_10 
REMARK    3  A    between atoms: C_20  and  N_21 
ROOT
HETATM    1  C   UNL     1      20.669  49.552  49.733  1.00  0.00     0.043 A 
HETATM    2  N   UNL     1      22.002  49.888  49.847  1.00  0.00    -0.279 N 
HETATM    3  H   UNL     1      22.429  50.532  50.506  1.00  0.00     0.189 HD
HETATM    4  N   UNL     1      22.802  49.253  48.969  1.00  0.00    -0.148 NA
HETATM    5  C   UNL     1      21.946  48.500  48.294  1.00  0.00     0.199 A 
HETATM    6  C   UNL     1      20.613  48.652  48.684  1.00  0.00     0.035 A 
HETATM    7  C   UNL     1      19.532  47.876  48.011  1.00  0.00     0.107 A 
HETATM    8  C   UNL     1      20.116  46.911  46.982  1.00  0.00     0.081 A 
HETATM    9  C   UNL     1      19.196  46.030  46.341  1.00  0.00     0.100 C 
HETATM   10  N   UNL     1      18.447  45.325  45.804  1.00  0.00    -0.191 NA
HETATM   11  C   UNL     1      21.444  46.848  46.696  1.00  0.00     0.140 A 
HETATM   12  O   UNL     1      22.384  47.676  47.325  1.00  0.00    -0.277 OA
ENDROOT
BRANCH   7  13
HETATM   13  C   UNL     1      18.595  48.909  47.387  1.00  0.00    -0.022 A 
HETATM   14  C   UNL     1      17.202  48.873  47.591  1.00  0.00     0.041 A 
HETATM   15 CL   UNL     1      16.440  47.677  48.579  1.00  0.00    -0.084 Cl
HETATM   16  C   UNL     1      16.364  49.817  46.986  1.00  0.00     0.024 A 
HETATM   17  C   UNL     1      16.894  50.808  46.163  1.00  0.00     0.002 A 
HETATM   18  C   UNL     1      18.265  50.857  45.938  1.00  0.00     0.001 A 
HETATM   19  C   UNL     1      19.106  49.918  46.538  1.00  0.00     0.010 A 
ENDBRANCH   7  13
BRANCH  11  20
HETATM   20  N   UNL     1      22.019  45.995  45.780  1.00  0.00    -0.282 NA
HETATM   21  H   UNL     1      22.691  45.328  46.150  1.00  0.00     0.126 HD
HETATM   22  H   UNL     1      21.328  45.573  45.163  1.00  0.00     0.126 HD
ENDBRANCH  11  20
BRANCH   1  23
HETATM   23  C   UNL     1      19.609  50.124  50.625  1.00  0.00     0.029 C 
HETATM   24  C   UNL     1      18.646  49.040  51.108  1.00  0.00     0.016 C 
HETATM   25  C   UNL     1      18.854  51.260  49.935  1.00  0.00     0.016 C 
ENDBRANCH   1  23
TORSDOF 3
ENDMDL
