MODEL 1
REMARK VINA RESULT:      -9.3      0.000      0.000
REMARK  7 active torsions:
REMARK  status: ('A' for Active; 'I' for Inactive)
REMARK    1  A    between atoms: C_2  and  N_3 
REMARK    2  A    between atoms: C_4  and  C_5 
REMARK       I    between atoms: C_5  and  N_6 
REMARK    3  A    between atoms: N_6  and  C_7 
REMARK    4  A    between atoms: C_7  and  C_8 
REMARK    5  A    between atoms: C_19  and  N_20 
REMARK       I    between atoms: N_20  and  C_21 
REMARK    6  A    between atoms: C_21  and  C_22 
REMARK    7  A    between atoms: C_25  and  O_26 
ROOT
HETATM    1  N   UNL     1      23.126  46.412  48.799  1.00  0.00    -0.342 N 
HETATM    2  C   UNL     1      23.043  47.785  48.989  1.00  0.00     0.104 A 
HETATM    3  C   UNL     1      24.020  48.103  49.921  1.00  0.00     0.049 A 
HETATM    4  C   UNL     1      24.673  46.916  50.330  1.00  0.00    -0.005 A 
HETATM    5  C   UNL     1      24.083  45.861  49.638  1.00  0.00     0.045 A 
HETATM    6  C   UNL     1      25.720  46.653  51.238  1.00  0.00     0.043 A 
HETATM    7  C   UNL     1      26.156  45.343  51.450  1.00  0.00     0.035 A 
HETATM    8  C   UNL     1      25.527  44.299  50.765  1.00  0.00     0.032 A 
HETATM    9  C   UNL     1      24.492  44.535  49.849  1.00  0.00     0.033 A 
ENDROOT
BRANCH   7  10
HETATM   10  N   UNL     1      27.201  45.005  52.339  1.00  0.00    -0.323 N 
HETATM   11  C   UNL     1      27.139  44.993  53.721  1.00  0.00     0.256 C 
HETATM   12  O   UNL     1      26.198  45.338  54.423  1.00  0.00    -0.267 OA
HETATM   13  H   UNL     1      28.107  44.847  51.917  1.00  0.00     0.169 HD
BRANCH  11  14
HETATM   14  C   UNL     1      28.385  44.549  54.401  1.00  0.00     0.032 A 
HETATM   15  C   UNL     1      28.885  45.328  55.448  1.00  0.00     0.020 A 
HETATM   16  C   UNL     1      30.031  44.921  56.135  1.00  0.00     0.038 A 
HETATM   17  C   UNL     1      30.664  43.722  55.804  1.00  0.00     0.068 A 
HETATM   18  C   UNL     1      30.169  42.946  54.752  1.00  0.00     0.038 A 
HETATM   19  C   UNL     1      29.028  43.356  54.052  1.00  0.00     0.020 A 
BRANCH  17  20
HETATM   20  O   UNL     1      31.761  43.421  56.563  1.00  0.00    -0.356 OA
HETATM   21  C   UNL     1      31.846  44.074  57.825  1.00  0.00     0.210 C 
ENDBRANCH  17  20
ENDBRANCH  11  14
ENDBRANCH   7  10
BRANCH   2  22
HETATM   22  C   UNL     1      22.119  48.681  48.312  1.00  0.00     0.268 C 
HETATM   23  N   UNL     1      20.868  48.729  48.893  1.00  0.00    -0.353 N 
HETATM   24  H   UNL     1      20.658  48.043  49.604  1.00  0.00     0.162 HD
HETATM   25  O   UNL     1      22.408  49.337  47.317  1.00  0.00    -0.266 OA
BRANCH  23  26
HETATM   26  C   UNL     1      19.759  49.432  48.274  1.00  0.00     0.160 C 
BRANCH  26  27
HETATM   27  C   UNL     1      18.921  50.282  49.270  1.00  0.00     0.073 C 
HETATM   28  O   UNL     1      17.631  50.590  48.706  1.00  0.00    -0.379 OA
HETATM   29  C   UNL     1      17.687  51.885  48.089  1.00  0.00     0.169 C 
HETATM   30  C   UNL     1      19.072  52.453  48.326  1.00  0.00     0.029 C 
HETATM   31  C   UNL     1      19.569  51.647  49.503  1.00  0.00     0.041 C 
HETATM   32  C   UNL     1      18.702  49.537  50.585  1.00  0.00     0.047 C 
ENDBRANCH  26  27
ENDBRANCH  23  26
ENDBRANCH   2  22
BRANCH   1  33
HETATM   33  C   UNL     1      22.310  45.642  47.869  1.00  0.00     0.125 C 
HETATM   34  C   UNL     1      21.072  45.058  48.526  1.00  0.00     0.027 C 
ENDBRANCH   1  33
TORSDOF 7
ENDMDL
MODEL 2
REMARK VINA RESULT:      -9.0      0.795      1.257
REMARK  7 active torsions:
REMARK  status: ('A' for Active; 'I' for Inactive)
REMARK    1  A    between atoms: C_2  and  N_3 
REMARK    2  A    between atoms: C_4  and  C_5 
REMARK       I    between atoms: C_5  and  N_6 
REMARK    3  A    between atoms: N_6  and  C_7 
REMARK    4  A    between atoms: C_7  and  C_8 
REMARK    5  A    between atoms: C_19  and  N_20 
REMARK       I    between atoms: N_20  and  C_21 
REMARK    6  A    between atoms: C_21  and  C_22 
REMARK    7  A    between atoms: C_25  and  O_26 
ROOT
HETATM    1  N   UNL     1      23.061  47.090  48.640  1.00  0.00    -0.342 N 
HETATM    2  C   UNL     1      23.205  48.468  48.718  1.00  0.00     0.104 A 
HETATM    3  C   UNL     1      24.237  48.696  49.618  1.00  0.00     0.049 A 
HETATM    4  C   UNL     1      24.694  47.454  50.120  1.00  0.00    -0.005 A 
HETATM    5  C   UNL     1      23.931  46.458  49.518  1.00  0.00     0.045 A 
HETATM    6  C   UNL     1      25.700  47.098  51.043  1.00  0.00     0.043 A 
HETATM    7  C   UNL     1      25.921  45.755  51.359  1.00  0.00     0.035 A 
HETATM    8  C   UNL     1      25.120  44.776  50.763  1.00  0.00     0.032 A 
HETATM    9  C   UNL     1      24.121  45.104  49.834  1.00  0.00     0.033 A 
ENDROOT
BRANCH   7  10
HETATM   10  N   UNL     1      26.913  45.323  52.268  1.00  0.00    -0.323 N 
HETATM   11  C   UNL     1      26.926  45.532  53.636  1.00  0.00     0.256 C 
HETATM   12  O   UNL     1      26.127  46.184  54.294  1.00  0.00    -0.267 OA
HETATM   13  H   UNL     1      27.735  44.900  51.859  1.00  0.00     0.169 HD
BRANCH  11  14
HETATM   14  C   UNL     1      28.078  44.921  54.352  1.00  0.00     0.032 A 
HETATM   15  C   UNL     1      28.483  43.634  53.986  1.00  0.00     0.020 A 
HETATM   16  C   UNL     1      29.585  43.046  54.609  1.00  0.00     0.038 A 
HETATM   17  C   UNL     1      30.307  43.748  55.576  1.00  0.00     0.068 A 
HETATM   18  C   UNL     1      29.899  45.031  55.948  1.00  0.00     0.038 A 
HETATM   19  C   UNL     1      28.787  45.621  55.335  1.00  0.00     0.020 A 
BRANCH  17  20
HETATM   20  O   UNL     1      31.379  43.074  56.096  1.00  0.00    -0.356 OA
HETATM   21  C   UNL     1      31.852  43.529  57.358  1.00  0.00     0.210 C 
ENDBRANCH  17  20
ENDBRANCH  11  14
ENDBRANCH   7  10
BRANCH   2  22
HETATM   22  C   UNL     1      22.428  49.447  47.974  1.00  0.00     0.268 C 
HETATM   23  N   UNL     1      21.116  49.544  48.390  1.00  0.00    -0.353 N 
HETATM   24  H   UNL     1      20.778  48.842  49.033  1.00  0.00     0.162 HD
HETATM   25  O   UNL     1      22.880  50.126  47.059  1.00  0.00    -0.266 OA
BRANCH  23  26
HETATM   26  C   UNL     1      20.138  50.338  47.669  1.00  0.00     0.160 C 
BRANCH  26  27
HETATM   27  C   UNL     1      19.143  51.096  48.592  1.00  0.00     0.073 C 
HETATM   28  O   UNL     1      17.902  50.371  48.697  1.00  0.00    -0.379 OA
HETATM   29  C   UNL     1      16.971  50.895  47.739  1.00  0.00     0.169 C 
HETATM   30  C   UNL     1      17.640  52.055  47.029  1.00  0.00     0.029 C 
HETATM   31  C   UNL     1      18.746  52.441  47.981  1.00  0.00     0.041 C 
HETATM   32  C   UNL     1      19.715  51.270  49.998  1.00  0.00     0.047 C 
ENDBRANCH  26  27
ENDBRANCH  23  26
ENDBRANCH   2  22
BRANCH   1  33
HETATM   33  C   UNL     1      22.116  46.391  47.779  1.00  0.00     0.125 C 
HETATM   34  C   UNL     1      20.838  46.011  48.504  1.00  0.00     0.027 C 
ENDBRANCH   1  33
TORSDOF 7
ENDMDL
MODEL 3
REMARK VINA RESULT:      -8.5      1.664      2.473
REMARK  7 active torsions:
REMARK  status: ('A' for Active; 'I' for Inactive)
REMARK    1  A    between atoms: C_2  and  N_3 
REMARK    2  A    between atoms: C_4  and  C_5 
REMARK       I    between atoms: C_5  and  N_6 
REMARK    3  A    between atoms: N_6  and  C_7 
REMARK    4  A    between atoms: C_7  and  C_8 
REMARK    5  A    between atoms: C_19  and  N_20 
REMARK       I    between atoms: N_20  and  C_21 
REMARK    6  A    between atoms: C_21  and  C_22 
REMARK    7  A    between atoms: C_25  and  O_26 
ROOT
HETATM    1  N   UNL     1      23.272  48.641  48.358  1.00  0.00    -0.342 N 
HETATM    2  C   UNL     1      22.183  47.783  48.311  1.00  0.00     0.104 A 
HETATM    3  C   UNL     1      22.505  46.708  49.127  1.00  0.00     0.049 A 
HETATM    4  C   UNL     1      23.811  46.894  49.640  1.00  0.00    -0.005 A 
HETATM    5  C   UNL     1      24.290  48.096  49.128  1.00  0.00     0.045 A 
HETATM    6  C   UNL     1      24.628  46.130  50.501  1.00  0.00     0.043 A 
HETATM    7  C   UNL     1      25.912  46.572  50.829  1.00  0.00     0.035 A 
HETATM    8  C   UNL     1      26.380  47.768  50.277  1.00  0.00     0.032 A 
HETATM    9  C   UNL     1      25.583  48.550  49.427  1.00  0.00     0.033 A 
ENDROOT
BRANCH   7  10
HETATM   10  N   UNL     1      26.783  45.864  51.688  1.00  0.00    -0.323 N 
HETATM   11  C   UNL     1      27.239  44.569  51.516  1.00  0.00     0.256 C 
HETATM   12  O   UNL     1      26.920  43.781  50.636  1.00  0.00    -0.267 OA
HETATM   13  H   UNL     1      27.017  46.324  52.557  1.00  0.00     0.169 HD
BRANCH  11  14
HETATM   14  C   UNL     1      28.188  44.096  52.559  1.00  0.00     0.032 A 
HETATM   15  C   UNL     1      28.130  44.682  53.827  1.00  0.00     0.020 A 
HETATM   16  C   UNL     1      28.978  44.234  54.842  1.00  0.00     0.038 A 
HETATM   17  C   UNL     1      29.864  43.181  54.609  1.00  0.00     0.068 A 
HETATM   18  C   UNL     1      29.927  42.599  53.340  1.00  0.00     0.038 A 
HETATM   19  C   UNL     1      29.088  43.052  52.315  1.00  0.00     0.020 A 
BRANCH  17  20
HETATM   20  O   UNL     1      30.624  42.819  55.687  1.00  0.00    -0.356 OA
HETATM   21  C   UNL     1      31.125  43.885  56.485  1.00  0.00     0.210 C 
ENDBRANCH  17  20
ENDBRANCH  11  14
ENDBRANCH   7  10
BRANCH   2  22
HETATM   22  C   UNL     1      20.956  48.008  47.563  1.00  0.00     0.268 C 
HETATM   23  N   UNL     1      20.149  48.989  48.103  1.00  0.00    -0.353 N 
HETATM   24  H   UNL     1      20.388  49.335  49.022  1.00  0.00     0.162 HD
HETATM   25  O   UNL     1      20.651  47.390  46.549  1.00  0.00    -0.266 OA
BRANCH  23  26
HETATM   26  C   UNL     1      18.812  49.247  47.603  1.00  0.00     0.160 C 
BRANCH  26  27
HETATM   27  C   UNL     1      17.710  49.194  48.699  1.00  0.00     0.073 C 
HETATM   28  O   UNL     1      16.593  50.025  48.329  1.00  0.00    -0.379 OA
HETATM   29  C   UNL     1      16.745  51.313  48.945  1.00  0.00     0.169 C 
HETATM   30  C   UNL     1      17.997  51.275  49.799  1.00  0.00     0.029 C 
HETATM   31  C   UNL     1      18.215  49.796  50.010  1.00  0.00     0.041 C 
HETATM   32  C   UNL     1      17.199  47.768  48.899  1.00  0.00     0.047 C 
ENDBRANCH  26  27
ENDBRANCH  23  26
ENDBRANCH   2  22
BRANCH   1  33
HETATM   33  C   UNL     1      23.360  49.927  47.677  1.00  0.00     0.125 C 
HETATM   34  C   UNL     1      22.985  51.090  48.578  1.00  0.00     0.027 C 
ENDBRANCH   1  33
TORSDOF 7
ENDMDL
MODEL 4
REMARK VINA RESULT:      -8.4      3.966     12.462
REMARK  7 active torsions:
REMARK  status: ('A' for Active; 'I' for Inactive)
REMARK    1  A    between atoms: C_2  and  N_3 
REMARK    2  A    between atoms: C_4  and  C_5 
REMARK       I    between atoms: C_5  and  N_6 
REMARK    3  A    between atoms: N_6  and  C_7 
REMARK    4  A    between atoms: C_7  and  C_8 
REMARK    5  A    between atoms: C_19  and  N_20 
REMARK       I    between atoms: N_20  and  C_21 
REMARK    6  A    between atoms: C_21  and  C_22 
REMARK    7  A    between atoms: C_25  and  O_26 
ROOT
HETATM    1  N   UNL     1      21.862  49.306  48.116  1.00  0.00    -0.342 N 
HETATM    2  C   UNL     1      21.493  47.985  48.330  1.00  0.00     0.104 A 
HETATM    3  C   UNL     1      20.155  48.014  48.698  1.00  0.00     0.049 A 
HETATM    4  C   UNL     1      19.719  49.359  48.746  1.00  0.00    -0.005 A 
HETATM    5  C   UNL     1      20.806  50.159  48.406  1.00  0.00     0.045 A 
HETATM    6  C   UNL     1      18.482  49.962  49.057  1.00  0.00     0.043 A 
HETATM    7  C   UNL     1      18.351  51.353  49.032  1.00  0.00     0.035 A 
HETATM    8  C   UNL     1      19.466  52.135  48.717  1.00  0.00     0.032 A 
HETATM    9  C   UNL     1      20.704  51.559  48.394  1.00  0.00     0.033 A 
ENDROOT
BRANCH   7  10
HETATM   10  N   UNL     1      17.143  52.026  49.326  1.00  0.00    -0.323 N 
HETATM   11  C   UNL     1      16.184  52.435  48.417  1.00  0.00     0.256 C 
HETATM   12  O   UNL     1      16.238  52.356  47.197  1.00  0.00    -0.267 OA
HETATM   13  H   UNL     1      17.019  52.313  50.287  1.00  0.00     0.169 HD
BRANCH  11  14
HETATM   14  C   UNL     1      14.987  53.082  49.017  1.00  0.00     0.032 A 
HETATM   15  C   UNL     1      14.684  52.811  50.355  1.00  0.00     0.020 A 
HETATM   16  C   UNL     1      13.591  53.431  50.961  1.00  0.00     0.038 A 
HETATM   17  C   UNL     1      12.814  54.348  50.251  1.00  0.00     0.068 A 
HETATM   18  C   UNL     1      13.112  54.614  48.912  1.00  0.00     0.038 A 
HETATM   19  C   UNL     1      14.199  53.986  48.294  1.00  0.00     0.020 A 
BRANCH  17  20
HETATM   20  O   UNL     1      11.786  54.905  50.962  1.00  0.00    -0.356 OA
HETATM   21  C   UNL     1      11.786  56.325  51.052  1.00  0.00     0.210 C 
ENDBRANCH  17  20
ENDBRANCH  11  14
ENDBRANCH   7  10
BRANCH   2  22
HETATM   22  C   UNL     1      22.357  46.826  48.171  1.00  0.00     0.268 C 
HETATM   23  N   UNL     1      23.032  46.475  49.322  1.00  0.00    -0.353 N 
HETATM   24  H   UNL     1      22.999  47.122  50.097  1.00  0.00     0.162 HD
HETATM   25  O   UNL     1      22.487  46.210  47.118  1.00  0.00    -0.266 OA
BRANCH  23  26
HETATM   26  C   UNL     1      24.064  45.454  49.328  1.00  0.00     0.160 C 
BRANCH  26  27
HETATM   27  C   UNL     1      25.031  45.546  50.541  1.00  0.00     0.073 C 
HETATM   28  O   UNL     1      25.044  46.885  51.073  1.00  0.00    -0.379 OA
HETATM   29  C   UNL     1      26.148  47.604  50.502  1.00  0.00     0.169 C 
HETATM   30  C   UNL     1      26.909  46.649  49.605  1.00  0.00     0.029 C 
HETATM   31  C   UNL     1      26.476  45.294  50.110  1.00  0.00     0.041 C 
HETATM   32  C   UNL     1      24.608  44.593  51.658  1.00  0.00     0.047 C 
ENDBRANCH  26  27
ENDBRANCH  23  26
ENDBRANCH   2  22
BRANCH   1  33
HETATM   33  C   UNL     1      23.177  49.750  47.674  1.00  0.00     0.125 C 
HETATM   34  C   UNL     1      24.055  50.208  48.825  1.00  0.00     0.027 C 
ENDBRANCH   1  33
TORSDOF 7
ENDMDL
MODEL 5
REMARK VINA RESULT:      -8.3      2.127     11.640
REMARK  7 active torsions:
REMARK  status: ('A' for Active; 'I' for Inactive)
REMARK    1  A    between atoms: C_2  and  N_3 
REMARK    2  A    between atoms: C_4  and  C_5 
REMARK       I    between atoms: C_5  and  N_6 
REMARK    3  A    between atoms: N_6  and  C_7 
REMARK    4  A    between atoms: C_7  and  C_8 
REMARK    5  A    between atoms: C_19  and  N_20 
REMARK       I    between atoms: N_20  and  C_21 
REMARK    6  A    between atoms: C_21  and  C_22 
REMARK    7  A    between atoms: C_25  and  O_26 
ROOT
HETATM    1  N   UNL     1      25.579  48.085  49.454  1.00  0.00    -0.342 N 
HETATM    2  C   UNL     1      25.243  46.767  49.725  1.00  0.00     0.104 A 
HETATM    3  C   UNL     1      23.874  46.669  49.519  1.00  0.00     0.049 A 
HETATM    4  C   UNL     1      23.370  47.941  49.160  1.00  0.00    -0.005 A 
HETATM    5  C   UNL     1      24.445  48.824  49.149  1.00  0.00     0.045 A 
HETATM    6  C   UNL     1      22.078  48.413  48.844  1.00  0.00     0.043 A 
HETATM    7  C   UNL     1      21.878  49.761  48.533  1.00  0.00     0.035 A 
HETATM    8  C   UNL     1      22.970  50.633  48.558  1.00  0.00     0.032 A 
HETATM    9  C   UNL     1      24.265  50.186  48.859  1.00  0.00     0.033 A 
ENDROOT
BRANCH   7  10
HETATM   10  N   UNL     1      20.616  50.303  48.202  1.00  0.00    -0.323 N 
HETATM   11  C   UNL     1      19.768  50.998  49.046  1.00  0.00     0.256 C 
HETATM   12  O   UNL     1      19.920  51.206  50.242  1.00  0.00    -0.267 OA
HETATM   13  H   UNL     1      20.266  50.078  47.280  1.00  0.00     0.169 HD
BRANCH  11  14
HETATM   14  C   UNL     1      18.519  51.494  48.410  1.00  0.00     0.032 A 
HETATM   15  C   UNL     1      18.380  51.366  47.025  1.00  0.00     0.020 A 
HETATM   16  C   UNL     1      17.204  51.785  46.400  1.00  0.00     0.038 A 
HETATM   17  C   UNL     1      16.149  52.304  47.153  1.00  0.00     0.068 A 
HETATM   18  C   UNL     1      16.290  52.438  48.537  1.00  0.00     0.038 A 
HETATM   19  C   UNL     1      17.471  52.031  49.168  1.00  0.00     0.020 A 
BRANCH  17  20
HETATM   20  O   UNL     1      15.044  52.657  46.429  1.00  0.00    -0.356 OA
HETATM   21  C   UNL     1      14.328  53.795  46.894  1.00  0.00     0.210 C 
ENDBRANCH  17  20
ENDBRANCH  11  14
ENDBRANCH   7  10
BRANCH   2  22
HETATM   22  C   UNL     1      26.170  45.719  50.123  1.00  0.00     0.268 C 
HETATM   23  N   UNL     1      26.172  45.466  51.480  1.00  0.00    -0.353 N 
HETATM   24  H   UNL     1      25.676  46.114  52.075  1.00  0.00     0.162 HD
HETATM   25  O   UNL     1      26.891  45.110  49.339  1.00  0.00    -0.266 OA
BRANCH  23  26
HETATM   26  C   UNL     1      27.141  44.578  52.095  1.00  0.00     0.160 C 
BRANCH  26  27
HETATM   27  C   UNL     1      26.913  44.358  53.617  1.00  0.00     0.073 C 
HETATM   28  O   UNL     1      27.581  45.383  54.378  1.00  0.00    -0.379 OA
HETATM   29  C   UNL     1      28.868  44.897  54.790  1.00  0.00     0.169 C 
HETATM   30  C   UNL     1      28.996  43.464  54.313  1.00  0.00     0.029 C 
HETATM   31  C   UNL     1      27.561  43.055  54.085  1.00  0.00     0.041 C 
HETATM   32  C   UNL     1      25.426  44.398  53.965  1.00  0.00     0.047 C 
ENDBRANCH  26  27
ENDBRANCH  23  26
ENDBRANCH   2  22
BRANCH   1  33
HETATM   33  C   UNL     1      26.928  48.636  49.502  1.00  0.00     0.125 C 
HETATM   34  C   UNL     1      27.123  49.785  48.529  1.00  0.00     0.027 C 
ENDBRANCH   1  33
TORSDOF 7
ENDMDL
MODEL 6
REMARK VINA RESULT:      -8.1      3.555     11.095
REMARK  7 active torsions:
REMARK  status: ('A' for Active; 'I' for Inactive)
REMARK    1  A    between atoms: C_2  and  N_3 
REMARK    2  A    between atoms: C_4  and  C_5 
REMARK       I    between atoms: C_5  and  N_6 
REMARK    3  A    between atoms: N_6  and  C_7 
REMARK    4  A    between atoms: C_7  and  C_8 
REMARK    5  A    between atoms: C_19  and  N_20 
REMARK       I    between atoms: N_20  and  C_21 
REMARK    6  A    between atoms: C_21  and  C_22 
REMARK    7  A    between atoms: C_25  and  O_26 
ROOT
HETATM    1  N   UNL     1      27.589  43.881  52.483  1.00  0.00    -0.342 N 
HETATM    2  C   UNL     1      27.206  42.675  51.912  1.00  0.00     0.104 A 
HETATM    3  C   UNL     1      26.122  42.964  51.095  1.00  0.00     0.049 A 
HETATM    4  C   UNL     1      25.819  44.342  51.201  1.00  0.00    -0.005 A 
HETATM    5  C   UNL     1      26.729  44.898  52.095  1.00  0.00     0.045 A 
HETATM    6  C   UNL     1      24.837  45.163  50.606  1.00  0.00     0.043 A 
HETATM    7  C   UNL     1      24.772  46.523  50.921  1.00  0.00     0.035 A 
HETATM    8  C   UNL     1      25.679  47.050  51.844  1.00  0.00     0.032 A 
HETATM    9  C   UNL     1      26.671  46.257  52.440  1.00  0.00     0.033 A 
ENDROOT
BRANCH   7  10
HETATM   10  N   UNL     1      23.821  47.405  50.361  1.00  0.00    -0.323 N 
HETATM   11  C   UNL     1      24.066  48.408  49.440  1.00  0.00     0.256 C 
HETATM   12  O   UNL     1      25.152  48.759  48.998  1.00  0.00    -0.267 OA
HETATM   13  H   UNL     1      22.888  47.352  50.746  1.00  0.00     0.169 HD
BRANCH  11  14
HETATM   14  C   UNL     1      22.861  49.154  48.989  1.00  0.00     0.032 A 
HETATM   15  C   UNL     1      21.656  48.458  48.863  1.00  0.00     0.020 A 
HETATM   16  C   UNL     1      20.496  49.135  48.482  1.00  0.00     0.038 A 
HETATM   17  C   UNL     1      20.524  50.512  48.254  1.00  0.00     0.068 A 
HETATM   18  C   UNL     1      21.730  51.208  48.373  1.00  0.00     0.038 A 
HETATM   19  C   UNL     1      22.899  50.532  48.744  1.00  0.00     0.020 A 
BRANCH  17  20
HETATM   20  O   UNL     1      19.320  51.063  47.909  1.00  0.00    -0.356 OA
HETATM   21  C   UNL     1      19.059  52.365  48.419  1.00  0.00     0.210 C 
ENDBRANCH  17  20
ENDBRANCH  11  14
ENDBRANCH   7  10
BRANCH   2  22
HETATM   22  C   UNL     1      27.850  41.389  52.131  1.00  0.00     0.268 C 
HETATM   23  N   UNL     1      28.432  40.860  50.997  1.00  0.00    -0.353 N 
HETATM   24  H   UNL     1      28.227  41.309  50.116  1.00  0.00     0.162 HD
HETATM   25  O   UNL     1      27.878  40.815  53.215  1.00  0.00    -0.266 OA
BRANCH  23  26
HETATM   26  C   UNL     1      28.977  39.515  50.969  1.00  0.00     0.160 C 
BRANCH  26  27
HETATM   27  C   UNL     1      28.950  38.857  49.561  1.00  0.00     0.073 C 
HETATM   28  O   UNL     1      28.645  39.839  48.552  1.00  0.00    -0.379 OA
HETATM   29  C   UNL     1      27.236  39.809  48.281  1.00  0.00     0.169 C 
HETATM   30  C   UNL     1      26.625  38.706  49.122  1.00  0.00     0.029 C 
HETATM   31  C   UNL     1      27.815  37.839  49.455  1.00  0.00     0.041 C 
HETATM   32  C   UNL     1      30.299  38.226  49.220  1.00  0.00     0.047 C 
ENDBRANCH  26  27
ENDBRANCH  23  26
ENDBRANCH   2  22
BRANCH   1  33
HETATM   33  C   UNL     1      28.718  44.062  53.387  1.00  0.00     0.125 C 
HETATM   34  C   UNL     1      28.294  44.124  54.843  1.00  0.00     0.027 C 
ENDBRANCH   1  33
TORSDOF 7
ENDMDL
MODEL 7
REMARK VINA RESULT:      -8.0      5.267      9.332
REMARK  7 active torsions:
REMARK  status: ('A' for Active; 'I' for Inactive)
REMARK    1  A    between atoms: C_2  and  N_3 
REMARK    2  A    between atoms: C_4  and  C_5 
REMARK       I    between atoms: C_5  and  N_6 
REMARK    3  A    between atoms: N_6  and  C_7 
REMARK    4  A    between atoms: C_7  and  C_8 
REMARK    5  A    between atoms: C_19  and  N_20 
REMARK       I    between atoms: N_20  and  C_21 
REMARK    6  A    between atoms: C_21  and  C_22 
REMARK    7  A    between atoms: C_25  and  O_26 
ROOT
HETATM    1  N   UNL     1      15.865  52.514  48.084  1.00  0.00    -0.342 N 
HETATM    2  C   UNL     1      15.708  53.151  49.307  1.00  0.00     0.104 A 
HETATM    3  C   UNL     1      16.938  53.068  49.945  1.00  0.00     0.049 A 
HETATM    4  C   UNL     1      17.835  52.344  49.123  1.00  0.00    -0.005 A 
HETATM    5  C   UNL     1      17.141  51.981  47.973  1.00  0.00     0.045 A 
HETATM    6  C   UNL     1      19.187  51.967  49.269  1.00  0.00     0.043 A 
HETATM    7  C   UNL     1      19.821  51.223  48.271  1.00  0.00     0.035 A 
HETATM    8  C   UNL     1      19.094  50.845  47.139  1.00  0.00     0.032 A 
HETATM    9  C   UNL     1      17.752  51.218  46.965  1.00  0.00     0.033 A 
ENDROOT
BRANCH   7  10
HETATM   10  N   UNL     1      21.172  50.815  48.345  1.00  0.00    -0.323 N 
HETATM   11  C   UNL     1      21.642  49.589  48.782  1.00  0.00     0.256 C 
HETATM   12  O   UNL     1      20.985  48.668  49.248  1.00  0.00    -0.267 OA
HETATM   13  H   UNL     1      21.861  51.527  48.144  1.00  0.00     0.169 HD
BRANCH  11  14
HETATM   14  C   UNL     1      23.117  49.420  48.708  1.00  0.00     0.032 A 
HETATM   15  C   UNL     1      23.855  50.333  47.947  1.00  0.00     0.020 A 
HETATM   16  C   UNL     1      25.245  50.227  47.888  1.00  0.00     0.038 A 
HETATM   17  C   UNL     1      25.911  49.235  48.610  1.00  0.00     0.068 A 
HETATM   18  C   UNL     1      25.174  48.318  49.365  1.00  0.00     0.038 A 
HETATM   19  C   UNL     1      23.778  48.411  49.418  1.00  0.00     0.020 A 
BRANCH  17  20
HETATM   20  O   UNL     1      27.273  49.250  48.488  1.00  0.00    -0.356 OA
HETATM   21  C   UNL     1      28.001  48.598  49.522  1.00  0.00     0.210 C 
ENDBRANCH  17  20
ENDBRANCH  11  14
ENDBRANCH   7  10
BRANCH   2  22
HETATM   22  C   UNL     1      14.489  53.785  49.784  1.00  0.00     0.268 C 
HETATM   23  N   UNL     1      14.410  55.130  49.484  1.00  0.00    -0.353 N 
HETATM   24  H   UNL     1      15.241  55.576  49.122  1.00  0.00     0.162 HD
HETATM   25  O   UNL     1      13.607  53.195  50.400  1.00  0.00    -0.266 OA
BRANCH  23  26
HETATM   26  C   UNL     1      13.356  55.976  50.014  1.00  0.00     0.160 C 
BRANCH  26  27
HETATM   27  C   UNL     1      13.847  57.001  51.073  1.00  0.00     0.073 C 
HETATM   28  O   UNL     1      15.117  56.593  51.618  1.00  0.00    -0.379 OA
HETATM   29  C   UNL     1      14.892  55.869  52.837  1.00  0.00     0.169 C 
HETATM   30  C   UNL     1      13.401  55.872  53.110  1.00  0.00     0.029 C 
HETATM   31  C   UNL     1      12.909  57.034  52.279  1.00  0.00     0.041 C 
HETATM   32  C   UNL     1      14.016  58.391  50.460  1.00  0.00     0.047 C 
ENDBRANCH  26  27
ENDBRANCH  23  26
ENDBRANCH   2  22
BRANCH   1  33
HETATM   33  C   UNL     1      14.835  52.394  47.061  1.00  0.00     0.125 C 
HETATM   34  C   UNL     1      14.896  53.514  46.037  1.00  0.00     0.027 C 
ENDBRANCH   1  33
TORSDOF 7
ENDMDL
MODEL 8
REMARK VINA RESULT:      -7.9     13.134     14.272
REMARK  7 active torsions:
REMARK  status: ('A' for Active; 'I' for Inactive)
REMARK    1  A    between atoms: C_2  and  N_3 
REMARK    2  A    between atoms: C_4  and  C_5 
REMARK       I    between atoms: C_5  and  N_6 
REMARK    3  A    between atoms: N_6  and  C_7 
REMARK    4  A    between atoms: C_7  and  C_8 
REMARK    5  A    between atoms: C_19  and  N_20 
REMARK       I    between atoms: N_20  and  C_21 
REMARK    6  A    between atoms: C_21  and  C_22 
REMARK    7  A    between atoms: C_25  and  O_26 
ROOT
HETATM    1  N   UNL     1      31.223  50.444  41.629  1.00  0.00    -0.342 N 
HETATM    2  C   UNL     1      31.800  49.930  40.476  1.00  0.00     0.104 A 
HETATM    3  C   UNL     1      33.171  50.080  40.634  1.00  0.00     0.049 A 
HETATM    4  C   UNL     1      33.426  50.724  41.868  1.00  0.00    -0.005 A 
HETATM    5  C   UNL     1      32.194  50.970  42.468  1.00  0.00     0.045 A 
HETATM    6  C   UNL     1      34.611  51.120  42.523  1.00  0.00     0.043 A 
HETATM    7  C   UNL     1      34.549  51.765  43.761  1.00  0.00     0.035 A 
HETATM    8  C   UNL     1      33.298  52.027  44.328  1.00  0.00     0.032 A 
HETATM    9  C   UNL     1      32.106  51.633  43.702  1.00  0.00     0.033 A 
ENDROOT
BRANCH   7  10
HETATM   10  N   UNL     1      35.692  52.184  44.478  1.00  0.00    -0.323 N 
HETATM   11  C   UNL     1      36.619  53.129  44.074  1.00  0.00     0.256 C 
HETATM   12  O   UNL     1      36.660  53.716  43.001  1.00  0.00    -0.267 OA
HETATM   13  H   UNL     1      35.895  51.673  45.326  1.00  0.00     0.169 HD
BRANCH  11  14
HETATM   14  C   UNL     1      37.701  53.405  45.056  1.00  0.00     0.032 A 
HETATM   15  C   UNL     1      37.670  54.614  45.759  1.00  0.00     0.020 A 
HETATM   16  C   UNL     1      38.647  54.888  46.717  1.00  0.00     0.038 A 
HETATM   17  C   UNL     1      39.640  53.950  47.004  1.00  0.00     0.068 A 
HETATM   18  C   UNL     1      39.675  52.744  46.298  1.00  0.00     0.038 A 
HETATM   19  C   UNL     1      38.706  52.468  45.327  1.00  0.00     0.020 A 
BRANCH  17  20
HETATM   20  O   UNL     1      40.524  54.326  47.977  1.00  0.00    -0.356 OA
HETATM   21  C   UNL     1      41.903  54.141  47.676  1.00  0.00     0.210 C 
ENDBRANCH  17  20
ENDBRANCH  11  14
ENDBRANCH   7  10
BRANCH   2  22
HETATM   22  C   UNL     1      31.083  49.340  39.358  1.00  0.00     0.268 C 
HETATM   23  N   UNL     1      30.654  48.049  39.593  1.00  0.00    -0.353 N 
HETATM   24  H   UNL     1      31.004  47.586  40.419  1.00  0.00     0.162 HD
HETATM   25  O   UNL     1      30.873  49.920  38.297  1.00  0.00    -0.266 OA
BRANCH  23  26
HETATM   26  C   UNL     1      30.068  47.231  38.547  1.00  0.00     0.160 C 
BRANCH  26  27
HETATM   27  C   UNL     1      28.678  46.641  38.916  1.00  0.00     0.073 C 
HETATM   28  O   UNL     1      27.802  46.667  37.773  1.00  0.00    -0.379 OA
HETATM   29  C   UNL     1      26.996  47.854  37.827  1.00  0.00     0.169 C 
HETATM   30  C   UNL     1      27.341  48.590  39.107  1.00  0.00     0.029 C 
HETATM   31  C   UNL     1      27.973  47.513  39.955  1.00  0.00     0.041 C 
HETATM   32  C   UNL     1      28.800  45.194  39.392  1.00  0.00     0.047 C 
ENDBRANCH  26  27
ENDBRANCH  23  26
ENDBRANCH   2  22
BRANCH   1  33
HETATM   33  C   UNL     1      29.795  50.459  41.919  1.00  0.00     0.125 C 
HETATM   34  C   UNL     1      29.115  51.728  41.437  1.00  0.00     0.027 C 
ENDBRANCH   1  33
TORSDOF 7
ENDMDL
MODEL 9
REMARK VINA RESULT:      -7.9     13.021     13.941
REMARK  7 active torsions:
REMARK  status: ('A' for Active; 'I' for Inactive)
REMARK    1  A    between atoms: C_2  and  N_3 
REMARK    2  A    between atoms: C_4  and  C_5 
REMARK       I    between atoms: C_5  and  N_6 
REMARK    3  A    between atoms: N_6  and  C_7 
REMARK    4  A    between atoms: C_7  and  C_8 
REMARK    5  A    between atoms: C_19  and  N_20 
REMARK       I    between atoms: N_20  and  C_21 
REMARK    6  A    between atoms: C_21  and  C_22 
REMARK    7  A    between atoms: C_25  and  O_26 
ROOT
HETATM    1  N   UNL     1      31.882  50.678  41.188  1.00  0.00    -0.342 N 
HETATM    2  C   UNL     1      30.798  51.128  41.928  1.00  0.00     0.104 A 
HETATM    3  C   UNL     1      31.329  51.728  43.061  1.00  0.00     0.049 A 
HETATM    4  C   UNL     1      32.739  51.607  43.030  1.00  0.00    -0.005 A 
HETATM    5  C   UNL     1      33.069  50.923  41.864  1.00  0.00     0.045 A 
HETATM    6  C   UNL     1      33.763  52.024  43.906  1.00  0.00     0.043 A 
HETATM    7  C   UNL     1      35.099  51.744  43.610  1.00  0.00     0.035 A 
HETATM    8  C   UNL     1      35.403  51.029  42.448  1.00  0.00     0.032 A 
HETATM    9  C   UNL     1      34.403  50.613  41.555  1.00  0.00     0.033 A 
ENDROOT
BRANCH   7  10
HETATM   10  N   UNL     1      36.177  52.135  44.437  1.00  0.00    -0.323 N 
HETATM   11  C   UNL     1      37.005  53.228  44.253  1.00  0.00     0.256 C 
HETATM   12  O   UNL     1      37.002  54.009  43.311  1.00  0.00    -0.267 OA
HETATM   13  H   UNL     1      36.417  51.496  45.183  1.00  0.00     0.169 HD
BRANCH  11  14
HETATM   14  C   UNL     1      38.031  53.422  45.312  1.00  0.00     0.032 A 
HETATM   15  C   UNL     1      37.892  54.508  46.182  1.00  0.00     0.020 A 
HETATM   16  C   UNL     1      38.815  54.697  47.212  1.00  0.00     0.038 A 
HETATM   17  C   UNL     1      39.861  53.791  47.401  1.00  0.00     0.068 A 
HETATM   18  C   UNL     1      40.004  52.710  46.527  1.00  0.00     0.038 A 
HETATM   19  C   UNL     1      39.088  52.522  45.484  1.00  0.00     0.020 A 
BRANCH  17  20
HETATM   20  O   UNL     1      40.683  54.073  48.456  1.00  0.00    -0.356 OA
HETATM   21  C   UNL     1      42.054  54.288  48.141  1.00  0.00     0.210 C 
ENDBRANCH  17  20
ENDBRANCH  11  14
ENDBRANCH   7  10
BRANCH   2  22
HETATM   22  C   UNL     1      29.400  50.999  41.550  1.00  0.00     0.268 C 
HETATM   23  N   UNL     1      28.912  49.713  41.660  1.00  0.00    -0.353 N 
HETATM   24  H   UNL     1      29.581  48.974  41.826  1.00  0.00     0.162 HD
HETATM   25  O   UNL     1      28.707  51.934  41.163  1.00  0.00    -0.266 OA
BRANCH  23  26
HETATM   26  C   UNL     1      27.594  49.345  41.175  1.00  0.00     0.160 C 
BRANCH  26  27
HETATM   27  C   UNL     1      27.602  48.711  39.756  1.00  0.00     0.073 C 
HETATM   28  O   UNL     1      28.056  49.669  38.780  1.00  0.00    -0.379 OA
HETATM   29  C   UNL     1      26.916  50.303  38.181  1.00  0.00     0.169 C 
HETATM   30  C   UNL     1      25.671  49.669  38.768  1.00  0.00     0.029 C 
HETATM   31  C   UNL     1      26.184  48.356  39.308  1.00  0.00     0.041 C 
HETATM   32  C   UNL     1      28.526  47.496  39.698  1.00  0.00     0.047 C 
ENDBRANCH  26  27
ENDBRANCH  23  26
ENDBRANCH   2  22
BRANCH   1  33
HETATM   33  C   UNL     1      31.799  50.016  39.892  1.00  0.00     0.125 C 
HETATM   34  C   UNL     1      31.863  50.994  38.733  1.00  0.00     0.027 C 
ENDBRANCH   1  33
TORSDOF 7
ENDMDL
MODEL 10
REMARK VINA RESULT:      -7.9      1.388      1.941
REMARK  7 active torsions:
REMARK  status: ('A' for Active; 'I' for Inactive)
REMARK    1  A    between atoms: C_2  and  N_3 
REMARK    2  A    between atoms: C_4  and  C_5 
REMARK       I    between atoms: C_5  and  N_6 
REMARK    3  A    between atoms: N_6  and  C_7 
REMARK    4  A    between atoms: C_7  and  C_8 
REMARK    5  A    between atoms: C_19  and  N_20 
REMARK       I    between atoms: N_20  and  C_21 
REMARK    6  A    between atoms: C_21  and  C_22 
REMARK    7  A    between atoms: C_25  and  O_26 
ROOT
HETATM    1  N   UNL     1      22.971  45.078  48.635  1.00  0.00    -0.342 N 
HETATM    2  C   UNL     1      22.703  46.439  48.604  1.00  0.00     0.104 A 
HETATM    3  C   UNL     1      23.546  47.018  49.543  1.00  0.00     0.049 A 
HETATM    4  C   UNL     1      24.301  46.001  50.175  1.00  0.00    -0.005 A 
HETATM    5  C   UNL     1      23.910  44.788  49.615  1.00  0.00     0.045 A 
HETATM    6  C   UNL     1      25.286  46.016  51.184  1.00  0.00     0.043 A 
HETATM    7  C   UNL     1      25.860  44.821  51.626  1.00  0.00     0.035 A 
HETATM    8  C   UNL     1      25.429  43.614  51.068  1.00  0.00     0.032 A 
HETATM    9  C   UNL     1      24.458  43.573  50.056  1.00  0.00     0.033 A 
ENDROOT
BRANCH   7  10
HETATM   10  N   UNL     1      26.855  44.760  52.627  1.00  0.00    -0.323 N 
HETATM   11  C   UNL     1      27.473  43.620  53.110  1.00  0.00     0.256 C 
HETATM   12  O   UNL     1      27.222  42.459  52.813  1.00  0.00    -0.267 OA
HETATM   13  H   UNL     1      27.065  45.631  53.096  1.00  0.00     0.169 HD
BRANCH  11  14
HETATM   14  C   UNL     1      28.522  43.862  54.136  1.00  0.00     0.032 A 
HETATM   15  C   UNL     1      29.519  42.897  54.308  1.00  0.00     0.020 A 
HETATM   16  C   UNL     1      30.542  43.110  55.234  1.00  0.00     0.038 A 
HETATM   17  C   UNL     1      30.595  44.296  55.969  1.00  0.00     0.068 A 
HETATM   18  C   UNL     1      29.595  45.257  55.802  1.00  0.00     0.038 A 
HETATM   19  C   UNL     1      28.560  45.044  54.884  1.00  0.00     0.020 A 
BRANCH  17  20
HETATM   20  O   UNL     1      31.657  44.395  56.825  1.00  0.00    -0.356 OA
HETATM   21  C   UNL     1      31.340  44.671  58.185  1.00  0.00     0.210 C 
ENDBRANCH  17  20
ENDBRANCH  11  14
ENDBRANCH   7  10
BRANCH   2  22
HETATM   22  C   UNL     1      21.740  47.095  47.734  1.00  0.00     0.268 C 
HETATM   23  N   UNL     1      20.749  47.773  48.416  1.00  0.00    -0.353 N 
HETATM   24  H   UNL     1      20.684  47.624  49.413  1.00  0.00     0.162 HD
HETATM   25  O   UNL     1      21.788  47.056  46.510  1.00  0.00    -0.266 OA
BRANCH  23  26
HETATM   26  C   UNL     1      19.605  48.351  47.735  1.00  0.00     0.160 C 
BRANCH  26  27
HETATM   27  C   UNL     1      19.401  49.864  48.026  1.00  0.00     0.073 C 
HETATM   28  O   UNL     1      19.506  50.123  49.439  1.00  0.00    -0.379 OA
HETATM   29  C   UNL     1      18.190  50.126  50.014  1.00  0.00     0.169 C 
HETATM   30  C   UNL     1      17.194  49.915  48.891  1.00  0.00     0.029 C 
HETATM   31  C   UNL     1      17.982  50.304  47.664  1.00  0.00     0.041 C 
HETATM   32  C   UNL     1      20.448  50.712  47.306  1.00  0.00     0.047 C 
ENDBRANCH  26  27
ENDBRANCH  23  26
ENDBRANCH   2  22
BRANCH   1  33
HETATM   33  C   UNL     1      22.343  44.078  47.781  1.00  0.00     0.125 C 
HETATM   34  C   UNL     1      23.152  43.790  46.528  1.00  0.00     0.027 C 
ENDBRANCH   1  33
TORSDOF 7
ENDMDL
