MODEL 1
REMARK VINA RESULT:     -10.6      0.000      0.000
REMARK  6 active torsions:
REMARK  status: ('A' for Active; 'I' for Inactive)
REMARK    1  A    between atoms: C_8  and  C_9 
REMARK    2  A    between atoms: N_10  and  N_11 
REMARK    3  A    between atoms: C_22  and  C_23 
REMARK       I    between atoms: C_23  and  N_24 
REMARK    4  A    between atoms: N_24  and  C_25 
REMARK    5  A    between atoms: C_25  and  C_26 
REMARK    6  A    between atoms: C_34  and  N_35 
ROOT
HETATM    1  N   UNL     1      25.306  43.247  51.263  1.00  0.00    -0.197 N 
HETATM    2  C   UNL     1      25.888  42.440  50.303  1.00  0.00     0.183 A 
HETATM    3  C   UNL     1      27.054  41.918  50.850  1.00  0.00     0.125 A 
HETATM    4  N   UNL     1      27.868  41.112  50.120  1.00  0.00    -0.242 NA
HETATM    5  C   UNL     1      27.449  40.868  48.869  1.00  0.00     0.086 A 
HETATM    6  C   UNL     1      26.248  41.410  48.340  1.00  0.00     0.088 A 
HETATM    7  N   UNL     1      25.438  42.214  49.046  1.00  0.00    -0.225 NA
HETATM    8  C   UNL     1      28.227  40.046  48.065  1.00  0.00     0.034 A 
HETATM    9  C   UNL     1      27.856  39.741  46.753  1.00  0.00     0.002 A 
HETATM   10  C   UNL     1      26.683  40.270  46.236  1.00  0.00     0.002 A 
HETATM   11  C   UNL     1      25.892  41.099  47.033  1.00  0.00     0.034 A 
HETATM   12  C   UNL     1      27.159  42.361  52.196  1.00  0.00     0.110 A 
HETATM   13  C   UNL     1      26.027  43.127  52.447  1.00  0.00     0.143 A 
ENDROOT
BRANCH   1  14
HETATM   14  N   UNL     1      24.169  43.990  51.155  1.00  0.00    -0.176 NA
HETATM   15  C   UNL     1      24.236  45.123  50.519  1.00  0.00     0.153 C 
BRANCH  15  16
HETATM   16  C   UNL     1      25.391  45.903  50.091  1.00  0.00     0.011 A 
HETATM   17  C   UNL     1      25.340  47.252  49.588  1.00  0.00     0.004 A 
HETATM   18  C   UNL     1      24.297  48.169  49.338  1.00  0.00     0.014 A 
HETATM   19  C   UNL     1      26.649  47.661  49.329  1.00  0.00     0.043 A 
HETATM   20  C   UNL     1      24.598  49.448  48.854  1.00  0.00     0.001 A 
HETATM   21  C   UNL     1      25.916  49.821  48.605  1.00  0.00     0.002 A 
HETATM   22  C   UNL     1      26.968  48.931  48.833  1.00  0.00     0.030 A 
HETATM   23  N   UNL     1      27.471  46.612  49.656  1.00  0.00    -0.364 N 
HETATM   24  H   UNL     1      28.478  46.621  49.567  1.00  0.00     0.165 HD
HETATM   25  C   UNL     1      26.734  45.578  50.172  1.00  0.00     0.102 A 
ENDBRANCH  15  16
ENDBRANCH   1  14
BRANCH  13  26
HETATM   26  N   UNL     1      25.615  43.790  53.568  1.00  0.00    -0.383 N 
HETATM   27  H   UNL     1      26.246  43.841  54.366  1.00  0.00     0.157 HD
HETATM   28  H   UNL     1      25.155  44.692  53.405  1.00  0.00     0.157 HD
ENDBRANCH  13  26
BRANCH  12  29
HETATM   29  C   UNL     1      28.242  42.091  53.125  1.00  0.00     0.258 C 
HETATM   30  N   UNL     1      29.122  43.137  53.285  1.00  0.00    -0.352 N 
HETATM   31  H   UNL     1      28.948  43.981  52.750  1.00  0.00     0.163 HD
HETATM   32  O   UNL     1      28.388  41.006  53.678  1.00  0.00    -0.267 OA
BRANCH  30  33
HETATM   33  C   UNL     1      30.387  42.962  53.951  1.00  0.00     0.161 C 
BRANCH  33  34
HETATM   34  C   UNL     1      30.462  43.730  55.246  1.00  0.00    -0.040 A 
HETATM   35  C   UNL     1      29.666  44.873  55.430  1.00  0.00     0.012 A 
HETATM   36  C   UNL     1      29.707  45.580  56.631  1.00  0.00     0.043 A 
HETATM   37  C   UNL     1      30.548  45.150  57.651  1.00  0.00     0.116 A 
HETATM   38  F   UNL     1      30.587  45.829  58.804  1.00  0.00    -0.206 F 
HETATM   39  C   UNL     1      31.346  44.023  57.491  1.00  0.00     0.043 A 
HETATM   40  C   UNL     1      31.301  43.310  56.292  1.00  0.00     0.012 A 
ENDBRANCH  33  34
ENDBRANCH  30  33
ENDBRANCH  12  29
TORSDOF 6
ENDMDL
MODEL 2
REMARK VINA RESULT:     -10.5      4.542      7.230
REMARK  6 active torsions:
REMARK  status: ('A' for Active; 'I' for Inactive)
REMARK    1  A    between atoms: C_8  and  C_9 
REMARK    2  A    between atoms: N_10  and  N_11 
REMARK    3  A    between atoms: C_22  and  C_23 
REMARK       I    between atoms: C_23  and  N_24 
REMARK    4  A    between atoms: N_24  and  C_25 
REMARK    5  A    between atoms: C_25  and  C_26 
REMARK    6  A    between atoms: C_34  and  N_35 
ROOT
HETATM    1  N   UNL     1      23.530  48.877  48.076  1.00  0.00    -0.197 N 
HETATM    2  C   UNL     1      22.416  48.063  48.006  1.00  0.00     0.183 A 
HETATM    3  C   UNL     1      22.731  46.871  48.649  1.00  0.00     0.125 A 
HETATM    4  N   UNL     1      21.836  45.851  48.707  1.00  0.00    -0.242 NA
HETATM    5  C   UNL     1      20.658  46.097  48.115  1.00  0.00     0.086 A 
HETATM    6  C   UNL     1      20.362  47.328  47.471  1.00  0.00     0.088 A 
HETATM    7  N   UNL     1      21.239  48.342  47.399  1.00  0.00    -0.225 NA
HETATM    8  C   UNL     1      19.690  45.102  48.139  1.00  0.00     0.034 A 
HETATM    9  C   UNL     1      18.438  45.284  47.549  1.00  0.00     0.002 A 
HETATM   10  C   UNL     1      18.148  46.486  46.921  1.00  0.00     0.002 A 
HETATM   11  C   UNL     1      19.112  47.494  46.887  1.00  0.00     0.034 A 
HETATM   12  C   UNL     1      24.045  46.980  49.182  1.00  0.00     0.110 A 
HETATM   13  C   UNL     1      24.490  48.259  48.872  1.00  0.00     0.143 A 
ENDROOT
BRANCH   1  14
HETATM   14  N   UNL     1      23.690  50.124  47.550  1.00  0.00    -0.176 NA
HETATM   15  C   UNL     1      23.063  51.113  48.117  1.00  0.00     0.153 C 
BRANCH  15  16
HETATM   16  C   UNL     1      21.984  51.113  49.097  1.00  0.00     0.011 A 
HETATM   17  C   UNL     1      20.591  51.325  48.798  1.00  0.00     0.004 A 
HETATM   18  C   UNL     1      19.870  51.597  47.615  1.00  0.00     0.014 A 
HETATM   19  C   UNL     1      19.874  51.206  49.989  1.00  0.00     0.043 A 
HETATM   20  C   UNL     1      18.477  51.729  47.666  1.00  0.00     0.001 A 
HETATM   21  C   UNL     1      17.796  51.607  48.874  1.00  0.00     0.002 A 
HETATM   22  C   UNL     1      18.483  51.349  50.062  1.00  0.00     0.030 A 
HETATM   23  N   UNL     1      20.784  50.935  50.981  1.00  0.00    -0.364 N 
HETATM   24  H   UNL     1      20.550  50.803  51.956  1.00  0.00     0.165 HD
HETATM   25  C   UNL     1      22.041  50.815  50.448  1.00  0.00     0.102 A 
ENDBRANCH  15  16
ENDBRANCH   1  14
BRANCH  13  26
HETATM   26  N   UNL     1      25.669  48.894  49.139  1.00  0.00    -0.383 N 
HETATM   27  H   UNL     1      25.866  49.777  48.670  1.00  0.00     0.157 HD
HETATM   28  H   UNL     1      25.936  48.935  50.128  1.00  0.00     0.157 HD
ENDBRANCH  13  26
BRANCH  12  29
HETATM   29  C   UNL     1      24.788  45.955  49.891  1.00  0.00     0.258 C 
HETATM   30  N   UNL     1      24.146  45.460  51.003  1.00  0.00    -0.352 N 
HETATM   31  H   UNL     1      23.237  45.849  51.231  1.00  0.00     0.163 HD
HETATM   32  O   UNL     1      25.912  45.597  49.557  1.00  0.00    -0.267 OA
BRANCH  30  33
HETATM   33  C   UNL     1      24.833  44.640  51.969  1.00  0.00     0.161 C 
BRANCH  33  34
HETATM   34  C   UNL     1      25.700  45.455  52.894  1.00  0.00    -0.040 A 
HETATM   35  C   UNL     1      26.806  44.860  53.524  1.00  0.00     0.012 A 
HETATM   36  C   UNL     1      27.630  45.607  54.366  1.00  0.00     0.043 A 
HETATM   37  C   UNL     1      27.348  46.950  54.585  1.00  0.00     0.116 A 
HETATM   38  F   UNL     1      28.139  47.667  55.392  1.00  0.00    -0.206 F 
HETATM   39  C   UNL     1      26.258  47.560  53.975  1.00  0.00     0.043 A 
HETATM   40  C   UNL     1      25.437  46.816  53.126  1.00  0.00     0.012 A 
ENDBRANCH  33  34
ENDBRANCH  30  33
ENDBRANCH  12  29
TORSDOF 6
ENDMDL
MODEL 3
REMARK VINA RESULT:     -10.4      4.133      9.055
REMARK  6 active torsions:
REMARK  status: ('A' for Active; 'I' for Inactive)
REMARK    1  A    between atoms: C_8  and  C_9 
REMARK    2  A    between atoms: N_10  and  N_11 
REMARK    3  A    between atoms: C_22  and  C_23 
REMARK       I    between atoms: C_23  and  N_24 
REMARK    4  A    between atoms: N_24  and  C_25 
REMARK    5  A    between atoms: C_25  and  C_26 
REMARK    6  A    between atoms: C_34  and  N_35 
ROOT
HETATM    1  N   UNL     1      25.068  44.084  49.740  1.00  0.00    -0.197 N 
HETATM    2  C   UNL     1      25.362  45.420  49.547  1.00  0.00     0.183 A 
HETATM    3  C   UNL     1      24.167  46.072  49.267  1.00  0.00     0.125 A 
HETATM    4  N   UNL     1      24.145  47.402  48.990  1.00  0.00    -0.242 NA
HETATM    5  C   UNL     1      25.342  48.006  49.021  1.00  0.00     0.086 A 
HETATM    6  C   UNL     1      26.547  47.315  49.317  1.00  0.00     0.088 A 
HETATM    7  N   UNL     1      26.585  46.000  49.585  1.00  0.00    -0.225 NA
HETATM    8  C   UNL     1      25.397  49.368  48.754  1.00  0.00     0.034 A 
HETATM    9  C   UNL     1      26.605  50.069  48.772  1.00  0.00     0.002 A 
HETATM   10  C   UNL     1      27.781  49.394  49.062  1.00  0.00     0.002 A 
HETATM   11  C   UNL     1      27.740  48.025  49.330  1.00  0.00     0.034 A 
HETATM   12  C   UNL     1      23.107  45.129  49.354  1.00  0.00     0.110 A 
HETATM   13  C   UNL     1      23.686  43.919  49.717  1.00  0.00     0.143 A 
ENDROOT
BRANCH   1  14
HETATM   14  N   UNL     1      25.935  43.065  50.002  1.00  0.00    -0.176 NA
HETATM   15  C   UNL     1      26.340  42.906  51.228  1.00  0.00     0.153 C 
BRANCH  15  16
HETATM   16  C   UNL     1      26.234  43.789  52.383  1.00  0.00     0.011 A 
HETATM   17  C   UNL     1      27.306  44.088  53.298  1.00  0.00     0.004 A 
HETATM   18  C   UNL     1      28.650  43.672  53.408  1.00  0.00     0.014 A 
HETATM   19  C   UNL     1      26.824  45.002  54.237  1.00  0.00     0.043 A 
HETATM   20  C   UNL     1      29.454  44.185  54.434  1.00  0.00     0.001 A 
HETATM   21  C   UNL     1      28.938  45.092  55.354  1.00  0.00     0.002 A 
HETATM   22  C   UNL     1      27.609  45.515  55.277  1.00  0.00     0.030 A 
HETATM   23  N   UNL     1      25.513  45.254  53.917  1.00  0.00    -0.364 N 
HETATM   24  H   UNL     1      24.906  45.879  54.430  1.00  0.00     0.165 HD
HETATM   25  C   UNL     1      25.169  44.583  52.773  1.00  0.00     0.102 A 
ENDBRANCH  15  16
ENDBRANCH   1  14
BRANCH  13  26
HETATM   26  N   UNL     1      23.141  42.687  49.940  1.00  0.00    -0.383 N 
HETATM   27  H   UNL     1      23.562  42.086  50.646  1.00  0.00     0.157 HD
HETATM   28  H   UNL     1      22.118  42.660  49.996  1.00  0.00     0.157 HD
ENDBRANCH  13  26
BRANCH  12  29
HETATM   29  C   UNL     1      21.699  45.369  49.095  1.00  0.00     0.258 C 
HETATM   30  N   UNL     1      21.396  46.678  48.798  1.00  0.00    -0.352 N 
HETATM   31  H   UNL     1      22.159  47.347  48.794  1.00  0.00     0.163 HD
HETATM   32  O   UNL     1      20.847  44.491  49.182  1.00  0.00    -0.267 OA
BRANCH  30  33
HETATM   33  C   UNL     1      20.034  47.150  48.774  1.00  0.00     0.161 C 
BRANCH  33  34
HETATM   34  C   UNL     1      19.952  48.652  48.685  1.00  0.00    -0.040 A 
HETATM   35  C   UNL     1      21.070  49.436  49.013  1.00  0.00     0.012 A 
HETATM   36  C   UNL     1      21.016  50.826  48.913  1.00  0.00     0.043 A 
HETATM   37  C   UNL     1      19.842  51.437  48.490  1.00  0.00     0.116 A 
HETATM   38  F   UNL     1      19.790  52.771  48.395  1.00  0.00    -0.206 F 
HETATM   39  C   UNL     1      18.722  50.683  48.163  1.00  0.00     0.043 A 
HETATM   40  C   UNL     1      18.776  49.291  48.255  1.00  0.00     0.012 A 
ENDBRANCH  33  34
ENDBRANCH  30  33
ENDBRANCH  12  29
TORSDOF 6
ENDMDL
MODEL 4
REMARK VINA RESULT:     -10.4      2.026      5.452
REMARK  6 active torsions:
REMARK  status: ('A' for Active; 'I' for Inactive)
REMARK    1  A    between atoms: C_8  and  C_9 
REMARK    2  A    between atoms: N_10  and  N_11 
REMARK    3  A    between atoms: C_22  and  C_23 
REMARK       I    between atoms: C_23  and  N_24 
REMARK    4  A    between atoms: N_24  and  C_25 
REMARK    5  A    between atoms: C_25  and  C_26 
REMARK    6  A    between atoms: C_34  and  N_35 
ROOT
HETATM    1  N   UNL     1      23.947  44.539  50.425  1.00  0.00    -0.197 N 
HETATM    2  C   UNL     1      24.701  45.637  50.056  1.00  0.00     0.183 A 
HETATM    3  C   UNL     1      26.031  45.340  50.333  1.00  0.00     0.125 A 
HETATM    4  N   UNL     1      27.011  46.254  50.111  1.00  0.00    -0.242 NA
HETATM    5  C   UNL     1      26.590  47.424  49.607  1.00  0.00     0.086 A 
HETATM    6  C   UNL     1      25.225  47.696  49.328  1.00  0.00     0.088 A 
HETATM    7  N   UNL     1      24.245  46.807  49.550  1.00  0.00    -0.225 NA
HETATM    8  C   UNL     1      27.538  48.406  49.348  1.00  0.00     0.034 A 
HETATM    9  C   UNL     1      27.180  49.648  48.820  1.00  0.00     0.002 A 
HETATM   10  C   UNL     1      25.846  49.914  48.546  1.00  0.00     0.002 A 
HETATM   11  C   UNL     1      24.883  48.937  48.804  1.00  0.00     0.034 A 
HETATM   12  C   UNL     1      26.103  44.007  50.822  1.00  0.00     0.110 A 
HETATM   13  C   UNL     1      24.806  43.511  50.803  1.00  0.00     0.143 A 
ENDROOT
BRANCH   1  14
HETATM   14  N   UNL     1      22.594  44.395  50.367  1.00  0.00    -0.176 NA
HETATM   15  C   UNL     1      22.076  43.912  49.276  1.00  0.00     0.153 C 
BRANCH  15  16
HETATM   16  C   UNL     1      22.662  43.712  47.956  1.00  0.00     0.011 A 
HETATM   17  C   UNL     1      23.084  42.443  47.420  1.00  0.00     0.004 A 
HETATM   18  C   UNL     1      23.105  41.123  47.919  1.00  0.00     0.014 A 
HETATM   19  C   UNL     1      23.547  42.660  46.121  1.00  0.00     0.043 A 
HETATM   20  C   UNL     1      23.573  40.082  47.108  1.00  0.00     0.001 A 
HETATM   21  C   UNL     1      24.030  40.337  45.818  1.00  0.00     0.002 A 
HETATM   22  C   UNL     1      24.031  41.634  45.301  1.00  0.00     0.030 A 
HETATM   23  N   UNL     1      23.418  44.003  45.867  1.00  0.00    -0.364 N 
HETATM   24  H   UNL     1      23.680  44.452  45.000  1.00  0.00     0.165 HD
HETATM   25  C   UNL     1      22.831  44.631  46.934  1.00  0.00     0.102 A 
ENDBRANCH  15  16
ENDBRANCH   1  14
BRANCH  13  26
HETATM   26  N   UNL     1      24.299  42.294  51.161  1.00  0.00    -0.383 N 
HETATM   27  H   UNL     1      23.390  42.259  51.620  1.00  0.00     0.157 HD
HETATM   28  H   UNL     1      24.385  41.554  50.457  1.00  0.00     0.157 HD
ENDBRANCH  13  26
BRANCH  12  29
HETATM   29  C   UNL     1      27.291  43.305  51.274  1.00  0.00     0.258 C 
HETATM   30  N   UNL     1      27.835  43.807  52.434  1.00  0.00    -0.352 N 
HETATM   31  H   UNL     1      27.378  44.607  52.858  1.00  0.00     0.163 HD
HETATM   32  O   UNL     1      27.794  42.378  50.648  1.00  0.00    -0.267 OA
BRANCH  30  33
HETATM   33  C   UNL     1      29.147  43.414  52.883  1.00  0.00     0.161 C 
BRANCH  33  34
HETATM   34  C   UNL     1      29.497  44.017  54.219  1.00  0.00    -0.040 A 
HETATM   35  C   UNL     1      30.556  43.484  54.972  1.00  0.00     0.012 A 
HETATM   36  C   UNL     1      30.906  44.046  56.200  1.00  0.00     0.043 A 
HETATM   37  C   UNL     1      30.196  45.139  56.680  1.00  0.00     0.116 A 
HETATM   38  F   UNL     1      30.533  45.679  57.858  1.00  0.00    -0.206 F 
HETATM   39  C   UNL     1      29.144  45.683  55.954  1.00  0.00     0.043 A 
HETATM   40  C   UNL     1      28.796  45.127  54.721  1.00  0.00     0.012 A 
ENDBRANCH  33  34
ENDBRANCH  30  33
ENDBRANCH  12  29
TORSDOF 6
ENDMDL
MODEL 5
REMARK VINA RESULT:     -10.0      4.341      8.952
REMARK  6 active torsions:
REMARK  status: ('A' for Active; 'I' for Inactive)
REMARK    1  A    between atoms: C_8  and  C_9 
REMARK    2  A    between atoms: N_10  and  N_11 
REMARK    3  A    between atoms: C_22  and  C_23 
REMARK       I    between atoms: C_23  and  N_24 
REMARK    4  A    between atoms: N_24  and  C_25 
REMARK    5  A    between atoms: C_25  and  C_26 
REMARK    6  A    between atoms: C_34  and  N_35 
ROOT
HETATM    1  N   UNL     1      22.749  43.909  49.852  1.00  0.00    -0.197 N 
HETATM    2  C   UNL     1      23.646  44.533  50.697  1.00  0.00     0.183 A 
HETATM    3  C   UNL     1      23.880  45.806  50.189  1.00  0.00     0.125 A 
HETATM    4  N   UNL     1      24.759  46.648  50.792  1.00  0.00    -0.242 NA
HETATM    5  C   UNL     1      25.352  46.157  51.890  1.00  0.00     0.086 A 
HETATM    6  C   UNL     1      25.088  44.854  52.390  1.00  0.00     0.088 A 
HETATM    7  N   UNL     1      24.228  44.008  51.801  1.00  0.00    -0.225 NA
HETATM    8  C   UNL     1      26.259  46.964  52.563  1.00  0.00     0.034 A 
HETATM    9  C   UNL     1      26.914  46.526  53.717  1.00  0.00     0.002 A 
HETATM   10  C   UNL     1      26.656  45.254  54.206  1.00  0.00     0.002 A 
HETATM   11  C   UNL     1      25.747  44.431  53.538  1.00  0.00     0.034 A 
HETATM   12  C   UNL     1      23.059  45.992  49.043  1.00  0.00     0.110 A 
HETATM   13  C   UNL     1      22.317  44.826  48.898  1.00  0.00     0.143 A 
ENDROOT
BRANCH   1  14
HETATM   14  N   UNL     1      22.262  42.640  49.938  1.00  0.00    -0.176 NA
HETATM   15  C   UNL     1      23.020  41.664  49.533  1.00  0.00     0.153 C 
BRANCH  15  16
HETATM   16  C   UNL     1      24.248  41.681  48.746  1.00  0.00     0.011 A 
HETATM   17  C   UNL     1      25.543  41.266  49.221  1.00  0.00     0.004 A 
HETATM   18  C   UNL     1      26.030  40.785  50.455  1.00  0.00     0.014 A 
HETATM   19  C   UNL     1      26.445  41.389  48.164  1.00  0.00     0.043 A 
HETATM   20  C   UNL     1      27.381  40.440  50.582  1.00  0.00     0.001 A 
HETATM   21  C   UNL     1      28.253  40.579  49.506  1.00  0.00     0.002 A 
HETATM   22  C   UNL     1      27.803  41.062  48.275  1.00  0.00     0.030 A 
HETATM   23  N   UNL     1      25.740  41.861  47.084  1.00  0.00    -0.364 N 
HETATM   24  H   UNL     1      26.139  42.051  46.175  1.00  0.00     0.165 HD
HETATM   25  C   UNL     1      24.413  41.978  47.404  1.00  0.00     0.102 A 
ENDBRANCH  15  16
ENDBRANCH   1  14
BRANCH  13  26
HETATM   26  N   UNL     1      21.379  44.462  47.975  1.00  0.00    -0.383 N 
HETATM   27  H   UNL     1      21.499  43.580  47.478  1.00  0.00     0.157 HD
HETATM   28  H   UNL     1      20.404  44.595  48.259  1.00  0.00     0.157 HD
ENDBRANCH  13  26
BRANCH  12  29
HETATM   29  C   UNL     1      23.016  47.157  48.179  1.00  0.00     0.258 C 
HETATM   30  N   UNL     1      23.631  48.271  48.702  1.00  0.00    -0.352 N 
HETATM   31  H   UNL     1      24.044  48.188  49.625  1.00  0.00     0.163 HD
HETATM   32  O   UNL     1      22.437  47.162  47.098  1.00  0.00    -0.267 OA
BRANCH  30  33
HETATM   33  C   UNL     1      23.459  49.575  48.112  1.00  0.00     0.161 C 
BRANCH  33  34
HETATM   34  C   UNL     1      22.185  50.241  48.563  1.00  0.00    -0.040 A 
HETATM   35  C   UNL     1      22.001  50.556  49.920  1.00  0.00     0.012 A 
HETATM   36  C   UNL     1      20.837  51.194  50.348  1.00  0.00     0.043 A 
HETATM   37  C   UNL     1      19.851  51.515  49.423  1.00  0.00     0.116 A 
HETATM   38  F   UNL     1      18.734  52.127  49.835  1.00  0.00    -0.206 F 
HETATM   39  C   UNL     1      20.010  51.212  48.076  1.00  0.00     0.043 A 
HETATM   40  C   UNL     1      21.177  50.580  47.644  1.00  0.00     0.012 A 
ENDBRANCH  33  34
ENDBRANCH  30  33
ENDBRANCH  12  29
TORSDOF 6
ENDMDL
MODEL 6
REMARK VINA RESULT:     -10.0      2.885      7.589
REMARK  6 active torsions:
REMARK  status: ('A' for Active; 'I' for Inactive)
REMARK    1  A    between atoms: C_8  and  C_9 
REMARK    2  A    between atoms: N_10  and  N_11 
REMARK    3  A    between atoms: C_22  and  C_23 
REMARK       I    between atoms: C_23  and  N_24 
REMARK    4  A    between atoms: N_24  and  C_25 
REMARK    5  A    between atoms: C_25  and  C_26 
REMARK    6  A    between atoms: C_34  and  N_35 
ROOT
HETATM    1  N   UNL     1      26.044  40.853  50.433  1.00  0.00    -0.197 N 
HETATM    2  C   UNL     1      26.742  41.623  51.343  1.00  0.00     0.183 A 
HETATM    3  C   UNL     1      26.369  42.947  51.140  1.00  0.00     0.125 A 
HETATM    4  N   UNL     1      26.926  43.949  51.868  1.00  0.00    -0.242 NA
HETATM    5  C   UNL     1      27.830  43.554  52.777  1.00  0.00     0.086 A 
HETATM    6  C   UNL     1      28.186  42.192  52.967  1.00  0.00     0.088 A 
HETATM    7  N   UNL     1      27.650  41.192  52.250  1.00  0.00    -0.225 NA
HETATM    8  C   UNL     1      28.437  44.524  53.564  1.00  0.00     0.034 A 
HETATM    9  C   UNL     1      29.384  44.192  54.534  1.00  0.00     0.002 A 
HETATM   10  C   UNL     1      29.732  42.862  54.721  1.00  0.00     0.002 A 
HETATM   11  C   UNL     1      29.131  41.877  53.935  1.00  0.00     0.034 A 
HETATM   12  C   UNL     1      25.372  42.984  50.127  1.00  0.00     0.110 A 
HETATM   13  C   UNL     1      25.140  41.666  49.755  1.00  0.00     0.143 A 
ENDROOT
BRANCH   1  14
HETATM   14  N   UNL     1      26.120  39.505  50.245  1.00  0.00    -0.176 NA
HETATM   15  C   UNL     1      26.861  39.064  49.271  1.00  0.00     0.153 C 
BRANCH  15  16
HETATM   16  C   UNL     1      27.460  39.766  48.142  1.00  0.00     0.011 A 
HETATM   17  C   UNL     1      26.939  39.772  46.799  1.00  0.00     0.004 A 
HETATM   18  C   UNL     1      25.831  39.163  46.171  1.00  0.00     0.014 A 
HETATM   19  C   UNL     1      27.764  40.588  46.024  1.00  0.00     0.043 A 
HETATM   20  C   UNL     1      25.587  39.398  44.812  1.00  0.00     0.001 A 
HETATM   21  C   UNL     1      26.434  40.216  44.070  1.00  0.00     0.002 A 
HETATM   22  C   UNL     1      27.544  40.824  44.661  1.00  0.00     0.030 A 
HETATM   23  N   UNL     1      28.752  41.064  46.851  1.00  0.00    -0.364 N 
HETATM   24  H   UNL     1      29.498  41.680  46.559  1.00  0.00     0.165 HD
HETATM   25  C   UNL     1      28.542  40.629  48.133  1.00  0.00     0.102 A 
ENDBRANCH  15  16
ENDBRANCH   1  14
BRANCH  13  26
HETATM   26  N   UNL     1      24.290  41.123  48.834  1.00  0.00    -0.383 N 
HETATM   27  H   UNL     1      24.670  40.490  48.132  1.00  0.00     0.157 HD
HETATM   28  H   UNL     1      23.402  40.771  49.204  1.00  0.00     0.157 HD
ENDBRANCH  13  26
BRANCH  12  29
HETATM   29  C   UNL     1      24.735  44.163  49.570  1.00  0.00     0.258 C 
HETATM   30  N   UNL     1      24.862  45.293  50.347  1.00  0.00    -0.352 N 
HETATM   31  H   UNL     1      25.368  45.205  51.221  1.00  0.00     0.163 HD
HETATM   32  O   UNL     1      24.096  44.143  48.524  1.00  0.00    -0.267 OA
BRANCH  30  33
HETATM   33  C   UNL     1      24.080  46.475  50.090  1.00  0.00     0.161 C 
BRANCH  33  34
HETATM   34  C   UNL     1      24.923  47.619  49.589  1.00  0.00    -0.040 A 
HETATM   35  C   UNL     1      26.318  47.586  49.753  1.00  0.00     0.012 A 
HETATM   36  C   UNL     1      27.113  48.628  49.274  1.00  0.00     0.043 A 
HETATM   37  C   UNL     1      26.517  49.707  48.634  1.00  0.00     0.116 A 
HETATM   38  F   UNL     1      27.280  50.705  48.174  1.00  0.00    -0.206 F 
HETATM   39  C   UNL     1      25.139  49.763  48.462  1.00  0.00     0.043 A 
HETATM   40  C   UNL     1      24.341  48.719  48.934  1.00  0.00     0.012 A 
ENDBRANCH  33  34
ENDBRANCH  30  33
ENDBRANCH  12  29
TORSDOF 6
ENDMDL
MODEL 7
REMARK VINA RESULT:      -9.9      4.634      7.608
REMARK  6 active torsions:
REMARK  status: ('A' for Active; 'I' for Inactive)
REMARK    1  A    between atoms: C_8  and  C_9 
REMARK    2  A    between atoms: N_10  and  N_11 
REMARK    3  A    between atoms: C_22  and  C_23 
REMARK       I    between atoms: C_23  and  N_24 
REMARK    4  A    between atoms: N_24  and  C_25 
REMARK    5  A    between atoms: C_25  and  C_26 
REMARK    6  A    between atoms: C_34  and  N_35 
ROOT
HETATM    1  N   UNL     1      23.600  48.918  48.040  1.00  0.00    -0.197 N 
HETATM    2  C   UNL     1      22.578  47.991  47.957  1.00  0.00     0.183 A 
HETATM    3  C   UNL     1      22.953  46.891  48.720  1.00  0.00     0.125 A 
HETATM    4  N   UNL     1      22.158  45.792  48.798  1.00  0.00    -0.242 NA
HETATM    5  C   UNL     1      21.014  45.870  48.102  1.00  0.00     0.086 A 
HETATM    6  C   UNL     1      20.654  47.011  47.337  1.00  0.00     0.088 A 
HETATM    7  N   UNL     1      21.433  48.101  47.244  1.00  0.00    -0.225 NA
HETATM    8  C   UNL     1      20.147  44.785  48.140  1.00  0.00     0.034 A 
HETATM    9  C   UNL     1      18.935  44.793  47.446  1.00  0.00     0.002 A 
HETATM   10  C   UNL     1      18.583  45.907  46.699  1.00  0.00     0.002 A 
HETATM   11  C   UNL     1      19.446  47.003  46.651  1.00  0.00     0.034 A 
HETATM   12  C   UNL     1      24.202  47.174  49.337  1.00  0.00     0.110 A 
HETATM   13  C   UNL     1      24.546  48.464  48.954  1.00  0.00     0.143 A 
ENDROOT
BRANCH   1  14
HETATM   14  N   UNL     1      23.682  50.130  47.423  1.00  0.00    -0.176 NA
HETATM   15  C   UNL     1      23.026  51.127  47.943  1.00  0.00     0.153 C 
BRANCH  15  16
HETATM   16  C   UNL     1      21.982  51.147  48.961  1.00  0.00     0.011 A 
HETATM   17  C   UNL     1      20.571  51.269  48.698  1.00  0.00     0.004 A 
HETATM   18  C   UNL     1      19.798  51.418  47.526  1.00  0.00     0.014 A 
HETATM   19  C   UNL     1      19.901  51.204  49.921  1.00  0.00     0.043 A 
HETATM   20  C   UNL     1      18.402  51.487  47.620  1.00  0.00     0.001 A 
HETATM   21  C   UNL     1      17.769  51.421  48.857  1.00  0.00     0.002 A 
HETATM   22  C   UNL     1      18.508  51.284  50.035  1.00  0.00     0.030 A 
HETATM   23  N   UNL     1      20.856  51.051  50.895  1.00  0.00    -0.364 N 
HETATM   24  H   UNL     1      20.662  50.978  51.885  1.00  0.00     0.165 HD
HETATM   25  C   UNL     1      22.099  50.952  50.326  1.00  0.00     0.102 A 
ENDBRANCH  15  16
ENDBRANCH   1  14
BRANCH  13  26
HETATM   26  N   UNL     1      25.633  49.235  49.252  1.00  0.00    -0.383 N 
HETATM   27  H   UNL     1      26.223  48.966  50.038  1.00  0.00     0.157 HD
HETATM   28  H   UNL     1      26.200  49.530  48.450  1.00  0.00     0.157 HD
ENDBRANCH  13  26
BRANCH  12  29
HETATM   29  C   UNL     1      24.980  46.287  50.183  1.00  0.00     0.258 C 
HETATM   30  N   UNL     1      24.222  45.455  50.975  1.00  0.00    -0.352 N 
HETATM   31  H   UNL     1      23.213  45.536  50.909  1.00  0.00     0.163 HD
HETATM   32  O   UNL     1      26.205  46.314  50.225  1.00  0.00    -0.267 OA
BRANCH  30  33
HETATM   33  C   UNL     1      24.808  44.705  52.057  1.00  0.00     0.161 C 
BRANCH  33  34
HETATM   34  C   UNL     1      25.435  43.418  51.585  1.00  0.00    -0.040 A 
HETATM   35  C   UNL     1      26.681  43.017  52.095  1.00  0.00     0.012 A 
HETATM   36  C   UNL     1      27.262  41.817  51.684  1.00  0.00     0.043 A 
HETATM   37  C   UNL     1      26.602  41.017  50.759  1.00  0.00     0.116 A 
HETATM   38  F   UNL     1      27.160  39.866  50.366  1.00  0.00    -0.206 F 
HETATM   39  C   UNL     1      25.370  41.394  50.239  1.00  0.00     0.043 A 
HETATM   40  C   UNL     1      24.783  42.591  50.655  1.00  0.00     0.012 A 
ENDBRANCH  33  34
ENDBRANCH  30  33
ENDBRANCH  12  29
TORSDOF 6
ENDMDL
MODEL 8
REMARK VINA RESULT:      -9.9      2.412      4.405
REMARK  6 active torsions:
REMARK  status: ('A' for Active; 'I' for Inactive)
REMARK    1  A    between atoms: C_8  and  C_9 
REMARK    2  A    between atoms: N_10  and  N_11 
REMARK    3  A    between atoms: C_22  and  C_23 
REMARK       I    between atoms: C_23  and  N_24 
REMARK    4  A    between atoms: N_24  and  C_25 
REMARK    5  A    between atoms: C_25  and  C_26 
REMARK    6  A    between atoms: C_34  and  N_35 
ROOT
HETATM    1  N   UNL     1      26.103  45.569  50.387  1.00  0.00    -0.197 N 
HETATM    2  C   UNL     1      26.675  44.344  50.670  1.00  0.00     0.183 A 
HETATM    3  C   UNL     1      26.979  44.330  52.027  1.00  0.00     0.125 A 
HETATM    4  N   UNL     1      27.594  43.261  52.594  1.00  0.00    -0.242 NA
HETATM    5  C   UNL     1      27.862  42.250  51.754  1.00  0.00     0.086 A 
HETATM    6  C   UNL     1      27.533  42.290  50.372  1.00  0.00     0.088 A 
HETATM    7  N   UNL     1      26.933  43.343  49.796  1.00  0.00    -0.225 NA
HETATM    8  C   UNL     1      28.485  41.119  52.264  1.00  0.00     0.034 A 
HETATM    9  C   UNL     1      28.793  40.024  51.454  1.00  0.00     0.002 A 
HETATM   10  C   UNL     1      28.471  40.062  50.105  1.00  0.00     0.002 A 
HETATM   11  C   UNL     1      27.847  41.193  49.578  1.00  0.00     0.034 A 
HETATM   12  C   UNL     1      26.524  45.548  52.603  1.00  0.00     0.110 A 
HETATM   13  C   UNL     1      25.922  46.267  51.578  1.00  0.00     0.143 A 
ENDROOT
BRANCH   1  14
HETATM   14  N   UNL     1      25.681  46.037  49.179  1.00  0.00    -0.176 NA
HETATM   15  C   UNL     1      24.602  45.523  48.666  1.00  0.00     0.153 C 
BRANCH  15  16
HETATM   16  C   UNL     1      23.857  44.324  49.030  1.00  0.00     0.011 A 
HETATM   17  C   UNL     1      23.647  43.186  48.173  1.00  0.00     0.004 A 
HETATM   18  C   UNL     1      24.012  42.875  46.845  1.00  0.00     0.014 A 
HETATM   19  C   UNL     1      22.930  42.232  48.896  1.00  0.00     0.043 A 
HETATM   20  C   UNL     1      23.658  41.634  46.301  1.00  0.00     0.001 A 
HETATM   21  C   UNL     1      22.940  40.708  47.051  1.00  0.00     0.002 A 
HETATM   22  C   UNL     1      22.556  40.992  48.364  1.00  0.00     0.030 A 
HETATM   23  N   UNL     1      22.705  42.758  50.144  1.00  0.00    -0.364 N 
HETATM   24  H   UNL     1      22.202  42.288  50.884  1.00  0.00     0.165 HD
HETATM   25  C   UNL     1      23.310  43.982  50.255  1.00  0.00     0.102 A 
ENDBRANCH  15  16
ENDBRANCH   1  14
BRANCH  13  26
HETATM   26  N   UNL     1      25.320  47.493  51.567  1.00  0.00    -0.383 N 
HETATM   27  H   UNL     1      25.038  47.907  52.454  1.00  0.00     0.157 HD
HETATM   28  H   UNL     1      25.750  48.192  50.954  1.00  0.00     0.157 HD
ENDBRANCH  13  26
BRANCH  12  29
HETATM   29  C   UNL     1      26.674  45.972  53.983  1.00  0.00     0.258 C 
HETATM   30  N   UNL     1      27.979  46.021  54.419  1.00  0.00    -0.352 N 
HETATM   31  H   UNL     1      28.703  45.757  53.760  1.00  0.00     0.163 HD
HETATM   32  O   UNL     1      25.719  46.215  54.712  1.00  0.00    -0.267 OA
BRANCH  30  33
HETATM   33  C   UNL     1      28.302  46.161  55.816  1.00  0.00     0.161 C 
BRANCH  33  34
HETATM   34  C   UNL     1      29.420  45.243  56.238  1.00  0.00    -0.040 A 
HETATM   35  C   UNL     1      29.827  44.198  55.391  1.00  0.00     0.012 A 
HETATM   36  C   UNL     1      30.876  43.355  55.758  1.00  0.00     0.043 A 
HETATM   37  C   UNL     1      31.518  43.550  56.975  1.00  0.00     0.116 A 
HETATM   38  F   UNL     1      32.525  42.741  57.326  1.00  0.00    -0.206 F 
HETATM   39  C   UNL     1      31.133  44.576  57.830  1.00  0.00     0.043 A 
HETATM   40  C   UNL     1      30.088  45.425  57.461  1.00  0.00     0.012 A 
ENDBRANCH  33  34
ENDBRANCH  30  33
ENDBRANCH  12  29
TORSDOF 6
ENDMDL
MODEL 9
REMARK VINA RESULT:      -9.6      4.482      9.251
REMARK  6 active torsions:
REMARK  status: ('A' for Active; 'I' for Inactive)
REMARK    1  A    between atoms: C_8  and  C_9 
REMARK    2  A    between atoms: N_10  and  N_11 
REMARK    3  A    between atoms: C_22  and  C_23 
REMARK       I    between atoms: C_23  and  N_24 
REMARK    4  A    between atoms: N_24  and  C_25 
REMARK    5  A    between atoms: C_25  and  C_26 
REMARK    6  A    between atoms: C_34  and  N_35 
ROOT
HETATM    1  N   UNL     1      26.360  44.121  50.475  1.00  0.00    -0.197 N 
HETATM    2  C   UNL     1      26.193  45.430  50.067  1.00  0.00     0.183 A 
HETATM    3  C   UNL     1      24.837  45.620  49.824  1.00  0.00     0.125 A 
HETATM    4  N   UNL     1      24.370  46.811  49.367  1.00  0.00    -0.242 NA
HETATM    5  C   UNL     1      25.305  47.756  49.189  1.00  0.00     0.086 A 
HETATM    6  C   UNL     1      26.683  47.535  49.454  1.00  0.00     0.088 A 
HETATM    7  N   UNL     1      27.160  46.362  49.897  1.00  0.00    -0.225 NA
HETATM    8  C   UNL     1      24.900  49.002  48.730  1.00  0.00     0.034 A 
HETATM    9  C   UNL     1      25.813  50.039  48.525  1.00  0.00     0.002 A 
HETATM   10  C   UNL     1      27.159  49.824  48.783  1.00  0.00     0.002 A 
HETATM   11  C   UNL     1      27.580  48.575  49.243  1.00  0.00     0.034 A 
HETATM   12  C   UNL     1      24.148  44.421  50.150  1.00  0.00     0.110 A 
HETATM   13  C   UNL     1      25.107  43.531  50.617  1.00  0.00     0.143 A 
ENDROOT
BRANCH   1  14
HETATM   14  N   UNL     1      27.523  43.483  50.786  1.00  0.00    -0.176 NA
HETATM   15  C   UNL     1      27.970  43.584  52.003  1.00  0.00     0.153 C 
BRANCH  15  16
HETATM   16  C   UNL     1      27.582  44.484  53.084  1.00  0.00     0.011 A 
HETATM   17  C   UNL     1      28.380  44.772  54.248  1.00  0.00     0.004 A 
HETATM   18  C   UNL     1      29.637  44.330  54.713  1.00  0.00     0.014 A 
HETATM   19  C   UNL     1      27.687  45.707  55.019  1.00  0.00     0.043 A 
HETATM   20  C   UNL     1      30.152  44.840  55.912  1.00  0.00     0.001 A 
HETATM   21  C   UNL     1      29.432  45.769  56.656  1.00  0.00     0.002 A 
HETATM   22  C   UNL     1      28.180  46.217  56.227  1.00  0.00     0.030 A 
HETATM   23  N   UNL     1      26.514  45.982  54.362  1.00  0.00    -0.364 N 
HETATM   24  H   UNL     1      25.807  46.625  54.691  1.00  0.00     0.165 HD
HETATM   25  C   UNL     1      26.471  45.304  53.172  1.00  0.00     0.102 A 
ENDBRANCH  15  16
ENDBRANCH   1  14
BRANCH  13  26
HETATM   26  N   UNL     1      25.005  42.245  51.066  1.00  0.00    -0.383 N 
HETATM   27  H   UNL     1      25.853  41.688  51.152  1.00  0.00     0.157 HD
HETATM   28  H   UNL     1      24.389  42.105  51.873  1.00  0.00     0.157 HD
ENDBRANCH  13  26
BRANCH  12  29
HETATM   29  C   UNL     1      22.727  44.162  50.007  1.00  0.00     0.258 C 
HETATM   30  N   UNL     1      22.086  45.006  49.128  1.00  0.00    -0.352 N 
HETATM   31  H   UNL     1      22.644  45.722  48.675  1.00  0.00     0.163 HD
HETATM   32  O   UNL     1      22.139  43.299  50.650  1.00  0.00    -0.267 OA
BRANCH  30  33
HETATM   33  C   UNL     1      20.648  45.071  49.059  1.00  0.00     0.161 C 
BRANCH  33  34
HETATM   34  C   UNL     1      20.156  45.331  47.659  1.00  0.00    -0.040 A 
HETATM   35  C   UNL     1      19.021  44.656  47.178  1.00  0.00     0.012 A 
HETATM   36  C   UNL     1      18.541  44.904  45.892  1.00  0.00     0.043 A 
HETATM   37  C   UNL     1      19.195  45.823  45.081  1.00  0.00     0.116 A 
HETATM   38  F   UNL     1      18.733  46.060  43.847  1.00  0.00    -0.206 F 
HETATM   39  C   UNL     1      20.320  46.502  45.534  1.00  0.00     0.043 A 
HETATM   40  C   UNL     1      20.799  46.261  46.823  1.00  0.00     0.012 A 
ENDBRANCH  33  34
ENDBRANCH  30  33
ENDBRANCH  12  29
TORSDOF 6
ENDMDL
MODEL 10
REMARK VINA RESULT:      -9.6      4.776      7.694
REMARK  6 active torsions:
REMARK  status: ('A' for Active; 'I' for Inactive)
REMARK    1  A    between atoms: C_8  and  C_9 
REMARK    2  A    between atoms: N_10  and  N_11 
REMARK    3  A    between atoms: C_22  and  C_23 
REMARK       I    between atoms: C_23  and  N_24 
REMARK    4  A    between atoms: N_24  and  C_25 
REMARK    5  A    between atoms: C_25  and  C_26 
REMARK    6  A    between atoms: C_34  and  N_35 
ROOT
HETATM    1  N   UNL     1      21.752  45.389  46.905  1.00  0.00    -0.197 N 
HETATM    2  C   UNL     1      22.076  46.603  47.481  1.00  0.00     0.183 A 
HETATM    3  C   UNL     1      22.658  46.336  48.715  1.00  0.00     0.125 A 
HETATM    4  N   UNL     1      23.047  47.345  49.537  1.00  0.00    -0.242 NA
HETATM    5  C   UNL     1      22.834  48.579  49.057  1.00  0.00     0.086 A 
HETATM    6  C   UNL     1      22.243  48.822  47.789  1.00  0.00     0.088 A 
HETATM    7  N   UNL     1      21.847  47.835  46.970  1.00  0.00    -0.225 NA
HETATM    8  C   UNL     1      23.213  49.662  49.841  1.00  0.00     0.034 A 
HETATM    9  C   UNL     1      23.028  50.977  49.409  1.00  0.00     0.002 A 
HETATM   10  C   UNL     1      22.452  51.215  48.170  1.00  0.00     0.002 A 
HETATM   11  C   UNL     1      22.065  50.136  47.374  1.00  0.00     0.034 A 
HETATM   12  C   UNL     1      22.753  44.926  48.873  1.00  0.00     0.110 A 
HETATM   13  C   UNL     1      22.248  44.365  47.707  1.00  0.00     0.143 A 
ENDROOT
BRANCH   1  14
HETATM   14  N   UNL     1      21.132  45.167  45.712  1.00  0.00    -0.176 NA
HETATM   15  C   UNL     1      19.855  45.402  45.633  1.00  0.00     0.153 C 
BRANCH  15  16
HETATM   16  C   UNL     1      18.868  45.636  46.680  1.00  0.00     0.011 A 
HETATM   17  C   UNL     1      18.250  46.905  46.969  1.00  0.00     0.004 A 
HETATM   18  C   UNL     1      18.380  48.205  46.436  1.00  0.00     0.014 A 
HETATM   19  C   UNL     1      17.334  46.709  48.004  1.00  0.00     0.043 A 
HETATM   20  C   UNL     1      17.592  49.246  46.944  1.00  0.00     0.001 A 
HETATM   21  C   UNL     1      16.691  49.013  47.979  1.00  0.00     0.002 A 
HETATM   22  C   UNL     1      16.548  47.739  48.534  1.00  0.00     0.030 A 
HETATM   23  N   UNL     1      17.385  45.379  48.340  1.00  0.00    -0.364 N 
HETATM   24  H   UNL     1      16.829  44.948  49.066  1.00  0.00     0.165 HD
HETATM   25  C   UNL     1      18.253  44.716  47.512  1.00  0.00     0.102 A 
ENDBRANCH  15  16
ENDBRANCH   1  14
BRANCH  13  26
HETATM   26  N   UNL     1      22.102  43.063  47.321  1.00  0.00    -0.383 N 
HETATM   27  H   UNL     1      22.273  42.328  48.005  1.00  0.00     0.157 HD
HETATM   28  H   UNL     1      21.268  42.858  46.761  1.00  0.00     0.157 HD
ENDBRANCH  13  26
BRANCH  12  29
HETATM   29  C   UNL     1      23.256  44.208  50.030  1.00  0.00     0.258 C 
HETATM   30  N   UNL     1      24.345  44.798  50.630  1.00  0.00    -0.352 N 
HETATM   31  H   UNL     1      24.699  45.656  50.220  1.00  0.00     0.163 HD
HETATM   32  O   UNL     1      22.783  43.142  50.409  1.00  0.00    -0.267 OA
BRANCH  30  33
HETATM   33  C   UNL     1      25.133  44.101  51.615  1.00  0.00     0.161 C 
BRANCH  33  34
HETATM   34  C   UNL     1      25.848  45.045  52.546  1.00  0.00    -0.040 A 
HETATM   35  C   UNL     1      25.544  46.416  52.525  1.00  0.00     0.012 A 
HETATM   36  C   UNL     1      26.182  47.298  53.397  1.00  0.00     0.043 A 
HETATM   37  C   UNL     1      27.129  46.814  54.290  1.00  0.00     0.116 A 
HETATM   38  F   UNL     1      27.741  47.660  55.127  1.00  0.00    -0.206 F 
HETATM   39  C   UNL     1      27.449  45.461  54.329  1.00  0.00     0.043 A 
HETATM   40  C   UNL     1      26.806  44.576  53.462  1.00  0.00     0.012 A 
ENDBRANCH  33  34
ENDBRANCH  30  33
ENDBRANCH  12  29
TORSDOF 6
ENDMDL
