MODEL 1
REMARK VINA RESULT:      -9.9      0.000      0.000
REMARK  7 active torsions:
REMARK  status: ('A' for Active; 'I' for Inactive)
REMARK    1  A    between atoms: C_2  and  N_3 
REMARK    2  A    between atoms: C_5  and  C_6 
REMARK    3  A    between atoms: C_6  and  N_7 
REMARK       I    between atoms: N_7  and  C_8 
REMARK    4  A    between atoms: C_8  and  C_9 
REMARK    5  A    between atoms: N_15  and  C_16 
REMARK    6  A    between atoms: C_16  and  C_17 
REMARK       I    between atoms: C_17  and  N_18 
REMARK    7  A    between atoms: N_18  and  C_19 
ROOT
HETATM    1  C   UNL     1      23.021  45.724  49.185  1.00  0.00     0.081 C 
HETATM    2  S   UNL     1      22.663  44.046  49.153  1.00  0.00    -0.063 SA
HETATM    3  C   UNL     1      24.051  43.651  50.042  1.00  0.00     0.116 C 
HETATM    4  C   UNL     1      24.777  44.769  50.391  1.00  0.00     0.075 C 
HETATM    5  C   UNL     1      26.059  44.538  51.048  1.00  0.00     0.262 C 
HETATM    6  O   UNL     1      26.794  45.444  51.437  1.00  0.00    -0.267 OA
HETATM    7  N   UNL     1      26.411  43.197  51.156  1.00  0.00    -0.299 N 
HETATM    8  C   UNL     1      25.532  42.184  50.829  1.00  0.00     0.214 C 
HETATM    9  N   UNL     1      24.367  42.357  50.294  1.00  0.00    -0.235 NA
HETATM   10  C   UNL     1      24.138  46.004  49.975  1.00  0.00    -0.021 C 
HETATM   11  C   UNL     1      24.677  47.372  50.265  1.00  0.00     0.051 C 
ENDROOT
BRANCH   1  12
HETATM   12  C   UNL     1      22.188  46.577  48.351  1.00  0.00     0.259 C 
HETATM   13  N   UNL     1      21.115  47.201  48.953  1.00  0.00    -0.354 N 
HETATM   14  H   UNL     1      20.770  46.782  49.810  1.00  0.00     0.162 HD
HETATM   15  O   UNL     1      22.432  46.843  47.171  1.00  0.00    -0.267 OA
BRANCH  13  16
HETATM   16  C   UNL     1      20.210  48.075  48.214  1.00  0.00     0.156 C 
BRANCH  16  17
HETATM   17  C   UNL     1      20.485  49.603  48.332  1.00  0.00     0.206 C 
HETATM   18  N   UNL     1      21.326  49.948  49.563  1.00  0.00    -0.066 N 
HETATM   19  H   UNL     1      21.343  49.095  50.164  1.00  0.00     0.280 HD
HETATM   20  C   UNL     1      20.583  50.998  50.351  1.00  0.00     0.235 C 
HETATM   21  C   UNL     1      19.138  50.787  49.959  1.00  0.00     0.030 C 
HETATM   22  C   UNL     1      19.222  50.453  48.483  1.00  0.00     0.036 C 
BRANCH  18  23
HETATM   23  C   UNL     1      22.763  50.267  49.272  1.00  0.00     0.231 C 
HETATM   24  C   UNL     1      22.979  50.446  47.781  1.00  0.00     0.034 C 
ENDBRANCH  18  23
ENDBRANCH  16  17
ENDBRANCH  13  16
ENDBRANCH   1  12
BRANCH   7  25
HETATM   25  C   UNL     1      27.766  42.874  51.556  1.00  0.00     0.236 C 
BRANCH  25  26
HETATM   26  C   UNL     1      27.932  42.989  53.066  1.00  0.00     0.240 C 
HETATM   27  N   UNL     1      28.497  44.190  53.453  1.00  0.00    -0.326 N 
HETATM   28  H   UNL     1      28.450  44.955  52.780  1.00  0.00     0.169 HD
HETATM   29  O   UNL     1      27.536  42.095  53.807  1.00  0.00    -0.271 OA
BRANCH  27  30
HETATM   30  C   UNL     1      29.074  44.487  54.703  1.00  0.00     0.036 A 
HETATM   31  C   UNL     1      30.159  43.789  55.237  1.00  0.00     0.053 A 
HETATM   32  C   UNL     1      30.739  44.197  56.443  1.00  0.00     0.042 A 
HETATM   33 CL   UNL     1      32.102  43.306  57.025  1.00  0.00    -0.084 Cl
HETATM   34  C   UNL     1      30.242  45.306  57.144  1.00  0.00    -0.040 A 
HETATM   35  C   UNL     1      30.863  45.780  58.428  1.00  0.00     0.050 C 
HETATM   36  C   UNL     1      29.142  45.991  56.611  1.00  0.00     0.011 A 
HETATM   37  C   UNL     1      28.568  45.588  55.401  1.00  0.00     0.030 A 
ENDBRANCH  27  30
ENDBRANCH  25  26
ENDBRANCH   7  25
TORSDOF 7
ENDMDL
MODEL 2
REMARK VINA RESULT:      -9.6      1.833      2.736
REMARK  7 active torsions:
REMARK  status: ('A' for Active; 'I' for Inactive)
REMARK    1  A    between atoms: C_2  and  N_3 
REMARK    2  A    between atoms: C_5  and  C_6 
REMARK    3  A    between atoms: C_6  and  N_7 
REMARK       I    between atoms: N_7  and  C_8 
REMARK    4  A    between atoms: C_8  and  C_9 
REMARK    5  A    between atoms: N_15  and  C_16 
REMARK    6  A    between atoms: C_16  and  C_17 
REMARK       I    between atoms: C_17  and  N_18 
REMARK    7  A    between atoms: N_18  and  C_19 
ROOT
HETATM    1  C   UNL     1      22.363  47.047  48.860  1.00  0.00     0.081 C 
HETATM    2  S   UNL     1      23.690  48.091  49.163  1.00  0.00    -0.063 SA
HETATM    3  C   UNL     1      24.677  46.816  49.683  1.00  0.00     0.116 C 
HETATM    4  C   UNL     1      24.034  45.600  49.611  1.00  0.00     0.075 C 
HETATM    5  C   UNL     1      24.745  44.448  50.155  1.00  0.00     0.262 C 
HETATM    6  O   UNL     1      24.300  43.303  50.130  1.00  0.00    -0.267 OA
HETATM    7  N   UNL     1      25.960  44.760  50.755  1.00  0.00    -0.299 N 
HETATM    8  C   UNL     1      26.510  46.024  50.673  1.00  0.00     0.214 C 
HETATM    9  N   UNL     1      25.927  47.054  50.152  1.00  0.00    -0.235 NA
HETATM   10  C   UNL     1      22.702  45.704  49.042  1.00  0.00    -0.021 C 
HETATM   11  C   UNL     1      21.795  44.537  48.798  1.00  0.00     0.051 C 
ENDROOT
BRANCH   1  12
HETATM   12  C   UNL     1      21.095  47.689  48.546  1.00  0.00     0.259 C 
HETATM   13  N   UNL     1      20.308  48.092  49.604  1.00  0.00    -0.354 N 
HETATM   14  H   UNL     1      20.473  47.630  50.493  1.00  0.00     0.162 HD
HETATM   15  O   UNL     1      20.727  47.974  47.403  1.00  0.00    -0.267 OA
BRANCH  13  16
HETATM   16  C   UNL     1      19.016  48.743  49.409  1.00  0.00     0.156 C 
BRANCH  16  17
HETATM   17  C   UNL     1      18.945  50.251  49.790  1.00  0.00     0.206 C 
HETATM   18  N   UNL     1      18.213  51.082  48.734  1.00  0.00    -0.066 N 
HETATM   19  H   UNL     1      18.115  50.477  47.890  1.00  0.00     0.280 HD
HETATM   20  C   UNL     1      19.121  52.217  48.329  1.00  0.00     0.235 C 
HETATM   21  C   UNL     1      20.507  51.697  48.636  1.00  0.00     0.030 C 
HETATM   22  C   UNL     1      20.313  50.923  49.924  1.00  0.00     0.036 C 
BRANCH  18  23
HETATM   23  C   UNL     1      16.817  51.485  49.109  1.00  0.00     0.231 C 
HETATM   24  C   UNL     1      16.833  52.753  49.942  1.00  0.00     0.034 C 
ENDBRANCH  18  23
ENDBRANCH  16  17
ENDBRANCH  13  16
ENDBRANCH   1  12
BRANCH   7  25
HETATM   25  C   UNL     1      26.618  43.738  51.544  1.00  0.00     0.236 C 
BRANCH  25  26
HETATM   26  C   UNL     1      26.820  44.201  52.981  1.00  0.00     0.240 C 
HETATM   27  N   UNL     1      28.112  44.622  53.232  1.00  0.00    -0.326 N 
HETATM   28  H   UNL     1      28.677  44.873  52.421  1.00  0.00     0.169 HD
HETATM   29  O   UNL     1      25.878  44.224  53.767  1.00  0.00    -0.271 OA
BRANCH  27  30
HETATM   30  C   UNL     1      28.712  44.801  54.495  1.00  0.00     0.036 A 
HETATM   31  C   UNL     1      29.753  44.004  54.973  1.00  0.00     0.053 A 
HETATM   32  C   UNL     1      30.362  44.296  56.200  1.00  0.00     0.042 A 
HETATM   33 CL   UNL     1      31.668  43.286  56.712  1.00  0.00    -0.084 Cl
HETATM   34  C   UNL     1      29.937  45.386  56.974  1.00  0.00    -0.040 A 
HETATM   35  C   UNL     1      30.590  45.736  58.281  1.00  0.00     0.050 C 
HETATM   36  C   UNL     1      28.880  46.171  56.495  1.00  0.00     0.011 A 
HETATM   37  C   UNL     1      28.278  45.884  55.266  1.00  0.00     0.030 A 
ENDBRANCH  27  30
ENDBRANCH  25  26
ENDBRANCH   7  25
TORSDOF 7
ENDMDL
MODEL 3
REMARK VINA RESULT:      -9.3      1.372      2.156
REMARK  7 active torsions:
REMARK  status: ('A' for Active; 'I' for Inactive)
REMARK    1  A    between atoms: C_2  and  N_3 
REMARK    2  A    between atoms: C_5  and  C_6 
REMARK    3  A    between atoms: C_6  and  N_7 
REMARK       I    between atoms: N_7  and  C_8 
REMARK    4  A    between atoms: C_8  and  C_9 
REMARK    5  A    between atoms: N_15  and  C_16 
REMARK    6  A    between atoms: C_16  and  C_17 
REMARK       I    between atoms: C_17  and  N_18 
REMARK    7  A    between atoms: N_18  and  C_19 
ROOT
HETATM    1  C   UNL     1      23.147  46.105  49.210  1.00  0.00     0.081 C 
HETATM    2  S   UNL     1      22.503  44.518  49.307  1.00  0.00    -0.063 SA
HETATM    3  C   UNL     1      23.907  43.907  50.033  1.00  0.00     0.116 C 
HETATM    4  C   UNL     1      24.855  44.886  50.231  1.00  0.00     0.075 C 
HETATM    5  C   UNL     1      26.154  44.449  50.733  1.00  0.00     0.262 C 
HETATM    6  O   UNL     1      27.079  45.220  50.980  1.00  0.00    -0.267 OA
HETATM    7  N   UNL     1      26.280  43.070  50.863  1.00  0.00    -0.299 N 
HETATM    8  C   UNL     1      25.203  42.221  50.700  1.00  0.00     0.214 C 
HETATM    9  N   UNL     1      24.026  42.584  50.307  1.00  0.00    -0.235 NA
HETATM   10  C   UNL     1      24.390  46.204  49.838  1.00  0.00    -0.021 C 
HETATM   11  C   UNL     1      25.191  47.461  49.988  1.00  0.00     0.051 C 
ENDROOT
BRANCH   1  12
HETATM   12  C   UNL     1      22.371  47.070  48.445  1.00  0.00     0.259 C 
HETATM   13  N   UNL     1      21.806  48.121  49.136  1.00  0.00    -0.354 N 
HETATM   14  H   UNL     1      21.668  47.986  50.133  1.00  0.00     0.162 HD
HETATM   15  O   UNL     1      22.262  47.054  47.216  1.00  0.00    -0.267 OA
BRANCH  13  16
HETATM   16  C   UNL     1      21.004  49.145  48.474  1.00  0.00     0.156 C 
BRANCH  16  17
HETATM   17  C   UNL     1      19.892  49.809  49.340  1.00  0.00     0.206 C 
HETATM   18  N   UNL     1      18.531  49.801  48.641  1.00  0.00    -0.066 N 
HETATM   19  H   UNL     1      18.705  49.541  47.646  1.00  0.00     0.280 HD
HETATM   20  C   UNL     1      18.016  51.219  48.617  1.00  0.00     0.235 C 
HETATM   21  C   UNL     1      19.269  52.059  48.698  1.00  0.00     0.030 C 
HETATM   22  C   UNL     1      20.149  51.283  49.658  1.00  0.00     0.036 C 
BRANCH  18  23
HETATM   23  C   UNL     1      17.563  48.779  49.163  1.00  0.00     0.231 C 
HETATM   24  C   UNL     1      16.554  48.405  48.094  1.00  0.00     0.034 C 
ENDBRANCH  18  23
ENDBRANCH  16  17
ENDBRANCH  13  16
ENDBRANCH   1  12
BRANCH   7  25
HETATM   25  C   UNL     1      27.600  42.522  51.106  1.00  0.00     0.236 C 
BRANCH  25  26
HETATM   26  C   UNL     1      27.942  42.557  52.589  1.00  0.00     0.240 C 
HETATM   27  N   UNL     1      28.529  43.747  52.976  1.00  0.00    -0.326 N 
HETATM   28  H   UNL     1      28.391  44.546  52.358  1.00  0.00     0.169 HD
HETATM   29  O   UNL     1      27.650  41.615  53.319  1.00  0.00    -0.271 OA
BRANCH  27  30
HETATM   30  C   UNL     1      29.246  43.987  54.165  1.00  0.00     0.036 A 
HETATM   31  C   UNL     1      28.869  44.938  55.114  1.00  0.00     0.053 A 
HETATM   32  C   UNL     1      29.577  45.060  56.315  1.00  0.00     0.042 A 
HETATM   33 CL   UNL     1      29.030  46.236  57.458  1.00  0.00    -0.084 Cl
HETATM   34  C   UNL     1      30.681  44.238  56.588  1.00  0.00    -0.040 A 
HETATM   35  C   UNL     1      31.442  44.331  57.880  1.00  0.00     0.050 C 
HETATM   36  C   UNL     1      31.064  43.297  55.623  1.00  0.00     0.011 A 
HETATM   37  C   UNL     1      30.351  43.171  54.426  1.00  0.00     0.030 A 
ENDBRANCH  27  30
ENDBRANCH  25  26
ENDBRANCH   7  25
TORSDOF 7
ENDMDL
MODEL 4
REMARK VINA RESULT:      -9.1      2.113      3.319
REMARK  7 active torsions:
REMARK  status: ('A' for Active; 'I' for Inactive)
REMARK    1  A    between atoms: C_2  and  N_3 
REMARK    2  A    between atoms: C_5  and  C_6 
REMARK    3  A    between atoms: C_6  and  N_7 
REMARK       I    between atoms: N_7  and  C_8 
REMARK    4  A    between atoms: C_8  and  C_9 
REMARK    5  A    between atoms: N_15  and  C_16 
REMARK    6  A    between atoms: C_16  and  C_17 
REMARK       I    between atoms: C_17  and  N_18 
REMARK    7  A    between atoms: N_18  and  C_19 
ROOT
HETATM    1  C   UNL     1      21.865  46.821  48.626  1.00  0.00     0.081 C 
HETATM    2  S   UNL     1      23.302  47.543  49.225  1.00  0.00    -0.063 SA
HETATM    3  C   UNL     1      24.042  46.042  49.487  1.00  0.00     0.116 C 
HETATM    4  C   UNL     1      23.234  44.993  49.107  1.00  0.00     0.075 C 
HETATM    5  C   UNL     1      23.719  43.650  49.406  1.00  0.00     0.262 C 
HETATM    6  O   UNL     1      23.113  42.626  49.097  1.00  0.00    -0.267 OA
HETATM    7  N   UNL     1      24.911  43.621  50.122  1.00  0.00    -0.299 N 
HETATM    8  C   UNL     1      25.647  44.765  50.359  1.00  0.00     0.214 C 
HETATM    9  N   UNL     1      25.269  45.965  50.059  1.00  0.00    -0.235 NA
HETATM   10  C   UNL     1      21.986  45.435  48.512  1.00  0.00    -0.021 C 
HETATM   11  C   UNL     1      20.940  44.513  47.962  1.00  0.00     0.051 C 
ENDROOT
BRANCH   1  12
HETATM   12  C   UNL     1      20.738  47.715  48.406  1.00  0.00     0.259 C 
HETATM   13  N   UNL     1      19.941  48.012  49.491  1.00  0.00    -0.354 N 
HETATM   14  H   UNL     1      19.965  47.354  50.264  1.00  0.00     0.162 HD
HETATM   15  O   UNL     1      20.507  48.289  47.337  1.00  0.00    -0.267 OA
BRANCH  13  16
HETATM   16  C   UNL     1      18.782  48.892  49.387  1.00  0.00     0.156 C 
BRANCH  16  17
HETATM   17  C   UNL     1      18.984  50.353  49.889  1.00  0.00     0.206 C 
HETATM   18  N   UNL     1      18.144  51.359  49.100  1.00  0.00    -0.066 N 
HETATM   19  H   UNL     1      17.786  50.857  48.258  1.00  0.00     0.280 HD
HETATM   20  C   UNL     1      19.072  52.431  48.583  1.00  0.00     0.235 C 
HETATM   21  C   UNL     1      20.416  51.742  48.516  1.00  0.00     0.030 C 
HETATM   22  C   UNL     1      20.420  50.864  49.752  1.00  0.00     0.036 C 
BRANCH  18  23
HETATM   23  C   UNL     1      16.927  51.862  49.820  1.00  0.00     0.231 C 
HETATM   24  C   UNL     1      15.678  51.617  48.994  1.00  0.00     0.034 C 
ENDBRANCH  18  23
ENDBRANCH  16  17
ENDBRANCH  13  16
ENDBRANCH   1  12
BRANCH   7  25
HETATM   25  C   UNL     1      25.341  42.357  50.687  1.00  0.00     0.236 C 
BRANCH  25  26
HETATM   26  C   UNL     1      26.732  42.476  51.295  1.00  0.00     0.240 C 
HETATM   27  N   UNL     1      26.703  42.739  52.652  1.00  0.00    -0.326 N 
HETATM   28  H   UNL     1      25.835  42.522  53.141  1.00  0.00     0.169 HD
HETATM   29  O   UNL     1      27.732  42.292  50.608  1.00  0.00    -0.271 OA
BRANCH  27  30
HETATM   30  C   UNL     1      27.767  43.217  53.442  1.00  0.00     0.036 A 
HETATM   31  C   UNL     1      27.824  44.514  53.955  1.00  0.00     0.053 A 
HETATM   32  C   UNL     1      28.867  44.893  54.808  1.00  0.00     0.042 A 
HETATM   33 CL   UNL     1      28.852  46.506  55.433  1.00  0.00    -0.084 Cl
HETATM   34  C   UNL     1      29.877  43.986  55.159  1.00  0.00    -0.040 A 
HETATM   35  C   UNL     1      30.993  44.360  56.093  1.00  0.00     0.050 C 
HETATM   36  C   UNL     1      29.823  42.691  54.627  1.00  0.00     0.011 A 
HETATM   37  C   UNL     1      28.776  42.310  53.781  1.00  0.00     0.030 A 
ENDBRANCH  27  30
ENDBRANCH  25  26
ENDBRANCH   7  25
TORSDOF 7
ENDMDL
MODEL 5
REMARK VINA RESULT:      -9.1      4.076     11.061
REMARK  7 active torsions:
REMARK  status: ('A' for Active; 'I' for Inactive)
REMARK    1  A    between atoms: C_2  and  N_3 
REMARK    2  A    between atoms: C_5  and  C_6 
REMARK    3  A    between atoms: C_6  and  N_7 
REMARK       I    between atoms: N_7  and  C_8 
REMARK    4  A    between atoms: C_8  and  C_9 
REMARK    5  A    between atoms: N_15  and  C_16 
REMARK    6  A    between atoms: C_16  and  C_17 
REMARK       I    between atoms: C_17  and  N_18 
REMARK    7  A    between atoms: N_18  and  C_19 
ROOT
HETATM    1  C   UNL     1      25.874  45.225  50.862  1.00  0.00     0.081 C 
HETATM    2  S   UNL     1      25.974  46.915  51.145  1.00  0.00    -0.063 SA
HETATM    3  C   UNL     1      24.568  47.228  50.253  1.00  0.00     0.116 C 
HETATM    4  C   UNL     1      23.999  46.074  49.760  1.00  0.00     0.075 C 
HETATM    5  C   UNL     1      22.855  46.235  48.870  1.00  0.00     0.262 C 
HETATM    6  O   UNL     1      22.236  45.291  48.382  1.00  0.00    -0.267 OA
HETATM    7  N   UNL     1      22.546  47.558  48.573  1.00  0.00    -0.299 N 
HETATM    8  C   UNL     1      23.163  48.613  49.216  1.00  0.00     0.214 C 
HETATM    9  N   UNL     1      24.145  48.500  50.050  1.00  0.00    -0.235 NA
HETATM   10  C   UNL     1      24.702  44.877  50.186  1.00  0.00    -0.021 C 
HETATM   11  C   UNL     1      24.278  43.482  49.842  1.00  0.00     0.051 C 
ENDROOT
BRANCH   1  12
HETATM   12  C   UNL     1      27.020  44.432  51.282  1.00  0.00     0.259 C 
HETATM   13  N   UNL     1      27.474  44.607  52.572  1.00  0.00    -0.354 N 
HETATM   14  H   UNL     1      27.229  45.482  53.024  1.00  0.00     0.162 HD
HETATM   15  O   UNL     1      27.548  43.558  50.589  1.00  0.00    -0.267 OA
BRANCH  13  16
HETATM   16  C   UNL     1      28.618  43.869  53.100  1.00  0.00     0.156 C 
BRANCH  16  17
HETATM   17  C   UNL     1      28.768  43.856  54.649  1.00  0.00     0.206 C 
HETATM   18  N   UNL     1      29.221  45.210  55.200  1.00  0.00    -0.066 N 
HETATM   19  H   UNL     1      29.536  45.777  54.383  1.00  0.00     0.280 HD
HETATM   20  C   UNL     1      30.451  44.976  56.043  1.00  0.00     0.235 C 
HETATM   21  C   UNL     1      31.037  43.700  55.481  1.00  0.00     0.030 C 
HETATM   22  C   UNL     1      29.813  42.864  55.165  1.00  0.00     0.036 C 
BRANCH  18  23
HETATM   23  C   UNL     1      28.140  46.014  55.860  1.00  0.00     0.231 C 
HETATM   24  C   UNL     1      27.905  47.311  55.108  1.00  0.00     0.034 C 
ENDBRANCH  18  23
ENDBRANCH  16  17
ENDBRANCH  13  16
ENDBRANCH   1  12
BRANCH   7  25
HETATM   25  C   UNL     1      21.599  47.819  47.507  1.00  0.00     0.236 C 
BRANCH  25  26
HETATM   26  C   UNL     1      20.305  48.404  48.056  1.00  0.00     0.240 C 
HETATM   27  N   UNL     1      20.016  49.651  47.534  1.00  0.00    -0.326 N 
HETATM   28  H   UNL     1      20.480  49.899  46.661  1.00  0.00     0.169 HD
HETATM   29  O   UNL     1      19.611  47.761  48.837  1.00  0.00    -0.271 OA
BRANCH  27  30
HETATM   30  C   UNL     1      19.099  50.590  48.047  1.00  0.00     0.036 A 
HETATM   31  C   UNL     1      17.839  50.819  47.494  1.00  0.00     0.053 A 
HETATM   32  C   UNL     1      16.944  51.701  48.111  1.00  0.00     0.042 A 
HETATM   33 CL   UNL     1      15.387  51.909  47.387  1.00  0.00    -0.084 Cl
HETATM   34  C   UNL     1      17.295  52.378  49.288  1.00  0.00    -0.040 A 
HETATM   35  C   UNL     1      16.344  53.311  49.984  1.00  0.00     0.050 C 
HETATM   36  C   UNL     1      18.569  52.156  49.829  1.00  0.00     0.011 A 
HETATM   37  C   UNL     1      19.459  51.268  49.216  1.00  0.00     0.030 A 
ENDBRANCH  27  30
ENDBRANCH  25  26
ENDBRANCH   7  25
TORSDOF 7
ENDMDL
MODEL 6
REMARK VINA RESULT:      -9.0      2.438      4.150
REMARK  7 active torsions:
REMARK  status: ('A' for Active; 'I' for Inactive)
REMARK    1  A    between atoms: C_2  and  N_3 
REMARK    2  A    between atoms: C_5  and  C_6 
REMARK    3  A    between atoms: C_6  and  N_7 
REMARK       I    between atoms: N_7  and  C_8 
REMARK    4  A    between atoms: C_8  and  C_9 
REMARK    5  A    between atoms: N_15  and  C_16 
REMARK    6  A    between atoms: C_16  and  C_17 
REMARK       I    between atoms: C_17  and  N_18 
REMARK    7  A    between atoms: N_18  and  C_19 
ROOT
HETATM    1  C   UNL     1      21.789  49.105  48.483  1.00  0.00     0.081 C 
HETATM    2  S   UNL     1      23.077  49.628  49.489  1.00  0.00    -0.063 SA
HETATM    3  C   UNL     1      23.778  48.086  49.528  1.00  0.00     0.116 C 
HETATM    4  C   UNL     1      23.072  47.177  48.771  1.00  0.00     0.075 C 
HETATM    5  C   UNL     1      23.513  45.788  48.836  1.00  0.00     0.262 C 
HETATM    6  O   UNL     1      22.991  44.880  48.191  1.00  0.00    -0.267 OA
HETATM    7  N   UNL     1      24.550  45.560  49.733  1.00  0.00    -0.299 N 
HETATM    8  C   UNL     1      25.211  46.597  50.362  1.00  0.00     0.214 C 
HETATM    9  N   UNL     1      24.877  47.844  50.284  1.00  0.00    -0.235 NA
HETATM   10  C   UNL     1      21.950  47.780  48.074  1.00  0.00    -0.021 C 
HETATM   11  C   UNL     1      21.040  47.040  47.142  1.00  0.00     0.051 C 
ENDROOT
BRANCH   1  12
HETATM   12  C   UNL     1      20.709  50.058  48.270  1.00  0.00     0.259 C 
HETATM   13  N   UNL     1      20.171  50.666  49.385  1.00  0.00    -0.354 N 
HETATM   14  H   UNL     1      20.301  50.186  50.270  1.00  0.00     0.162 HD
HETATM   15  O   UNL     1      20.312  50.418  47.159  1.00  0.00    -0.267 OA
BRANCH  13  16
HETATM   16  C   UNL     1      19.083  51.634  49.293  1.00  0.00     0.156 C 
BRANCH  16  17
HETATM   17  C   UNL     1      17.640  51.050  49.352  1.00  0.00     0.206 C 
HETATM   18  N   UNL     1      17.135  50.613  47.975  1.00  0.00    -0.066 N 
HETATM   19  H   UNL     1      17.797  51.008  47.273  1.00  0.00     0.280 HD
HETATM   20  C   UNL     1      15.812  51.298  47.732  1.00  0.00     0.235 C 
HETATM   21  C   UNL     1      15.878  52.532  48.601  1.00  0.00     0.030 C 
HETATM   22  C   UNL     1      16.587  52.042  49.849  1.00  0.00     0.036 C 
BRANCH  18  23
HETATM   23  C   UNL     1      17.137  49.130  47.747  1.00  0.00     0.231 C 
HETATM   24  C   UNL     1      17.467  48.392  49.031  1.00  0.00     0.034 C 
ENDBRANCH  18  23
ENDBRANCH  16  17
ENDBRANCH  13  16
ENDBRANCH   1  12
BRANCH   7  25
HETATM   25  C   UNL     1      24.886  44.188  50.060  1.00  0.00     0.236 C 
BRANCH  25  26
HETATM   26  C   UNL     1      26.322  44.081  50.556  1.00  0.00     0.240 C 
HETATM   27  N   UNL     1      26.408  43.583  51.843  1.00  0.00    -0.326 N 
HETATM   28  H   UNL     1      25.598  43.070  52.190  1.00  0.00     0.169 HD
HETATM   29  O   UNL     1      27.260  44.371  49.821  1.00  0.00    -0.271 OA
BRANCH  27  30
HETATM   30  C   UNL     1      27.521  43.656  52.704  1.00  0.00     0.036 A 
HETATM   31  C   UNL     1      27.689  44.657  53.663  1.00  0.00     0.053 A 
HETATM   32  C   UNL     1      28.775  44.616  54.546  1.00  0.00     0.042 A 
HETATM   33 CL   UNL     1      28.900  45.871  55.729  1.00  0.00    -0.084 Cl
HETATM   34  C   UNL     1      29.717  43.579  54.482  1.00  0.00    -0.040 A 
HETATM   35  C   UNL     1      30.877  43.499  55.435  1.00  0.00     0.050 C 
HETATM   36  C   UNL     1      29.550  42.587  53.507  1.00  0.00     0.011 A 
HETATM   37  C   UNL     1      28.461  42.624  52.630  1.00  0.00     0.030 A 
ENDBRANCH  27  30
ENDBRANCH  25  26
ENDBRANCH   7  25
TORSDOF 7
ENDMDL
MODEL 7
REMARK VINA RESULT:      -8.9      2.248      3.245
REMARK  7 active torsions:
REMARK  status: ('A' for Active; 'I' for Inactive)
REMARK    1  A    between atoms: C_2  and  N_3 
REMARK    2  A    between atoms: C_5  and  C_6 
REMARK    3  A    between atoms: C_6  and  N_7 
REMARK       I    between atoms: N_7  and  C_8 
REMARK    4  A    between atoms: C_8  and  C_9 
REMARK    5  A    between atoms: N_15  and  C_16 
REMARK    6  A    between atoms: C_16  and  C_17 
REMARK       I    between atoms: C_17  and  N_18 
REMARK    7  A    between atoms: N_18  and  C_19 
ROOT
HETATM    1  C   UNL     1      23.625  48.853  48.939  1.00  0.00     0.081 C 
HETATM    2  S   UNL     1      25.333  49.013  48.916  1.00  0.00    -0.063 SA
HETATM    3  C   UNL     1      25.571  47.379  49.299  1.00  0.00     0.116 C 
HETATM    4  C   UNL     1      24.380  46.698  49.421  1.00  0.00     0.075 C 
HETATM    5  C   UNL     1      24.462  45.313  49.875  1.00  0.00     0.262 C 
HETATM    6  O   UNL     1      23.481  44.582  50.001  1.00  0.00    -0.267 OA
HETATM    7  N   UNL     1      25.746  44.896  50.206  1.00  0.00    -0.299 N 
HETATM    8  C   UNL     1      26.855  45.678  49.948  1.00  0.00     0.214 C 
HETATM    9  N   UNL     1      26.820  46.889  49.497  1.00  0.00    -0.235 NA
HETATM   10  C   UNL     1      23.227  47.527  49.122  1.00  0.00    -0.021 C 
HETATM   11  C   UNL     1      21.811  47.036  49.126  1.00  0.00     0.051 C 
ENDROOT
BRANCH   1  12
HETATM   12  C   UNL     1      22.860  50.088  48.847  1.00  0.00     0.259 C 
HETATM   13  N   UNL     1      21.706  50.065  48.093  1.00  0.00    -0.354 N 
HETATM   14  H   UNL     1      21.637  49.335  47.392  1.00  0.00     0.162 HD
HETATM   15  O   UNL     1      23.132  51.118  49.469  1.00  0.00    -0.267 OA
BRANCH  13  16
HETATM   16  C   UNL     1      20.863  51.245  47.927  1.00  0.00     0.156 C 
BRANCH  16  17
HETATM   17  C   UNL     1      19.827  51.510  49.059  1.00  0.00     0.206 C 
HETATM   18  N   UNL     1      19.025  50.257  49.417  1.00  0.00    -0.066 N 
HETATM   19  H   UNL     1      19.209  49.557  48.666  1.00  0.00     0.280 HD
HETATM   20  C   UNL     1      17.559  50.602  49.314  1.00  0.00     0.235 C 
HETATM   21  C   UNL     1      17.528  51.756  48.338  1.00  0.00     0.030 C 
HETATM   22  C   UNL     1      18.766  52.553  48.699  1.00  0.00     0.036 C 
BRANCH  18  23
HETATM   23  C   UNL     1      19.435  49.594  50.699  1.00  0.00     0.231 C 
HETATM   24  C   UNL     1      18.493  48.453  51.036  1.00  0.00     0.034 C 
ENDBRANCH  18  23
ENDBRANCH  16  17
ENDBRANCH  13  16
ENDBRANCH   1  12
BRANCH   7  25
HETATM   25  C   UNL     1      25.900  43.635  50.903  1.00  0.00     0.236 C 
BRANCH  25  26
HETATM   26  C   UNL     1      26.469  43.848  52.300  1.00  0.00     0.240 C 
HETATM   27  N   UNL     1      27.816  44.158  52.289  1.00  0.00    -0.326 N 
HETATM   28  H   UNL     1      28.197  44.508  51.410  1.00  0.00     0.169 HD
HETATM   29  O   UNL     1      25.741  43.790  53.286  1.00  0.00    -0.271 OA
BRANCH  27  30
HETATM   30  C   UNL     1      28.705  44.099  53.381  1.00  0.00     0.036 A 
HETATM   31  C   UNL     1      28.643  44.966  54.472  1.00  0.00     0.053 A 
HETATM   32  C   UNL     1      29.501  44.792  55.565  1.00  0.00     0.042 A 
HETATM   33 CL   UNL     1      29.343  45.884  56.896  1.00  0.00    -0.084 Cl
HETATM   34  C   UNL     1      30.442  43.753  55.583  1.00  0.00    -0.040 A 
HETATM   35  C   UNL     1      31.357  43.529  56.754  1.00  0.00     0.050 C 
HETATM   36  C   UNL     1      30.510  42.897  54.476  1.00  0.00     0.011 A 
HETATM   37  C   UNL     1      29.647  43.066  53.389  1.00  0.00     0.030 A 
ENDBRANCH  27  30
ENDBRANCH  25  26
ENDBRANCH   7  25
TORSDOF 7
ENDMDL
MODEL 8
REMARK VINA RESULT:      -8.9      2.678      4.518
REMARK  7 active torsions:
REMARK  status: ('A' for Active; 'I' for Inactive)
REMARK    1  A    between atoms: C_2  and  N_3 
REMARK    2  A    between atoms: C_5  and  C_6 
REMARK    3  A    between atoms: C_6  and  N_7 
REMARK       I    between atoms: N_7  and  C_8 
REMARK    4  A    between atoms: C_8  and  C_9 
REMARK    5  A    between atoms: N_15  and  C_16 
REMARK    6  A    between atoms: C_16  and  C_17 
REMARK       I    between atoms: C_17  and  N_18 
REMARK    7  A    between atoms: N_18  and  C_19 
ROOT
HETATM    1  C   UNL     1      21.290  49.539  49.099  1.00  0.00     0.081 C 
HETATM    2  S   UNL     1      22.815  50.146  49.600  1.00  0.00    -0.063 SA
HETATM    3  C   UNL     1      23.569  48.642  49.400  1.00  0.00     0.116 C 
HETATM    4  C   UNL     1      22.696  47.683  48.935  1.00  0.00     0.075 C 
HETATM    5  C   UNL     1      23.206  46.319  48.848  1.00  0.00     0.262 C 
HETATM    6  O   UNL     1      22.545  45.373  48.424  1.00  0.00    -0.267 OA
HETATM    7  N   UNL     1      24.499  46.162  49.335  1.00  0.00    -0.299 N 
HETATM    8  C   UNL     1      25.278  47.243  49.696  1.00  0.00     0.214 C 
HETATM    9  N   UNL     1      24.872  48.470  49.733  1.00  0.00    -0.235 NA
HETATM   10  C   UNL     1      21.373  48.215  48.663  1.00  0.00    -0.021 C 
HETATM   11  C   UNL     1      20.239  47.411  48.102  1.00  0.00     0.051 C 
ENDROOT
BRANCH   1  12
HETATM   12  C   UNL     1      20.153  50.433  49.267  1.00  0.00     0.259 C 
HETATM   13  N   UNL     1      20.031  51.478  48.377  1.00  0.00    -0.354 N 
HETATM   14  H   UNL     1      20.878  51.767  47.897  1.00  0.00     0.162 HD
HETATM   15  O   UNL     1      19.254  50.261  50.094  1.00  0.00    -0.267 OA
BRANCH  13  16
HETATM   16  C   UNL     1      18.934  52.439  48.452  1.00  0.00     0.156 C 
BRANCH  16  17
HETATM   17  C   UNL     1      17.673  52.106  47.602  1.00  0.00     0.206 C 
HETATM   18  N   UNL     1      16.525  51.562  48.455  1.00  0.00    -0.066 N 
HETATM   19  H   UNL     1      16.927  51.335  49.391  1.00  0.00     0.280 HD
HETATM   20  C   UNL     1      16.091  50.245  47.858  1.00  0.00     0.235 C 
HETATM   21  C   UNL     1      17.320  49.758  47.127  1.00  0.00     0.030 C 
HETATM   22  C   UNL     1      17.905  51.028  46.541  1.00  0.00     0.036 C 
BRANCH  18  23
HETATM   23  C   UNL     1      15.418  52.540  48.715  1.00  0.00     0.231 C 
HETATM   24  C   UNL     1      15.273  52.799  50.204  1.00  0.00     0.034 C 
ENDBRANCH  18  23
ENDBRANCH  16  17
ENDBRANCH  13  16
ENDBRANCH   1  12
BRANCH   7  25
HETATM   25  C   UNL     1      25.000  44.816  49.530  1.00  0.00     0.236 C 
BRANCH  25  26
HETATM   26  C   UNL     1      26.269  44.821  50.372  1.00  0.00     0.240 C 
HETATM   27  N   UNL     1      26.030  44.525  51.702  1.00  0.00    -0.326 N 
HETATM   28  H   UNL     1      25.154  44.048  51.913  1.00  0.00     0.169 HD
HETATM   29  O   UNL     1      27.362  45.022  49.853  1.00  0.00    -0.271 OA
BRANCH  27  30
HETATM   30  C   UNL     1      26.899  44.755  52.787  1.00  0.00     0.036 A 
HETATM   31  C   UNL     1      27.971  43.921  53.107  1.00  0.00     0.053 A 
HETATM   32  C   UNL     1      28.848  44.260  54.144  1.00  0.00     0.042 A 
HETATM   33 CL   UNL     1      30.173  43.196  54.461  1.00  0.00    -0.084 Cl
HETATM   34  C   UNL     1      28.666  45.437  54.886  1.00  0.00    -0.040 A 
HETATM   35  C   UNL     1      29.607  45.837  55.986  1.00  0.00     0.050 C 
HETATM   36  C   UNL     1      27.578  46.261  54.569  1.00  0.00     0.011 A 
HETATM   37  C   UNL     1      26.707  45.926  53.528  1.00  0.00     0.030 A 
ENDBRANCH  27  30
ENDBRANCH  25  26
ENDBRANCH   7  25
TORSDOF 7
ENDMDL
MODEL 9
REMARK VINA RESULT:      -8.6      1.498      1.933
REMARK  7 active torsions:
REMARK  status: ('A' for Active; 'I' for Inactive)
REMARK    1  A    between atoms: C_2  and  N_3 
REMARK    2  A    between atoms: C_5  and  C_6 
REMARK    3  A    between atoms: C_6  and  N_7 
REMARK       I    between atoms: N_7  and  C_8 
REMARK    4  A    between atoms: C_8  and  C_9 
REMARK    5  A    between atoms: N_15  and  C_16 
REMARK    6  A    between atoms: C_16  and  C_17 
REMARK       I    between atoms: C_17  and  N_18 
REMARK    7  A    between atoms: N_18  and  C_19 
ROOT
HETATM    1  C   UNL     1      23.047  44.862  49.056  1.00  0.00     0.081 C 
HETATM    2  S   UNL     1      24.167  46.109  49.424  1.00  0.00    -0.063 SA
HETATM    3  C   UNL     1      25.409  45.004  49.754  1.00  0.00     0.116 C 
HETATM    4  C   UNL     1      25.006  43.700  49.568  1.00  0.00     0.075 C 
HETATM    5  C   UNL     1      25.956  42.660  49.947  1.00  0.00     0.262 C 
HETATM    6  O   UNL     1      25.736  41.458  49.809  1.00  0.00    -0.267 OA
HETATM    7  N   UNL     1      27.123  43.139  50.531  1.00  0.00    -0.299 N 
HETATM    8  C   UNL     1      27.416  44.488  50.574  1.00  0.00     0.214 C 
HETATM    9  N   UNL     1      26.617  45.432  50.198  1.00  0.00    -0.235 NA
HETATM   10  C   UNL     1      23.647  43.601  49.068  1.00  0.00    -0.021 C 
HETATM   11  C   UNL     1      22.965  42.310  48.727  1.00  0.00     0.051 C 
ENDROOT
BRANCH   1  12
HETATM   12  C   UNL     1      21.664  45.273  48.868  1.00  0.00     0.259 C 
HETATM   13  N   UNL     1      21.408  46.626  48.793  1.00  0.00    -0.354 N 
HETATM   14  H   UNL     1      22.103  47.242  49.204  1.00  0.00     0.162 HD
HETATM   15  O   UNL     1      20.727  44.491  48.683  1.00  0.00    -0.267 OA
BRANCH  13  16
HETATM   16  C   UNL     1      20.060  47.154  48.611  1.00  0.00     0.156 C 
BRANCH  16  17
HETATM   17  C   UNL     1      19.950  48.692  48.394  1.00  0.00     0.206 C 
HETATM   18  N   UNL     1      21.176  49.441  48.921  1.00  0.00    -0.066 N 
HETATM   19  H   UNL     1      21.715  48.763  49.502  1.00  0.00     0.280 HD
HETATM   20  C   UNL     1      20.692  50.511  49.869  1.00  0.00     0.235 C 
HETATM   21  C   UNL     1      19.360  49.986  50.354  1.00  0.00     0.030 C 
HETATM   22  C   UNL     1      18.767  49.339  49.118  1.00  0.00     0.036 C 
BRANCH  18  23
HETATM   23  C   UNL     1      22.128  49.912  47.860  1.00  0.00     0.231 C 
HETATM   24  C   UNL     1      23.050  50.985  48.409  1.00  0.00     0.034 C 
ENDBRANCH  18  23
ENDBRANCH  16  17
ENDBRANCH  13  16
ENDBRANCH   1  12
BRANCH   7  25
HETATM   25  C   UNL     1      28.011  42.189  51.171  1.00  0.00     0.236 C 
BRANCH  25  26
HETATM   26  C   UNL     1      28.100  42.447  52.669  1.00  0.00     0.240 C 
HETATM   27  N   UNL     1      28.538  43.724  52.968  1.00  0.00    -0.326 N 
HETATM   28  H   UNL     1      28.453  44.420  52.228  1.00  0.00     0.169 HD
HETATM   29  O   UNL     1      27.753  41.587  53.472  1.00  0.00    -0.271 OA
BRANCH  27  30
HETATM   30  C   UNL     1      29.032  44.178  54.207  1.00  0.00     0.036 A 
HETATM   31  C   UNL     1      29.980  43.484  54.960  1.00  0.00     0.053 A 
HETATM   32  C   UNL     1      30.493  44.040  56.138  1.00  0.00     0.042 A 
HETATM   33 CL   UNL     1      31.689  43.138  57.001  1.00  0.00    -0.084 Cl
HETATM   34  C   UNL     1      30.063  45.296  56.589  1.00  0.00    -0.040 A 
HETATM   35  C   UNL     1      30.617  45.926  57.837  1.00  0.00     0.050 C 
HETATM   36  C   UNL     1      29.099  45.980  55.837  1.00  0.00     0.011 A 
HETATM   37  C   UNL     1      28.593  45.428  54.656  1.00  0.00     0.030 A 
ENDBRANCH  27  30
ENDBRANCH  25  26
ENDBRANCH   7  25
TORSDOF 7
ENDMDL
MODEL 10
REMARK VINA RESULT:      -8.5      3.945     10.842
REMARK  7 active torsions:
REMARK  status: ('A' for Active; 'I' for Inactive)
REMARK    1  A    between atoms: C_2  and  N_3 
REMARK    2  A    between atoms: C_5  and  C_6 
REMARK    3  A    between atoms: C_6  and  N_7 
REMARK       I    between atoms: N_7  and  C_8 
REMARK    4  A    between atoms: C_8  and  C_9 
REMARK    5  A    between atoms: N_15  and  C_16 
REMARK    6  A    between atoms: C_16  and  C_17 
REMARK       I    between atoms: C_17  and  N_18 
REMARK    7  A    between atoms: N_18  and  C_19 
ROOT
HETATM    1  C   UNL     1      26.030  45.194  51.711  1.00  0.00     0.081 C 
HETATM    2  S   UNL     1      25.997  46.910  51.691  1.00  0.00    -0.063 SA
HETATM    3  C   UNL     1      24.665  46.951  50.643  1.00  0.00     0.116 C 
HETATM    4  C   UNL     1      24.221  45.688  50.321  1.00  0.00     0.075 C 
HETATM    5  C   UNL     1      23.160  45.601  49.324  1.00  0.00     0.262 C 
HETATM    6  O   UNL     1      22.652  44.541  48.964  1.00  0.00    -0.267 OA
HETATM    7  N   UNL     1      22.798  46.823  48.768  1.00  0.00    -0.299 N 
HETATM    8  C   UNL     1      23.283  48.019  49.260  1.00  0.00     0.214 C 
HETATM    9  N   UNL     1      24.186  48.131  50.179  1.00  0.00    -0.235 NA
HETATM   10  C   UNL     1      24.954  44.643  51.013  1.00  0.00    -0.021 C 
HETATM   11  C   UNL     1      24.653  43.180  50.892  1.00  0.00     0.051 C 
ENDROOT
BRANCH   1  12
HETATM   12  C   UNL     1      27.178  44.579  52.361  1.00  0.00     0.259 C 
HETATM   13  N   UNL     1      27.346  44.815  53.709  1.00  0.00    -0.354 N 
HETATM   14  H   UNL     1      26.892  45.642  54.084  1.00  0.00     0.162 HD
HETATM   15  O   UNL     1      27.952  43.796  51.804  1.00  0.00    -0.267 OA
BRANCH  13  16
HETATM   16  C   UNL     1      28.462  44.254  54.463  1.00  0.00     0.156 C 
BRANCH  16  17
HETATM   17  C   UNL     1      29.351  45.276  55.232  1.00  0.00     0.206 C 
HETATM   18  N   UNL     1      29.562  44.878  56.694  1.00  0.00    -0.066 N 
HETATM   19  H   UNL     1      28.880  44.116  56.899  1.00  0.00     0.280 HD
HETATM   20  C   UNL     1      29.153  46.048  57.555  1.00  0.00     0.235 C 
HETATM   21  C   UNL     1      28.168  46.803  56.692  1.00  0.00     0.030 C 
HETATM   22  C   UNL     1      28.760  46.686  55.301  1.00  0.00     0.036 C 
BRANCH  18  23
HETATM   23  C   UNL     1      30.914  44.303  56.999  1.00  0.00     0.231 C 
HETATM   24  C   UNL     1      31.247  43.179  56.036  1.00  0.00     0.034 C 
ENDBRANCH  18  23
ENDBRANCH  16  17
ENDBRANCH  13  16
ENDBRANCH   1  12
BRANCH   7  25
HETATM   25  C   UNL     1      21.944  46.819  47.597  1.00  0.00     0.236 C 
BRANCH  25  26
HETATM   26  C   UNL     1      20.611  47.496  47.890  1.00  0.00     0.240 C 
HETATM   27  N   UNL     1      20.576  48.814  47.473  1.00  0.00    -0.326 N 
HETATM   28  H   UNL     1      21.265  49.090  46.774  1.00  0.00     0.169 HD
HETATM   29  O   UNL     1      19.689  46.865  48.396  1.00  0.00    -0.271 OA
BRANCH  27  30
HETATM   30  C   UNL     1      19.649  49.799  47.866  1.00  0.00     0.036 A 
HETATM   31  C   UNL     1      18.268  49.598  47.875  1.00  0.00     0.053 A 
HETATM   32  C   UNL     1      17.410  50.590  48.364  1.00  0.00     0.042 A 
HETATM   33 CL   UNL     1      15.714  50.257  48.375  1.00  0.00    -0.084 Cl
HETATM   34  C   UNL     1      17.917  51.806  48.847  1.00  0.00    -0.040 A 
HETATM   35  C   UNL     1      17.020  52.877  49.402  1.00  0.00     0.050 C 
HETATM   36  C   UNL     1      19.303  52.007  48.821  1.00  0.00     0.011 A 
HETATM   37  C   UNL     1      20.160  51.012  48.339  1.00  0.00     0.030 A 
ENDBRANCH  27  30
ENDBRANCH  25  26
ENDBRANCH   7  25
TORSDOF 7
ENDMDL
