MODEL 1
REMARK VINA RESULT:      -8.6      0.000      0.000
REMARK  8 active torsions:
REMARK  status: ('A' for Active; 'I' for Inactive)
REMARK    1  A    between atoms: C_2  and  N_3 
REMARK       I    between atoms: N_3  and  C_4 
REMARK       I    between atoms: C_4  and  N_5 
REMARK       I    between atoms: N_5  and  C_6 
REMARK    2  A    between atoms: C_6  and  C_7 
REMARK    3  A    between atoms: C_7  and  S_8 
REMARK    4  A    between atoms: C_7  and  C_29 
REMARK    5  A    between atoms: S_8  and  C_9 
REMARK    6  A    between atoms: N_10  and  C_11 
REMARK    7  A    between atoms: C_18  and  C_19 
REMARK    8  A    between atoms: C_19  and  N_20 
ROOT
HETATM    1  C   UNL     1      25.255  43.517  50.053  1.00  0.00     0.197 A 
HETATM    2  N   UNL     1      25.238  44.658  50.838  1.00  0.00    -0.274 N 
HETATM    3  C   UNL     1      24.605  45.590  50.025  1.00  0.00     0.161 A 
HETATM    4  N   UNL     1      24.328  45.052  48.850  1.00  0.00    -0.132 NA
HETATM    5  N   UNL     1      24.743  43.762  48.870  1.00  0.00    -0.122 NA
ENDROOT
BRANCH   1   6
HETATM    6  S   UNL     1      25.598  41.912  50.600  1.00  0.00    -0.071 SA
BRANCH   6   7
HETATM    7  C   UNL     1      27.439  41.880  50.548  1.00  0.00     0.175 C 
BRANCH   7   8
HETATM    8  C   UNL     1      27.976  40.664  49.767  1.00  0.00     0.224 C 
HETATM    9  N   UNL     1      27.839  39.428  50.373  1.00  0.00    -0.178 NA
HETATM   10  C   UNL     1      27.503  38.360  49.612  1.00  0.00     0.300 C 
HETATM   11  H   UNL     1      27.155  39.466  51.121  1.00  0.00     0.141 HD
HETATM   12  N   UNL     1      28.438  37.795  48.815  1.00  0.00    -0.348 N 
HETATM   13  O   UNL     1      26.375  37.878  49.695  1.00  0.00    -0.254 OA
HETATM   14  H   UNL     1      28.095  36.978  48.324  1.00  0.00     0.163 HD
HETATM   15  O   UNL     1      28.652  40.842  48.750  1.00  0.00    -0.278 OA
BRANCH  12  16
HETATM   16  C   UNL     1      29.874  38.003  48.836  1.00  0.00     0.119 C 
HETATM   17  C   UNL     1      30.440  37.773  50.223  1.00  0.00     0.026 C 
ENDBRANCH  12  16
ENDBRANCH   7   8
BRANCH   7  18
HETATM   18  C   UNL     1      28.099  42.153  51.900  1.00  0.00    -0.035 A 
HETATM   19  C   UNL     1      27.600  41.646  53.110  1.00  0.00     0.009 A 
HETATM   20  C   UNL     1      28.249  41.903  54.321  1.00  0.00     0.001 A 
HETATM   21  C   UNL     1      29.404  42.679  54.347  1.00  0.00     0.000 A 
HETATM   22  C   UNL     1      29.916  43.195  53.160  1.00  0.00     0.001 A 
HETATM   23  C   UNL     1      29.274  42.931  51.947  1.00  0.00     0.009 A 
ENDBRANCH   7  18
ENDBRANCH   6   7
ENDBRANCH   1   6
BRANCH   2  24
HETATM   24  C   UNL     1      25.756  44.841  52.145  1.00  0.00     0.043 A 
HETATM   25  C   UNL     1      26.938  45.577  52.325  1.00  0.00     0.033 A 
HETATM   26  C   UNL     1      27.440  45.786  53.613  1.00  0.00     0.044 A 
HETATM   27  C   UNL     1      26.771  45.256  54.707  1.00  0.00     0.116 A 
HETATM   28  F   UNL     1      27.251  45.459  55.940  1.00  0.00    -0.206 F 
HETATM   29  C   UNL     1      25.610  44.510  54.540  1.00  0.00     0.044 A 
HETATM   30  C   UNL     1      25.100  44.295  53.257  1.00  0.00     0.033 A 
ENDBRANCH   2  24
BRANCH   3  31
HETATM   31  C   UNL     1      24.348  47.029  50.291  1.00  0.00     0.315 C 
BRANCH  31  32
HETATM   32  N   UNL     1      25.284  47.877  49.433  1.00  0.00    -0.064 N 
HETATM   33  H   UNL     1      25.409  47.307  48.576  1.00  0.00     0.280 HD
HETATM   34  C   UNL     1      24.640  49.169  48.989  1.00  0.00     0.235 C 
HETATM   35  C   UNL     1      25.535  49.854  47.968  1.00  0.00     0.028 C 
HETATM   36  C   UNL     1      26.940  50.075  48.517  1.00  0.00     0.003 C 
HETATM   37  C   UNL     1      27.546  48.773  49.031  1.00  0.00     0.028 C 
HETATM   38  C   UNL     1      26.640  48.082  50.042  1.00  0.00     0.235 C 
ENDBRANCH  31  32
ENDBRANCH   3  31
TORSDOF 8
ENDMDL
MODEL 2
REMARK VINA RESULT:      -8.4      2.810      4.205
REMARK  8 active torsions:
REMARK  status: ('A' for Active; 'I' for Inactive)
REMARK    1  A    between atoms: C_2  and  N_3 
REMARK       I    between atoms: N_3  and  C_4 
REMARK       I    between atoms: C_4  and  N_5 
REMARK       I    between atoms: N_5  and  C_6 
REMARK    2  A    between atoms: C_6  and  C_7 
REMARK    3  A    between atoms: C_7  and  S_8 
REMARK    4  A    between atoms: C_7  and  C_29 
REMARK    5  A    between atoms: S_8  and  C_9 
REMARK    6  A    between atoms: N_10  and  C_11 
REMARK    7  A    between atoms: C_18  and  C_19 
REMARK    8  A    between atoms: C_19  and  N_20 
ROOT
HETATM    1  C   UNL     1      25.203  45.546  52.297  1.00  0.00     0.197 A 
HETATM    2  N   UNL     1      24.791  45.524  50.974  1.00  0.00    -0.274 N 
HETATM    3  C   UNL     1      24.820  46.866  50.614  1.00  0.00     0.161 A 
HETATM    4  N   UNL     1      25.166  47.606  51.653  1.00  0.00    -0.132 NA
HETATM    5  N   UNL     1      25.396  46.779  52.701  1.00  0.00    -0.122 NA
ENDROOT
BRANCH   1   6
HETATM    6  S   UNL     1      25.706  44.176  53.226  1.00  0.00    -0.071 SA
BRANCH   6   7
HETATM    7  C   UNL     1      27.516  44.134  52.887  1.00  0.00     0.175 C 
BRANCH   7   8
HETATM    8  C   UNL     1      27.938  42.847  52.151  1.00  0.00     0.224 C 
HETATM    9  N   UNL     1      27.204  41.706  52.425  1.00  0.00    -0.178 NA
HETATM   10  C   UNL     1      26.910  40.860  51.410  1.00  0.00     0.300 C 
HETATM   11  H   UNL     1      26.318  41.942  52.859  1.00  0.00     0.141 HD
HETATM   12  N   UNL     1      27.875  40.046  50.927  1.00  0.00    -0.348 N 
HETATM   13  O   UNL     1      25.761  40.795  50.979  1.00  0.00    -0.254 OA
HETATM   14  H   UNL     1      27.539  39.423  50.202  1.00  0.00     0.163 HD
HETATM   15  O   UNL     1      28.991  42.830  51.509  1.00  0.00    -0.278 OA
BRANCH  12  16
HETATM   16  C   UNL     1      29.167  39.742  51.516  1.00  0.00     0.119 C 
HETATM   17  C   UNL     1      29.680  38.395  51.045  1.00  0.00     0.026 C 
ENDBRANCH  12  16
ENDBRANCH   7   8
BRANCH   7  18
HETATM   18  C   UNL     1      28.377  44.534  54.086  1.00  0.00    -0.035 A 
HETATM   19  C   UNL     1      29.458  43.762  54.541  1.00  0.00     0.009 A 
HETATM   20  C   UNL     1      30.232  44.178  55.629  1.00  0.00     0.001 A 
HETATM   21  C   UNL     1      29.935  45.367  56.287  1.00  0.00     0.000 A 
HETATM   22  C   UNL     1      28.866  46.147  55.855  1.00  0.00     0.001 A 
HETATM   23  C   UNL     1      28.098  45.738  54.762  1.00  0.00     0.009 A 
ENDBRANCH   7  18
ENDBRANCH   6   7
ENDBRANCH   1   6
BRANCH   2  24
HETATM   24  C   UNL     1      24.412  44.411  50.183  1.00  0.00     0.043 A 
HETATM   25  C   UNL     1      25.330  43.863  49.273  1.00  0.00     0.033 A 
HETATM   26  C   UNL     1      24.974  42.749  48.509  1.00  0.00     0.044 A 
HETATM   27  C   UNL     1      23.710  42.194  48.649  1.00  0.00     0.116 A 
HETATM   28  F   UNL     1      23.371  41.124  47.919  1.00  0.00    -0.206 F 
HETATM   29  C   UNL     1      22.786  42.738  49.533  1.00  0.00     0.044 A 
HETATM   30  C   UNL     1      23.132  43.853  50.302  1.00  0.00     0.033 A 
ENDBRANCH   2  24
BRANCH   3  31
HETATM   31  C   UNL     1      24.418  47.488  49.326  1.00  0.00     0.315 C 
BRANCH  31  32
HETATM   32  N   UNL     1      23.170  48.341  49.545  1.00  0.00    -0.064 N 
HETATM   33  H   UNL     1      23.003  48.268  50.565  1.00  0.00     0.280 HD
HETATM   34  C   UNL     1      23.421  49.804  49.263  1.00  0.00     0.235 C 
HETATM   35  C   UNL     1      22.215  50.617  49.708  1.00  0.00     0.028 C 
HETATM   36  C   UNL     1      20.934  50.120  49.050  1.00  0.00     0.003 C 
HETATM   37  C   UNL     1      20.735  48.625  49.280  1.00  0.00     0.028 C 
HETATM   38  C   UNL     1      21.951  47.815  48.847  1.00  0.00     0.235 C 
ENDBRANCH  31  32
ENDBRANCH   3  31
TORSDOF 8
ENDMDL
MODEL 3
REMARK VINA RESULT:      -8.3      3.868      8.519
REMARK  8 active torsions:
REMARK  status: ('A' for Active; 'I' for Inactive)
REMARK    1  A    between atoms: C_2  and  N_3 
REMARK       I    between atoms: N_3  and  C_4 
REMARK       I    between atoms: C_4  and  N_5 
REMARK       I    between atoms: N_5  and  C_6 
REMARK    2  A    between atoms: C_6  and  C_7 
REMARK    3  A    between atoms: C_7  and  S_8 
REMARK    4  A    between atoms: C_7  and  C_29 
REMARK    5  A    between atoms: S_8  and  C_9 
REMARK    6  A    between atoms: N_10  and  C_11 
REMARK    7  A    between atoms: C_18  and  C_19 
REMARK    8  A    between atoms: C_19  and  N_20 
ROOT
HETATM    1  C   UNL     1      25.178  45.495  51.262  1.00  0.00     0.197 A 
HETATM    2  N   UNL     1      25.685  44.320  51.793  1.00  0.00    -0.274 N 
HETATM    3  C   UNL     1      25.787  44.606  53.149  1.00  0.00     0.161 A 
HETATM    4  N   UNL     1      25.422  45.855  53.376  1.00  0.00    -0.132 NA
HETATM    5  N   UNL     1      25.050  46.407  52.196  1.00  0.00    -0.122 NA
ENDROOT
BRANCH   1   6
HETATM    6  S   UNL     1      24.502  45.686  49.681  1.00  0.00    -0.071 SA
BRANCH   6   7
HETATM    7  C   UNL     1      24.060  47.474  49.672  1.00  0.00     0.175 C 
BRANCH   7   8
HETATM    8  C   UNL     1      22.716  47.737  48.965  1.00  0.00     0.224 C 
HETATM    9  N   UNL     1      21.823  48.567  49.620  1.00  0.00    -0.178 NA
HETATM   10  C   UNL     1      21.105  49.456  48.894  1.00  0.00     0.300 C 
HETATM   11  H   UNL     1      22.292  49.106  50.340  1.00  0.00     0.141 HD
HETATM   12  N   UNL     1      20.060  49.018  48.157  1.00  0.00    -0.348 N 
HETATM   13  O   UNL     1      21.370  50.655  48.957  1.00  0.00    -0.254 OA
HETATM   14  H   UNL     1      19.565  49.768  47.690  1.00  0.00     0.163 HD
HETATM   15  O   UNL     1      22.412  47.078  47.968  1.00  0.00    -0.278 OA
BRANCH  12  16
HETATM   16  C   UNL     1      19.399  47.727  48.222  1.00  0.00     0.119 C 
HETATM   17  C   UNL     1      18.137  47.798  49.058  1.00  0.00     0.026 C 
ENDBRANCH  12  16
ENDBRANCH   7   8
BRANCH   7  18
HETATM   18  C   UNL     1      25.217  48.393  49.276  1.00  0.00    -0.035 A 
HETATM   19  C   UNL     1      26.552  48.136  49.628  1.00  0.00     0.009 A 
HETATM   20  C   UNL     1      27.580  48.993  49.224  1.00  0.00     0.001 A 
HETATM   21  C   UNL     1      27.294  50.126  48.470  1.00  0.00     0.000 A 
HETATM   22  C   UNL     1      25.977  50.403  48.112  1.00  0.00     0.001 A 
HETATM   23  C   UNL     1      24.949  49.542  48.505  1.00  0.00     0.009 A 
ENDBRANCH   7  18
ENDBRANCH   6   7
ENDBRANCH   1   6
BRANCH   2  24
HETATM   24  C   UNL     1      26.036  43.123  51.119  1.00  0.00     0.043 A 
HETATM   25  C   UNL     1      25.026  42.254  50.679  1.00  0.00     0.033 A 
HETATM   26  C   UNL     1      25.362  41.086  49.989  1.00  0.00     0.044 A 
HETATM   27  C   UNL     1      26.696  40.787  49.752  1.00  0.00     0.116 A 
HETATM   28  F   UNL     1      27.017  39.669  49.089  1.00  0.00    -0.206 F 
HETATM   29  C   UNL     1      27.706  41.629  50.200  1.00  0.00     0.044 A 
HETATM   30  C   UNL     1      27.381  42.800  50.890  1.00  0.00     0.033 A 
ENDBRANCH   2  24
BRANCH   3  31
HETATM   31  C   UNL     1      26.332  43.754  54.237  1.00  0.00     0.315 C 
BRANCH  31  32
HETATM   32  N   UNL     1      27.829  44.015  54.381  1.00  0.00    -0.064 N 
HETATM   33  H   UNL     1      28.065  44.552  53.527  1.00  0.00     0.280 HD
HETATM   34  C   UNL     1      28.142  44.921  55.549  1.00  0.00     0.235 C 
HETATM   35  C   UNL     1      29.610  45.315  55.503  1.00  0.00     0.028 C 
HETATM   36  C   UNL     1      30.515  44.088  55.473  1.00  0.00     0.003 C 
HETATM   37  C   UNL     1      30.137  43.146  54.334  1.00  0.00     0.028 C 
HETATM   38  C   UNL     1      28.662  42.766  54.375  1.00  0.00     0.235 C 
ENDBRANCH  31  32
ENDBRANCH   3  31
TORSDOF 8
ENDMDL
MODEL 4
REMARK VINA RESULT:      -7.8      3.731      7.596
REMARK  8 active torsions:
REMARK  status: ('A' for Active; 'I' for Inactive)
REMARK    1  A    between atoms: C_2  and  N_3 
REMARK       I    between atoms: N_3  and  C_4 
REMARK       I    between atoms: C_4  and  N_5 
REMARK       I    between atoms: N_5  and  C_6 
REMARK    2  A    between atoms: C_6  and  C_7 
REMARK    3  A    between atoms: C_7  and  S_8 
REMARK    4  A    between atoms: C_7  and  C_29 
REMARK    5  A    between atoms: S_8  and  C_9 
REMARK    6  A    between atoms: N_10  and  C_11 
REMARK    7  A    between atoms: C_18  and  C_19 
REMARK    8  A    between atoms: C_19  and  N_20 
ROOT
HETATM    1  C   UNL     1      25.876  46.710  51.506  1.00  0.00     0.197 A 
HETATM    2  N   UNL     1      25.834  45.400  51.957  1.00  0.00    -0.274 N 
HETATM    3  C   UNL     1      25.702  45.546  53.333  1.00  0.00     0.161 A 
HETATM    4  N   UNL     1      25.721  46.828  53.656  1.00  0.00    -0.132 NA
HETATM    5  N   UNL     1      25.837  47.548  52.514  1.00  0.00    -0.122 NA
ENDROOT
BRANCH   1   6
HETATM    6  S   UNL     1      25.691  47.224  49.864  1.00  0.00    -0.071 SA
BRANCH   6   7
HETATM    7  C   UNL     1      23.864  47.139  49.645  1.00  0.00     0.175 C 
BRANCH   7   8
HETATM    8  C   UNL     1      23.431  45.878  48.872  1.00  0.00     0.224 C 
HETATM    9  N   UNL     1      22.136  45.436  49.083  1.00  0.00    -0.178 NA
HETATM   10  C   UNL     1      21.426  44.968  48.029  1.00  0.00     0.300 C 
HETATM   11  H   UNL     1      21.569  46.164  49.503  1.00  0.00     0.141 HD
HETATM   12  N   UNL     1      21.700  43.738  47.541  1.00  0.00    -0.348 N 
HETATM   13  O   UNL     1      20.504  45.636  47.567  1.00  0.00    -0.254 OA
HETATM   14  H   UNL     1      21.082  43.468  46.784  1.00  0.00     0.163 HD
HETATM   15  O   UNL     1      24.273  45.220  48.257  1.00  0.00    -0.278 OA
BRANCH  12  16
HETATM   16  C   UNL     1      22.498  42.690  48.151  1.00  0.00     0.119 C 
HETATM   17  C   UNL     1      23.347  41.977  47.117  1.00  0.00     0.026 C 
ENDBRANCH  12  16
ENDBRANCH   7   8
BRANCH   7  18
HETATM   18  C   UNL     1      23.236  48.456  49.187  1.00  0.00    -0.035 A 
HETATM   19  C   UNL     1      21.852  48.689  49.206  1.00  0.00     0.009 A 
HETATM   20  C   UNL     1      21.323  49.917  48.797  1.00  0.00     0.001 A 
HETATM   21  C   UNL     1      22.166  50.931  48.353  1.00  0.00     0.000 A 
HETATM   22  C   UNL     1      23.542  50.721  48.322  1.00  0.00     0.001 A 
HETATM   23  C   UNL     1      24.073  49.498  48.740  1.00  0.00     0.009 A 
ENDBRANCH   7  18
ENDBRANCH   6   7
ENDBRANCH   1   6
BRANCH   2  24
HETATM   24  C   UNL     1      25.924  44.202  51.206  1.00  0.00     0.043 A 
HETATM   25  C   UNL     1      24.862  43.284  51.235  1.00  0.00     0.033 A 
HETATM   26  C   UNL     1      24.931  42.113  50.476  1.00  0.00     0.044 A 
HETATM   27  C   UNL     1      26.055  41.859  49.703  1.00  0.00     0.116 A 
HETATM   28  F   UNL     1      26.119  40.739  48.973  1.00  0.00    -0.206 F 
HETATM   29  C   UNL     1      27.121  42.751  49.680  1.00  0.00     0.044 A 
HETATM   30  C   UNL     1      27.062  43.925  50.435  1.00  0.00     0.033 A 
ENDBRANCH   2  24
BRANCH   3  31
HETATM   31  C   UNL     1      25.668  44.490  54.377  1.00  0.00     0.315 C 
BRANCH  31  32
HETATM   32  N   UNL     1      27.092  44.026  54.672  1.00  0.00    -0.064 N 
HETATM   33  H   UNL     1      27.036  43.679  55.647  1.00  0.00     0.280 HD
HETATM   34  C   UNL     1      27.493  42.839  53.827  1.00  0.00     0.235 C 
HETATM   35  C   UNL     1      28.825  42.295  54.321  1.00  0.00     0.028 C 
HETATM   36  C   UNL     1      29.899  43.377  54.335  1.00  0.00     0.003 C 
HETATM   37  C   UNL     1      29.447  44.598  55.129  1.00  0.00     0.028 C 
HETATM   38  C   UNL     1      28.106  45.132  54.641  1.00  0.00     0.235 C 
ENDBRANCH  31  32
ENDBRANCH   3  31
TORSDOF 8
ENDMDL
MODEL 5
REMARK VINA RESULT:      -7.8      3.805      8.124
REMARK  8 active torsions:
REMARK  status: ('A' for Active; 'I' for Inactive)
REMARK    1  A    between atoms: C_2  and  N_3 
REMARK       I    between atoms: N_3  and  C_4 
REMARK       I    between atoms: C_4  and  N_5 
REMARK       I    between atoms: N_5  and  C_6 
REMARK    2  A    between atoms: C_6  and  C_7 
REMARK    3  A    between atoms: C_7  and  S_8 
REMARK    4  A    between atoms: C_7  and  C_29 
REMARK    5  A    between atoms: S_8  and  C_9 
REMARK    6  A    between atoms: N_10  and  C_11 
REMARK    7  A    between atoms: C_18  and  C_19 
REMARK    8  A    between atoms: C_19  and  N_20 
ROOT
HETATM    1  C   UNL     1      25.323  46.438  50.784  1.00  0.00     0.197 A 
HETATM    2  N   UNL     1      25.565  45.315  51.558  1.00  0.00    -0.274 N 
HETATM    3  C   UNL     1      25.565  45.819  52.853  1.00  0.00     0.161 A 
HETATM    4  N   UNL     1      25.393  47.129  52.829  1.00  0.00    -0.132 NA
HETATM    5  N   UNL     1      25.251  47.511  51.536  1.00  0.00    -0.122 NA
ENDROOT
BRANCH   1   6
HETATM    6  S   UNL     1      24.866  46.443  49.116  1.00  0.00    -0.071 SA
BRANCH   6   7
HETATM    7  C   UNL     1      23.112  46.999  49.207  1.00  0.00     0.175 C 
BRANCH   7   8
HETATM    8  C   UNL     1      22.162  46.050  48.449  1.00  0.00     0.224 C 
HETATM    9  N   UNL     1      21.701  46.487  47.220  1.00  0.00    -0.178 NA
HETATM   10  C   UNL     1      21.597  45.595  46.207  1.00  0.00     0.300 C 
HETATM   11  H   UNL     1      22.273  47.247  46.868  1.00  0.00     0.141 HD
HETATM   12  N   UNL     1      20.575  44.710  46.206  1.00  0.00    -0.348 N 
HETATM   13  O   UNL     1      22.393  45.635  45.271  1.00  0.00    -0.254 OA
HETATM   14  H   UNL     1      20.565  44.120  45.382  1.00  0.00     0.163 HD
HETATM   15  O   UNL     1      21.712  45.054  49.020  1.00  0.00    -0.278 OA
BRANCH  12  16
HETATM   16  C   UNL     1      19.375  44.730  47.022  1.00  0.00     0.119 C 
HETATM   17  C   UNL     1      18.147  45.030  46.183  1.00  0.00     0.026 C 
ENDBRANCH  12  16
ENDBRANCH   7   8
BRANCH   7  18
HETATM   18  C   UNL     1      22.923  48.492  48.937  1.00  0.00    -0.035 A 
HETATM   19  C   UNL     1      21.722  49.171  49.200  1.00  0.00     0.009 A 
HETATM   20  C   UNL     1      21.602  50.542  48.957  1.00  0.00     0.001 A 
HETATM   21  C   UNL     1      22.676  51.260  48.438  1.00  0.00     0.000 A 
HETATM   22  C   UNL     1      23.876  50.608  48.167  1.00  0.00     0.001 A 
HETATM   23  C   UNL     1      24.001  49.239  48.419  1.00  0.00     0.009 A 
ENDBRANCH   7  18
ENDBRANCH   6   7
ENDBRANCH   1   6
BRANCH   2  24
HETATM   24  C   UNL     1      25.780  43.979  51.136  1.00  0.00     0.043 A 
HETATM   25  C   UNL     1      24.682  43.124  50.955  1.00  0.00     0.033 A 
HETATM   26  C   UNL     1      24.883  41.814  50.512  1.00  0.00     0.044 A 
HETATM   27  C   UNL     1      26.172  41.362  50.262  1.00  0.00     0.116 A 
HETATM   28  F   UNL     1      26.364  40.108  49.835  1.00  0.00    -0.206 F 
HETATM   29  C   UNL     1      27.269  42.193  50.456  1.00  0.00     0.044 A 
HETATM   30  C   UNL     1      27.078  43.505  50.898  1.00  0.00     0.033 A 
ENDBRANCH   2  24
BRANCH   3  31
HETATM   31  C   UNL     1      25.837  45.102  54.126  1.00  0.00     0.315 C 
BRANCH  31  32
HETATM   32  N   UNL     1      27.346  45.016  54.344  1.00  0.00    -0.064 N 
HETATM   33  H   UNL     1      27.740  45.449  53.490  1.00  0.00     0.280 HD
HETATM   34  C   UNL     1      27.806  45.872  55.501  1.00  0.00     0.235 C 
HETATM   35  C   UNL     1      29.327  45.913  55.524  1.00  0.00     0.028 C 
HETATM   36  C   UNL     1      29.921  44.510  55.579  1.00  0.00     0.003 C 
HETATM   37  C   UNL     1      29.387  43.636  54.449  1.00  0.00     0.028 C 
HETATM   38  C   UNL     1      27.864  43.609  54.419  1.00  0.00     0.235 C 
ENDBRANCH  31  32
ENDBRANCH   3  31
TORSDOF 8
ENDMDL
MODEL 6
REMARK VINA RESULT:      -7.7      4.768      8.846
REMARK  8 active torsions:
REMARK  status: ('A' for Active; 'I' for Inactive)
REMARK    1  A    between atoms: C_2  and  N_3 
REMARK       I    between atoms: N_3  and  C_4 
REMARK       I    between atoms: C_4  and  N_5 
REMARK       I    between atoms: N_5  and  C_6 
REMARK    2  A    between atoms: C_6  and  C_7 
REMARK    3  A    between atoms: C_7  and  S_8 
REMARK    4  A    between atoms: C_7  and  C_29 
REMARK    5  A    between atoms: S_8  and  C_9 
REMARK    6  A    between atoms: N_10  and  C_11 
REMARK    7  A    between atoms: C_18  and  C_19 
REMARK    8  A    between atoms: C_19  and  N_20 
ROOT
HETATM    1  C   UNL     1      23.283  45.102  49.543  1.00  0.00     0.197 A 
HETATM    2  N   UNL     1      24.494  45.394  50.148  1.00  0.00    -0.274 N 
HETATM    3  C   UNL     1      24.569  44.455  51.170  1.00  0.00     0.161 A 
HETATM    4  N   UNL     1      23.472  43.719  51.189  1.00  0.00    -0.132 NA
HETATM    5  N   UNL     1      22.671  44.131  50.177  1.00  0.00    -0.122 NA
ENDROOT
BRANCH   1   6
HETATM    6  S   UNL     1      22.753  45.681  48.001  1.00  0.00    -0.071 SA
BRANCH   6   7
HETATM    7  C   UNL     1      21.262  46.661  48.456  1.00  0.00     0.175 C 
BRANCH   7   8
HETATM    8  C   UNL     1      20.018  46.233  47.652  1.00  0.00     0.224 C 
HETATM    9  N   UNL     1      18.981  45.664  48.370  1.00  0.00    -0.178 NA
HETATM   10  C   UNL     1      17.707  45.983  48.042  1.00  0.00     0.300 C 
HETATM   11  H   UNL     1      19.075  45.863  49.360  1.00  0.00     0.141 HD
HETATM   12  N   UNL     1      17.154  45.441  46.934  1.00  0.00    -0.348 N 
HETATM   13  O   UNL     1      17.048  46.710  48.781  1.00  0.00    -0.254 OA
HETATM   14  H   UNL     1      16.185  45.709  46.806  1.00  0.00     0.163 HD
HETATM   15  O   UNL     1      20.057  46.239  46.419  1.00  0.00    -0.278 OA
BRANCH  12  16
HETATM   16  C   UNL     1      17.643  44.326  46.144  1.00  0.00     0.119 C 
HETATM   17  C   UNL     1      16.917  44.236  44.816  1.00  0.00     0.026 C 
ENDBRANCH  12  16
ENDBRANCH   7   8
BRANCH   7  18
HETATM   18  C   UNL     1      21.517  48.166  48.546  1.00  0.00    -0.035 A 
HETATM   19  C   UNL     1      20.822  49.007  49.431  1.00  0.00     0.009 A 
HETATM   20  C   UNL     1      21.104  50.375  49.494  1.00  0.00     0.001 A 
HETATM   21  C   UNL     1      22.078  50.930  48.669  1.00  0.00     0.000 A 
HETATM   22  C   UNL     1      22.778  50.116  47.783  1.00  0.00     0.001 A 
HETATM   23  C   UNL     1      22.504  48.747  47.725  1.00  0.00     0.009 A 
ENDBRANCH   7  18
ENDBRANCH   6   7
ENDBRANCH   1   6
BRANCH   2  24
HETATM   24  C   UNL     1      25.424  46.413  49.823  1.00  0.00     0.043 A 
HETATM   25  C   UNL     1      24.995  47.748  49.757  1.00  0.00     0.033 A 
HETATM   26  C   UNL     1      25.911  48.762  49.464  1.00  0.00     0.044 A 
HETATM   27  C   UNL     1      27.241  48.440  49.230  1.00  0.00     0.116 A 
HETATM   28  F   UNL     1      28.119  49.413  48.952  1.00  0.00    -0.206 F 
HETATM   29  C   UNL     1      27.674  47.121  49.273  1.00  0.00     0.044 A 
HETATM   30  C   UNL     1      26.766  46.100  49.565  1.00  0.00     0.033 A 
ENDBRANCH   2  24
BRANCH   3  31
HETATM   31  C   UNL     1      25.615  44.303  52.214  1.00  0.00     0.315 C 
BRANCH  31  32
HETATM   32  N   UNL     1      26.280  42.936  52.069  1.00  0.00    -0.064 N 
HETATM   33  H   UNL     1      25.538  42.274  52.360  1.00  0.00     0.280 HD
HETATM   34  C   UNL     1      26.597  42.605  50.629  1.00  0.00     0.235 C 
HETATM   35  C   UNL     1      27.049  41.155  50.534  1.00  0.00     0.028 C 
HETATM   36  C   UNL     1      28.228  40.876  51.459  1.00  0.00     0.003 C 
HETATM   37  C   UNL     1      27.918  41.288  52.894  1.00  0.00     0.028 C 
HETATM   38  C   UNL     1      27.452  42.736  52.984  1.00  0.00     0.235 C 
ENDBRANCH  31  32
ENDBRANCH   3  31
TORSDOF 8
ENDMDL
MODEL 7
REMARK VINA RESULT:      -7.7      8.172     11.613
REMARK  8 active torsions:
REMARK  status: ('A' for Active; 'I' for Inactive)
REMARK    1  A    between atoms: C_2  and  N_3 
REMARK       I    between atoms: N_3  and  C_4 
REMARK       I    between atoms: C_4  and  N_5 
REMARK       I    between atoms: N_5  and  C_6 
REMARK    2  A    between atoms: C_6  and  C_7 
REMARK    3  A    between atoms: C_7  and  S_8 
REMARK    4  A    between atoms: C_7  and  C_29 
REMARK    5  A    between atoms: S_8  and  C_9 
REMARK    6  A    between atoms: N_10  and  C_11 
REMARK    7  A    between atoms: C_18  and  C_19 
REMARK    8  A    between atoms: C_19  and  N_20 
ROOT
HETATM    1  C   UNL     1      19.082  46.926  46.167  1.00  0.00     0.197 A 
HETATM    2  N   UNL     1      17.947  47.607  45.757  1.00  0.00    -0.274 N 
HETATM    3  C   UNL     1      17.676  47.046  44.514  1.00  0.00     0.161 A 
HETATM    4  N   UNL     1      18.605  46.157  44.207  1.00  0.00    -0.132 NA
HETATM    5  N   UNL     1      19.482  46.091  45.237  1.00  0.00    -0.122 NA
ENDROOT
BRANCH   1   6
HETATM    6  S   UNL     1      19.732  46.908  47.770  1.00  0.00    -0.071 SA
BRANCH   6   7
HETATM    7  C   UNL     1      20.803  48.406  47.760  1.00  0.00     0.175 C 
BRANCH   7   8
HETATM    8  C   UNL     1      22.253  48.086  48.176  1.00  0.00     0.224 C 
HETATM    9  N   UNL     1      22.415  47.184  49.213  1.00  0.00    -0.178 NA
HETATM   10  C   UNL     1      23.418  46.277  49.139  1.00  0.00     0.300 C 
HETATM   11  H   UNL     1      21.566  46.652  49.367  1.00  0.00     0.141 HD
HETATM   12  N   UNL     1      24.689  46.675  49.369  1.00  0.00    -0.348 N 
HETATM   13  O   UNL     1      23.159  45.095  48.924  1.00  0.00    -0.254 OA
HETATM   14  H   UNL     1      25.354  45.911  49.333  1.00  0.00     0.163 HD
HETATM   15  O   UNL     1      23.181  48.756  47.716  1.00  0.00    -0.278 OA
BRANCH  12  16
HETATM   16  C   UNL     1      25.143  47.922  49.957  1.00  0.00     0.119 C 
HETATM   17  C   UNL     1      26.596  48.191  49.616  1.00  0.00     0.026 C 
ENDBRANCH  12  16
ENDBRANCH   7   8
BRANCH   7  18
HETATM   18  C   UNL     1      20.167  49.624  48.432  1.00  0.00    -0.035 A 
HETATM   19  C   UNL     1      20.403  50.941  48.007  1.00  0.00     0.009 A 
HETATM   20  C   UNL     1      19.782  52.023  48.638  1.00  0.00     0.001 A 
HETATM   21  C   UNL     1      18.921  51.810  49.711  1.00  0.00     0.000 A 
HETATM   22  C   UNL     1      18.675  50.513  50.152  1.00  0.00     0.001 A 
HETATM   23  C   UNL     1      19.286  49.430  49.516  1.00  0.00     0.009 A 
ENDBRANCH   7  18
ENDBRANCH   6   7
ENDBRANCH   1   6
BRANCH   2  24
HETATM   24  C   UNL     1      17.243  48.637  46.427  1.00  0.00     0.043 A 
HETATM   25  C   UNL     1      16.343  48.308  47.453  1.00  0.00     0.033 A 
HETATM   26  C   UNL     1      15.666  49.320  48.138  1.00  0.00     0.044 A 
HETATM   27  C   UNL     1      15.879  50.647  47.792  1.00  0.00     0.116 A 
HETATM   28  F   UNL     1      15.231  51.616  48.451  1.00  0.00    -0.206 F 
HETATM   29  C   UNL     1      16.752  50.985  46.766  1.00  0.00     0.044 A 
HETATM   30  C   UNL     1      17.435  49.981  46.075  1.00  0.00     0.033 A 
ENDBRANCH   2  24
BRANCH   3  31
HETATM   31  C   UNL     1      16.611  47.411  43.546  1.00  0.00     0.315 C 
BRANCH  31  32
HETATM   32  N   UNL     1      15.271  46.875  44.042  1.00  0.00    -0.064 N 
HETATM   33  H   UNL     1      15.507  46.436  44.950  1.00  0.00     0.280 HD
HETATM   34  C   UNL     1      14.291  47.982  44.353  1.00  0.00     0.235 C 
HETATM   35  C   UNL     1      13.070  47.396  45.044  1.00  0.00     0.028 C 
HETATM   36  C   UNL     1      12.435  46.288  44.210  1.00  0.00     0.003 C 
HETATM   37  C   UNL     1      13.456  45.216  43.841  1.00  0.00     0.028 C 
HETATM   38  C   UNL     1      14.685  45.809  43.162  1.00  0.00     0.235 C 
ENDBRANCH  31  32
ENDBRANCH   3  31
TORSDOF 8
ENDMDL
MODEL 8
REMARK VINA RESULT:      -7.7      7.585     11.078
REMARK  8 active torsions:
REMARK  status: ('A' for Active; 'I' for Inactive)
REMARK    1  A    between atoms: C_2  and  N_3 
REMARK       I    between atoms: N_3  and  C_4 
REMARK       I    between atoms: C_4  and  N_5 
REMARK       I    between atoms: N_5  and  C_6 
REMARK    2  A    between atoms: C_6  and  C_7 
REMARK    3  A    between atoms: C_7  and  S_8 
REMARK    4  A    between atoms: C_7  and  C_29 
REMARK    5  A    between atoms: S_8  and  C_9 
REMARK    6  A    between atoms: N_10  and  C_11 
REMARK    7  A    between atoms: C_18  and  C_19 
REMARK    8  A    between atoms: C_19  and  N_20 
ROOT
HETATM    1  C   UNL     1      19.392  47.395  45.728  1.00  0.00     0.197 A 
HETATM    2  N   UNL     1      18.356  48.225  45.333  1.00  0.00    -0.274 N 
HETATM    3  C   UNL     1      18.198  47.911  43.988  1.00  0.00     0.161 A 
HETATM    4  N   UNL     1      19.100  47.017  43.623  1.00  0.00    -0.132 NA
HETATM    5  N   UNL     1      19.847  46.705  44.709  1.00  0.00    -0.122 NA
ENDROOT
BRANCH   1   6
HETATM    6  S   UNL     1      19.849  47.048  47.360  1.00  0.00    -0.071 SA
BRANCH   6   7
HETATM    7  C   UNL     1      20.979  48.451  47.743  1.00  0.00     0.175 C 
BRANCH   7   8
HETATM    8  C   UNL     1      22.335  47.971  48.297  1.00  0.00     0.224 C 
HETATM    9  N   UNL     1      22.299  46.921  49.199  1.00  0.00    -0.178 NA
HETATM   10  C   UNL     1      23.253  45.964  49.124  1.00  0.00     0.300 C 
HETATM   11  H   UNL     1      21.409  46.436  49.153  1.00  0.00     0.141 HD
HETATM   12  N   UNL     1      24.496  46.231  49.582  1.00  0.00    -0.348 N 
HETATM   13  O   UNL     1      22.967  44.846  48.700  1.00  0.00    -0.254 OA
HETATM   14  H   UNL     1      25.119  45.434  49.521  1.00  0.00     0.163 HD
HETATM   15  O   UNL     1      23.353  48.630  48.074  1.00  0.00    -0.278 OA
BRANCH  12  16
HETATM   16  C   UNL     1      24.925  47.346  50.408  1.00  0.00     0.119 C 
HETATM   17  C   UNL     1      26.266  47.883  49.949  1.00  0.00     0.026 C 
ENDBRANCH  12  16
ENDBRANCH   7   8
BRANCH   7  18
HETATM   18  C   UNL     1      20.308  49.593  48.509  1.00  0.00    -0.035 A 
HETATM   19  C   UNL     1      20.583  50.946  48.258  1.00  0.00     0.009 A 
HETATM   20  C   UNL     1      19.929  51.957  48.969  1.00  0.00     0.001 A 
HETATM   21  C   UNL     1      18.995  51.635  49.949  1.00  0.00     0.000 A 
HETATM   22  C   UNL     1      18.709  50.299  50.217  1.00  0.00     0.001 A 
HETATM   23  C   UNL     1      19.354  49.288  49.501  1.00  0.00     0.009 A 
ENDBRANCH   7  18
ENDBRANCH   6   7
ENDBRANCH   1   6
BRANCH   2  24
HETATM   24  C   UNL     1      17.641  49.176  46.102  1.00  0.00     0.043 A 
HETATM   25  C   UNL     1      17.926  50.543  45.953  1.00  0.00     0.033 A 
HETATM   26  C   UNL     1      17.207  51.490  46.687  1.00  0.00     0.044 A 
HETATM   27  C   UNL     1      16.219  51.072  47.568  1.00  0.00     0.116 A 
HETATM   28  F   UNL     1      15.528  51.980  48.268  1.00  0.00    -0.206 F 
HETATM   29  C   UNL     1      15.940  49.721  47.738  1.00  0.00     0.044 A 
HETATM   30  C   UNL     1      16.654  48.766  47.009  1.00  0.00     0.033 A 
ENDBRANCH   2  24
BRANCH   3  31
HETATM   31  C   UNL     1      17.275  48.522  42.996  1.00  0.00     0.315 C 
BRANCH  31  32
HETATM   32  N   UNL     1      17.770  49.922  42.643  1.00  0.00    -0.064 N 
HETATM   33  H   UNL     1      18.336  50.194  43.466  1.00  0.00     0.280 HD
HETATM   34  C   UNL     1      18.716  49.914  41.465  1.00  0.00     0.235 C 
HETATM   35  C   UNL     1      19.336  51.294  41.307  1.00  0.00     0.028 C 
HETATM   36  C   UNL     1      18.268  52.374  41.175  1.00  0.00     0.003 C 
HETATM   37  C   UNL     1      17.277  52.319  42.332  1.00  0.00     0.028 C 
HETATM   38  C   UNL     1      16.668  50.931  42.497  1.00  0.00     0.235 C 
ENDBRANCH  31  32
ENDBRANCH   3  31
TORSDOF 8
ENDMDL
MODEL 9
REMARK VINA RESULT:      -7.6      7.449     11.182
REMARK  8 active torsions:
REMARK  status: ('A' for Active; 'I' for Inactive)
REMARK    1  A    between atoms: C_2  and  N_3 
REMARK       I    between atoms: N_3  and  C_4 
REMARK       I    between atoms: C_4  and  N_5 
REMARK       I    between atoms: N_5  and  C_6 
REMARK    2  A    between atoms: C_6  and  C_7 
REMARK    3  A    between atoms: C_7  and  S_8 
REMARK    4  A    between atoms: C_7  and  C_29 
REMARK    5  A    between atoms: S_8  and  C_9 
REMARK    6  A    between atoms: N_10  and  C_11 
REMARK    7  A    between atoms: C_18  and  C_19 
REMARK    8  A    between atoms: C_19  and  N_20 
ROOT
HETATM    1  C   UNL     1      19.422  45.866  48.057  1.00  0.00     0.197 A 
HETATM    2  N   UNL     1      18.271  46.091  47.320  1.00  0.00    -0.274 N 
HETATM    3  C   UNL     1      18.055  44.870  46.693  1.00  0.00     0.161 A 
HETATM    4  N   UNL     1      19.026  44.027  46.998  1.00  0.00    -0.132 NA
HETATM    5  N   UNL     1      19.879  44.656  47.843  1.00  0.00    -0.122 NA
ENDROOT
BRANCH   1   6
HETATM    6  S   UNL     1      20.030  46.876  49.323  1.00  0.00    -0.071 SA
BRANCH   6   7
HETATM    7  C   UNL     1      20.625  48.344  48.383  1.00  0.00     0.175 C 
BRANCH   7   8
HETATM    8  C   UNL     1      22.163  48.440  48.368  1.00  0.00     0.224 C 
HETATM    9  N   UNL     1      22.802  48.346  49.592  1.00  0.00    -0.178 NA
HETATM   10  C   UNL     1      23.960  47.648  49.672  1.00  0.00     0.300 C 
HETATM   11  H   UNL     1      22.185  47.949  50.292  1.00  0.00     0.141 HD
HETATM   12  N   UNL     1      25.098  48.196  49.191  1.00  0.00    -0.348 N 
HETATM   13  O   UNL     1      23.978  46.554  50.233  1.00  0.00    -0.254 OA
HETATM   14  H   UNL     1      25.911  47.611  49.341  1.00  0.00     0.163 HD
HETATM   15  O   UNL     1      22.743  48.771  47.331  1.00  0.00    -0.278 OA
BRANCH  12  16
HETATM   16  C   UNL     1      25.335  49.577  48.813  1.00  0.00     0.119 C 
HETATM   17  C   UNL     1      26.801  49.818  48.511  1.00  0.00     0.026 C 
ENDBRANCH  12  16
ENDBRANCH   7   8
BRANCH   7  18
HETATM   18  C   UNL     1      19.876  49.635  48.717  1.00  0.00    -0.035 A 
HETATM   19  C   UNL     1      18.944  49.728  49.763  1.00  0.00     0.009 A 
HETATM   20  C   UNL     1      18.299  50.936  50.047  1.00  0.00     0.001 A 
HETATM   21  C   UNL     1      18.566  52.070  49.286  1.00  0.00     0.000 A 
HETATM   22  C   UNL     1      19.484  52.000  48.242  1.00  0.00     0.001 A 
HETATM   23  C   UNL     1      20.137  50.797  47.963  1.00  0.00     0.009 A 
ENDBRANCH   7  18
ENDBRANCH   6   7
ENDBRANCH   1   6
BRANCH   2  24
HETATM   24  C   UNL     1      17.507  47.280  47.211  1.00  0.00     0.043 A 
HETATM   25  C   UNL     1      16.483  47.533  48.137  1.00  0.00     0.033 A 
HETATM   26  C   UNL     1      15.744  48.716  48.054  1.00  0.00     0.044 A 
HETATM   27  C   UNL     1      16.022  49.632  47.048  1.00  0.00     0.116 A 
HETATM   28  F   UNL     1      15.315  50.767  46.971  1.00  0.00    -0.206 F 
HETATM   29  C   UNL     1      17.021  49.384  46.115  1.00  0.00     0.044 A 
HETATM   30  C   UNL     1      17.766  48.205  46.189  1.00  0.00     0.033 A 
ENDBRANCH   2  24
BRANCH   3  31
HETATM   31  C   UNL     1      17.000  44.505  45.713  1.00  0.00     0.315 C 
BRANCH  31  32
HETATM   32  N   UNL     1      17.652  44.147  44.379  1.00  0.00    -0.064 N 
HETATM   33  H   UNL     1      18.441  43.534  44.652  1.00  0.00     0.280 HD
HETATM   34  C   UNL     1      16.748  43.306  43.509  1.00  0.00     0.235 C 
HETATM   35  C   UNL     1      17.531  42.804  42.305  1.00  0.00     0.028 C 
HETATM   36  C   UNL     1      18.161  43.957  41.530  1.00  0.00     0.003 C 
HETATM   37  C   UNL     1      19.009  44.840  42.440  1.00  0.00     0.028 C 
HETATM   38  C   UNL     1      18.225  45.328  43.652  1.00  0.00     0.235 C 
ENDBRANCH  31  32
ENDBRANCH   3  31
TORSDOF 8
ENDMDL
MODEL 10
REMARK VINA RESULT:      -7.5      7.807     12.531
REMARK  8 active torsions:
REMARK  status: ('A' for Active; 'I' for Inactive)
REMARK    1  A    between atoms: C_2  and  N_3 
REMARK       I    between atoms: N_3  and  C_4 
REMARK       I    between atoms: C_4  and  N_5 
REMARK       I    between atoms: N_5  and  C_6 
REMARK    2  A    between atoms: C_6  and  C_7 
REMARK    3  A    between atoms: C_7  and  S_8 
REMARK    4  A    between atoms: C_7  and  C_29 
REMARK    5  A    between atoms: S_8  and  C_9 
REMARK    6  A    between atoms: N_10  and  C_11 
REMARK    7  A    between atoms: C_18  and  C_19 
REMARK    8  A    between atoms: C_19  and  N_20 
ROOT
HETATM    1  C   UNL     1      20.656  49.972  49.677  1.00  0.00     0.197 A 
HETATM    2  N   UNL     1      21.338  48.928  49.074  1.00  0.00    -0.274 N 
HETATM    3  C   UNL     1      22.671  49.259  49.286  1.00  0.00     0.161 A 
HETATM    4  N   UNL     1      22.755  50.422  49.909  1.00  0.00    -0.132 NA
HETATM    5  N   UNL     1      21.496  50.865  50.143  1.00  0.00    -0.122 NA
ENDROOT
BRANCH   1   6
HETATM    6  S   UNL     1      18.970  49.994  50.064  1.00  0.00    -0.071 SA
BRANCH   6   7
HETATM    7  C   UNL     1      18.265  50.910  48.630  1.00  0.00     0.175 C 
BRANCH   7   8
HETATM    8  C   UNL     1      17.071  51.796  49.036  1.00  0.00     0.224 C 
HETATM    9  N   UNL     1      16.672  52.756  48.123  1.00  0.00    -0.178 NA
HETATM   10  C   UNL     1      15.349  52.984  47.951  1.00  0.00     0.300 C 
HETATM   11  H   UNL     1      17.045  52.555  47.201  1.00  0.00     0.141 HD
HETATM   12  N   UNL     1      14.671  53.684  48.888  1.00  0.00    -0.348 N 
HETATM   13  O   UNL     1      14.791  52.608  46.923  1.00  0.00    -0.254 OA
HETATM   14  H   UNL     1      13.700  53.836  48.640  1.00  0.00     0.163 HD
HETATM   15  O   UNL     1      16.644  51.750  50.192  1.00  0.00    -0.278 OA
BRANCH  12  16
HETATM   16  C   UNL     1      15.211  54.482  49.973  1.00  0.00     0.119 C 
HETATM   17  C   UNL     1      14.464  54.225  51.267  1.00  0.00     0.026 C 
ENDBRANCH  12  16
ENDBRANCH   7   8
BRANCH   7  18
HETATM   18  C   UNL     1      18.065  50.045  47.384  1.00  0.00    -0.035 A 
HETATM   19  C   UNL     1      18.623  50.363  46.135  1.00  0.00     0.009 A 
HETATM   20  C   UNL     1      18.431  49.531  45.028  1.00  0.00     0.001 A 
HETATM   21  C   UNL     1      17.671  48.372  45.145  1.00  0.00     0.000 A 
HETATM   22  C   UNL     1      17.105  48.038  46.373  1.00  0.00     0.001 A 
HETATM   23  C   UNL     1      17.304  48.863  47.483  1.00  0.00     0.009 A 
ENDBRANCH   7  18
ENDBRANCH   6   7
ENDBRANCH   1   6
BRANCH   2  24
HETATM   24  C   UNL     1      20.811  47.804  48.390  1.00  0.00     0.043 A 
HETATM   25  C   UNL     1      21.049  47.655  47.015  1.00  0.00     0.033 A 
HETATM   26  C   UNL     1      20.558  46.535  46.339  1.00  0.00     0.044 A 
HETATM   27  C   UNL     1      19.826  45.580  47.030  1.00  0.00     0.116 A 
HETATM   28  F   UNL     1      19.358  44.506  46.382  1.00  0.00    -0.206 F 
HETATM   29  C   UNL     1      19.568  45.725  48.388  1.00  0.00     0.044 A 
HETATM   30  C   UNL     1      20.056  46.841  49.074  1.00  0.00     0.033 A 
ENDBRANCH   2  24
BRANCH   3  31
HETATM   31  C   UNL     1      23.888  48.552  48.811  1.00  0.00     0.315 C 
BRANCH  31  32
HETATM   32  N   UNL     1      24.336  47.549  49.872  1.00  0.00    -0.064 N 
HETATM   33  H   UNL     1      23.748  47.785  50.692  1.00  0.00     0.280 HD
HETATM   34  C   UNL     1      23.987  46.128  49.498  1.00  0.00     0.235 C 
HETATM   35  C   UNL     1      24.258  45.214  50.684  1.00  0.00     0.028 C 
HETATM   36  C   UNL     1      25.698  45.341  51.167  1.00  0.00     0.003 C 
HETATM   37  C   UNL     1      26.058  46.792  51.467  1.00  0.00     0.028 C 
HETATM   38  C   UNL     1      25.771  47.707  50.283  1.00  0.00     0.235 C 
ENDBRANCH  31  32
ENDBRANCH   3  31
TORSDOF 8
ENDMDL
