MODEL 1
REMARK VINA RESULT:      -9.2      0.000      0.000
REMARK  7 active torsions:
REMARK  status: ('A' for Active; 'I' for Inactive)
REMARK    1  A    between atoms: C_4  and  C_5 
REMARK    2  A    between atoms: C_10  and  C_11 
REMARK       I    between atoms: C_11  and  N_12 
REMARK    3  A    between atoms: N_12  and  C_13 
REMARK    4  A    between atoms: C_13  and  C_14 
REMARK    5  A    between atoms: C_14  and  C_15 
REMARK    6  A    between atoms: C_15  and  N_16 
REMARK    7  A    between atoms: C_26  and  C_27 
ROOT
HETATM    1  C   UNL     1      29.725  44.074  54.650  1.00  0.00     0.125 C 
HETATM    2  N   UNL     1      28.434  44.768  54.700  1.00  0.00    -0.365 N 
HETATM    3  C   UNL     1      27.561  44.595  53.678  1.00  0.00     0.141 A 
HETATM    4  N   UNL     1      27.651  43.500  52.857  1.00  0.00    -0.238 N 
HETATM    5  N   UNL     1      26.770  43.521  51.838  1.00  0.00    -0.163 NA
HETATM    6  C   UNL     1      26.024  44.626  52.069  1.00  0.00     0.165 A 
HETATM    7  C   UNL     1      26.491  45.315  53.214  1.00  0.00     0.092 A 
HETATM    8 BR   UNL     1      25.808  46.902  53.932  1.00  0.00    -0.044 Br
HETATM    9  C   UNL     1      28.700  42.494  52.951  1.00  0.00     0.221 C 
HETATM   10  C   UNL     1      29.458  42.603  54.290  1.00  0.00     0.067 C 
HETATM   11  H   UNL     1      28.477  45.674  55.173  1.00  0.00     0.162 HD
ENDROOT
BRANCH   6  12
HETATM   12  C   UNL     1      24.909  44.956  51.175  1.00  0.00     0.273 C 
HETATM   13  N   UNL     1      25.197  45.961  50.273  1.00  0.00    -0.355 N 
HETATM   14  H   UNL     1      26.112  46.401  50.403  1.00  0.00     0.162 HD
HETATM   15  O   UNL     1      23.815  44.390  51.164  1.00  0.00    -0.266 OA
BRANCH  13  16
HETATM   16  C   UNL     1      24.207  46.574  49.422  1.00  0.00     0.124 C 
BRANCH  16  17
HETATM   17  C   UNL     1      23.964  48.054  49.720  1.00  0.00     0.047 C 
BRANCH  17  18
HETATM   18  C   UNL     1      22.961  48.791  48.831  1.00  0.00     0.236 C 
BRANCH  18  19
HETATM   19  N   UNL     1      21.717  49.240  49.545  1.00  0.00    -0.067 N 
HETATM   20  H   UNL     1      21.849  49.012  50.553  1.00  0.00     0.280 HD
HETATM   21  C   UNL     1      21.391  50.717  49.416  1.00  0.00     0.261 C 
HETATM   22  C   UNL     1      20.115  51.038  50.204  1.00  0.00     0.195 C 
HETATM   23  O   UNL     1      19.018  50.233  49.760  1.00  0.00    -0.388 OA
HETATM   24  C   UNL     1      19.281  48.839  49.952  1.00  0.00     0.195 C 
HETATM   25  C   UNL     1      20.505  48.401  49.140  1.00  0.00     0.261 C 
ENDBRANCH  18  19
ENDBRANCH  17  18
ENDBRANCH  16  17
ENDBRANCH  13  16
ENDBRANCH   6  12
BRANCH   9  26
HETATM   26  C   UNL     1      28.136  41.097  52.794  1.00  0.00     0.409 C 
HETATM   27  F   UNL     1      27.355  40.966  51.699  1.00  0.00    -0.169 F 
HETATM   28  F   UNL     1      29.145  40.200  52.657  1.00  0.00    -0.169 F 
HETATM   29  F   UNL     1      27.412  40.716  53.870  1.00  0.00    -0.169 F 
ENDBRANCH   9  26
BRANCH   1  30
HETATM   30  C   UNL     1      30.495  44.188  55.940  1.00  0.00     0.005 A 
HETATM   31  S   UNL     1      30.207  45.516  56.990  1.00  0.00    -0.104 SA
HETATM   32  C   UNL     1      31.351  44.952  58.127  1.00  0.00     0.050 A 
HETATM   33  C   UNL     1      31.945  43.778  57.724  1.00  0.00     0.008 A 
HETATM   34  C   UNL     1      31.444  43.332  56.466  1.00  0.00     0.017 A 
ENDBRANCH   1  30
TORSDOF 7
ENDMDL
MODEL 2
REMARK VINA RESULT:      -9.1      2.380      2.952
REMARK  7 active torsions:
REMARK  status: ('A' for Active; 'I' for Inactive)
REMARK    1  A    between atoms: C_4  and  C_5 
REMARK    2  A    between atoms: C_10  and  C_11 
REMARK       I    between atoms: C_11  and  N_12 
REMARK    3  A    between atoms: N_12  and  C_13 
REMARK    4  A    between atoms: C_13  and  C_14 
REMARK    5  A    between atoms: C_14  and  C_15 
REMARK    6  A    between atoms: C_15  and  N_16 
REMARK    7  A    between atoms: C_26  and  C_27 
ROOT
HETATM    1  C   UNL     1      29.641  44.013  54.623  1.00  0.00     0.125 C 
HETATM    2  N   UNL     1      28.268  44.528  54.611  1.00  0.00    -0.365 N 
HETATM    3  C   UNL     1      27.459  44.199  53.575  1.00  0.00     0.141 A 
HETATM    4  N   UNL     1      27.720  43.095  52.805  1.00  0.00    -0.238 N 
HETATM    5  N   UNL     1      26.876  42.956  51.764  1.00  0.00    -0.163 NA
HETATM    6  C   UNL     1      25.982  43.959  51.928  1.00  0.00     0.165 A 
HETATM    7  C   UNL     1      26.317  44.749  53.053  1.00  0.00     0.092 A 
HETATM    8 BR   UNL     1      25.406  46.257  53.685  1.00  0.00    -0.044 Br
HETATM    9  C   UNL     1      28.891  42.244  52.969  1.00  0.00     0.221 C 
HETATM   10  C   UNL     1      29.585  42.507  54.321  1.00  0.00     0.067 C 
HETATM   11  H   UNL     1      28.175  45.449  55.045  1.00  0.00     0.162 HD
ENDROOT
BRANCH   6  12
HETATM   12  C   UNL     1      24.862  44.101  50.992  1.00  0.00     0.273 C 
HETATM   13  N   UNL     1      25.207  44.698  49.796  1.00  0.00    -0.355 N 
HETATM   14  H   UNL     1      26.170  45.041  49.754  1.00  0.00     0.162 HD
HETATM   15  O   UNL     1      23.713  43.702  51.193  1.00  0.00    -0.266 OA
BRANCH  13  16
HETATM   16  C   UNL     1      24.243  45.103  48.802  1.00  0.00     0.124 C 
BRANCH  16  17
HETATM   17  C   UNL     1      23.481  46.379  49.162  1.00  0.00     0.047 C 
BRANCH  17  18
HETATM   18  C   UNL     1      24.234  47.439  49.968  1.00  0.00     0.236 C 
BRANCH  18  19
HETATM   19  N   UNL     1      25.305  48.158  49.195  1.00  0.00    -0.067 N 
HETATM   20  H   UNL     1      25.530  47.563  48.369  1.00  0.00     0.280 HD
HETATM   21  C   UNL     1      24.935  49.548  48.711  1.00  0.00     0.261 C 
HETATM   22  C   UNL     1      26.106  50.153  47.927  1.00  0.00     0.195 C 
HETATM   23  O   UNL     1      27.296  50.189  48.721  1.00  0.00    -0.388 OA
HETATM   24  C   UNL     1      27.701  48.873  49.116  1.00  0.00     0.195 C 
HETATM   25  C   UNL     1      26.619  48.208  49.974  1.00  0.00     0.261 C 
ENDBRANCH  18  19
ENDBRANCH  17  18
ENDBRANCH  16  17
ENDBRANCH  13  16
ENDBRANCH   6  12
BRANCH   9  26
HETATM   26  C   UNL     1      28.524  40.779  52.858  1.00  0.00     0.409 C 
HETATM   27  F   UNL     1      27.240  40.585  52.486  1.00  0.00    -0.169 F 
HETATM   28  F   UNL     1      29.292  40.175  51.917  1.00  0.00    -0.169 F 
HETATM   29  F   UNL     1      28.725  40.114  54.018  1.00  0.00    -0.169 F 
ENDBRANCH   9  26
BRANCH   1  30
HETATM   30  C   UNL     1      30.349  44.281  55.927  1.00  0.00     0.005 A 
HETATM   31  S   UNL     1      29.926  45.660  56.859  1.00  0.00    -0.104 SA
HETATM   32  C   UNL     1      31.060  45.269  58.076  1.00  0.00     0.050 A 
HETATM   33  C   UNL     1      31.750  44.115  57.787  1.00  0.00     0.008 A 
HETATM   34  C   UNL     1      31.334  43.538  56.551  1.00  0.00     0.017 A 
ENDBRANCH   1  30
TORSDOF 7
ENDMDL
MODEL 3
REMARK VINA RESULT:      -8.7      3.204      5.119
REMARK  7 active torsions:
REMARK  status: ('A' for Active; 'I' for Inactive)
REMARK    1  A    between atoms: C_4  and  C_5 
REMARK    2  A    between atoms: C_10  and  C_11 
REMARK       I    between atoms: C_11  and  N_12 
REMARK    3  A    between atoms: N_12  and  C_13 
REMARK    4  A    between atoms: C_13  and  C_14 
REMARK    5  A    between atoms: C_14  and  C_15 
REMARK    6  A    between atoms: C_15  and  N_16 
REMARK    7  A    between atoms: C_26  and  C_27 
ROOT
HETATM    1  C   UNL     1      29.704  44.170  54.481  1.00  0.00     0.125 C 
HETATM    2  N   UNL     1      28.408  44.838  54.325  1.00  0.00    -0.365 N 
HETATM    3  C   UNL     1      27.679  44.592  53.210  1.00  0.00     0.141 A 
HETATM    4  N   UNL     1      27.892  43.457  52.469  1.00  0.00    -0.238 N 
HETATM    5  N   UNL     1      27.152  43.404  51.345  1.00  0.00    -0.163 NA
HETATM    6  C   UNL     1      26.366  44.504  51.415  1.00  0.00     0.165 A 
HETATM    7  C   UNL     1      26.669  45.263  52.571  1.00  0.00     0.092 A 
HETATM    8 BR   UNL     1      25.875  46.871  53.105  1.00  0.00    -0.044 Br
HETATM    9  C   UNL     1      28.934  42.480  52.755  1.00  0.00     0.221 C 
HETATM   10  C   UNL     1      29.508  42.677  54.173  1.00  0.00     0.067 C 
HETATM   11  H   UNL     1      28.376  45.768  54.748  1.00  0.00     0.162 HD
ENDROOT
BRANCH   6  12
HETATM   12  C   UNL     1      25.373  44.762  50.367  1.00  0.00     0.273 C 
HETATM   13  N   UNL     1      24.118  44.264  50.653  1.00  0.00    -0.355 N 
HETATM   14  H   UNL     1      24.066  43.708  51.511  1.00  0.00     0.162 HD
HETATM   15  O   UNL     1      25.582  45.395  49.330  1.00  0.00    -0.266 OA
BRANCH  13  16
HETATM   16  C   UNL     1      23.036  44.239  49.700  1.00  0.00     0.124 C 
BRANCH  16  17
HETATM   17  C   UNL     1      22.912  42.919  48.938  1.00  0.00     0.047 C 
BRANCH  17  18
HETATM   18  C   UNL     1      23.740  42.769  47.660  1.00  0.00     0.236 C 
BRANCH  18  19
HETATM   19  N   UNL     1      24.996  41.960  47.830  1.00  0.00    -0.067 N 
HETATM   20  H   UNL     1      25.793  42.630  47.793  1.00  0.00     0.280 HD
HETATM   21  C   UNL     1      25.086  41.162  49.118  1.00  0.00     0.261 C 
HETATM   22  C   UNL     1      26.418  40.403  49.167  1.00  0.00     0.195 C 
HETATM   23  O   UNL     1      26.569  39.551  48.027  1.00  0.00    -0.388 OA
HETATM   24  C   UNL     1      26.567  40.303  46.808  1.00  0.00     0.195 C 
HETATM   25  C   UNL     1      25.238  41.044  46.630  1.00  0.00     0.261 C 
ENDBRANCH  18  19
ENDBRANCH  17  18
ENDBRANCH  16  17
ENDBRANCH  13  16
ENDBRANCH   6  12
BRANCH   9  26
HETATM   26  C   UNL     1      28.415  41.065  52.604  1.00  0.00     0.409 C 
HETATM   27  F   UNL     1      27.074  41.010  52.451  1.00  0.00    -0.169 F 
HETATM   28  F   UNL     1      28.952  40.487  51.500  1.00  0.00    -0.169 F 
HETATM   29  F   UNL     1      28.746  40.286  53.658  1.00  0.00    -0.169 F 
ENDBRANCH   9  26
BRANCH   1  30
HETATM   30  C   UNL     1      30.297  44.370  55.853  1.00  0.00     0.005 A 
HETATM   31  S   UNL     1      29.803  45.707  56.809  1.00  0.00    -0.104 SA
HETATM   32  C   UNL     1      30.825  45.249  58.100  1.00  0.00     0.050 A 
HETATM   33  C   UNL     1      31.531  44.102  57.817  1.00  0.00     0.008 A 
HETATM   34  C   UNL     1      31.220  43.589  56.524  1.00  0.00     0.017 A 
ENDBRANCH   1  30
TORSDOF 7
ENDMDL
MODEL 4
REMARK VINA RESULT:      -8.6      4.363      9.557
REMARK  7 active torsions:
REMARK  status: ('A' for Active; 'I' for Inactive)
REMARK    1  A    between atoms: C_4  and  C_5 
REMARK    2  A    between atoms: C_10  and  C_11 
REMARK       I    between atoms: C_11  and  N_12 
REMARK    3  A    between atoms: N_12  and  C_13 
REMARK    4  A    between atoms: C_13  and  C_14 
REMARK    5  A    between atoms: C_14  and  C_15 
REMARK    6  A    between atoms: C_15  and  N_16 
REMARK    7  A    between atoms: C_26  and  C_27 
ROOT
HETATM    1  C   UNL     1      23.344  48.200  48.866  1.00  0.00     0.125 C 
HETATM    2  N   UNL     1      23.349  46.980  49.678  1.00  0.00    -0.365 N 
HETATM    3  C   UNL     1      24.458  46.202  49.678  1.00  0.00     0.141 A 
HETATM    4  N   UNL     1      25.676  46.717  49.316  1.00  0.00    -0.238 N 
HETATM    5  N   UNL     1      26.658  45.796  49.282  1.00  0.00    -0.163 NA
HETATM    6  C   UNL     1      26.066  44.664  49.729  1.00  0.00     0.165 A 
HETATM    7  C   UNL     1      24.693  44.887  49.989  1.00  0.00     0.092 A 
HETATM    8 BR   UNL     1      23.444  43.637  50.604  1.00  0.00    -0.044 Br
HETATM    9  C   UNL     1      25.876  48.079  48.842  1.00  0.00     0.221 C 
HETATM   10  C   UNL     1      24.649  48.962  49.147  1.00  0.00     0.067 C 
HETATM   11  H   UNL     1      22.429  46.539  49.758  1.00  0.00     0.162 HD
ENDROOT
BRANCH   6  12
HETATM   12  C   UNL     1      26.853  43.436  49.876  1.00  0.00     0.273 C 
HETATM   13  N   UNL     1      27.275  43.196  51.168  1.00  0.00    -0.355 N 
HETATM   14  H   UNL     1      27.061  43.944  51.832  1.00  0.00     0.162 HD
HETATM   15  O   UNL     1      27.105  42.640  48.969  1.00  0.00    -0.266 OA
BRANCH  13  16
HETATM   16  C   UNL     1      28.207  42.153  51.520  1.00  0.00     0.124 C 
BRANCH  16  17
HETATM   17  C   UNL     1      29.234  42.569  52.574  1.00  0.00     0.047 C 
BRANCH  17  18
HETATM   18  C   UNL     1      28.914  42.233  54.032  1.00  0.00     0.236 C 
BRANCH  18  19
HETATM   19  N   UNL     1      29.166  43.361  54.994  1.00  0.00    -0.067 N 
HETATM   20  H   UNL     1      28.645  43.132  55.868  1.00  0.00     0.280 HD
HETATM   21  C   UNL     1      30.622  43.606  55.342  1.00  0.00     0.261 C 
HETATM   22  C   UNL     1      30.730  44.765  56.341  1.00  0.00     0.195 C 
HETATM   23  O   UNL     1      30.123  45.952  55.821  1.00  0.00    -0.388 OA
HETATM   24  C   UNL     1      28.728  45.757  55.565  1.00  0.00     0.195 C 
HETATM   25  C   UNL     1      28.518  44.660  54.516  1.00  0.00     0.261 C 
ENDBRANCH  18  19
ENDBRANCH  17  18
ENDBRANCH  16  17
ENDBRANCH  13  16
ENDBRANCH   6  12
BRANCH   9  26
HETATM   26  C   UNL     1      27.116  48.697  49.454  1.00  0.00     0.409 C 
HETATM   27  F   UNL     1      28.259  48.267  48.875  1.00  0.00    -0.169 F 
HETATM   28  F   UNL     1      27.091  50.045  49.300  1.00  0.00    -0.169 F 
HETATM   29  F   UNL     1      27.205  48.452  50.781  1.00  0.00    -0.169 F 
ENDBRANCH   9  26
BRANCH   1  30
HETATM   30  C   UNL     1      22.139  49.067  49.129  1.00  0.00     0.005 A 
HETATM   31  S   UNL     1      20.564  48.393  49.023  1.00  0.00    -0.104 SA
HETATM   32  C   UNL     1      19.827  49.877  49.441  1.00  0.00     0.050 A 
HETATM   33  C   UNL     1      20.754  50.870  49.659  1.00  0.00     0.008 A 
HETATM   34  C   UNL     1      22.089  50.401  49.488  1.00  0.00     0.017 A 
ENDBRANCH   1  30
TORSDOF 7
ENDMDL
MODEL 5
REMARK VINA RESULT:      -8.5      1.585      2.010
REMARK  7 active torsions:
REMARK  status: ('A' for Active; 'I' for Inactive)
REMARK    1  A    between atoms: C_4  and  C_5 
REMARK    2  A    between atoms: C_10  and  C_11 
REMARK       I    between atoms: C_11  and  N_12 
REMARK    3  A    between atoms: N_12  and  C_13 
REMARK    4  A    between atoms: C_13  and  C_14 
REMARK    5  A    between atoms: C_14  and  C_15 
REMARK    6  A    between atoms: C_15  and  N_16 
REMARK    7  A    between atoms: C_26  and  C_27 
ROOT
HETATM    1  C   UNL     1      29.670  44.040  54.085  1.00  0.00     0.125 C 
HETATM    2  N   UNL     1      28.363  44.691  53.948  1.00  0.00    -0.365 N 
HETATM    3  C   UNL     1      27.651  44.491  52.813  1.00  0.00     0.141 A 
HETATM    4  N   UNL     1      27.894  43.401  52.016  1.00  0.00    -0.238 N 
HETATM    5  N   UNL     1      27.168  43.394  50.882  1.00  0.00    -0.163 NA
HETATM    6  C   UNL     1      26.360  44.474  51.001  1.00  0.00     0.165 A 
HETATM    7  C   UNL     1      26.635  45.176  52.198  1.00  0.00     0.092 A 
HETATM    8 BR   UNL     1      25.804  46.738  52.807  1.00  0.00    -0.044 Br
HETATM    9  C   UNL     1      28.952  42.430  52.263  1.00  0.00     0.221 C 
HETATM   10  C   UNL     1      29.506  42.562  53.696  1.00  0.00     0.067 C 
HETATM   11  H   UNL     1      28.308  45.597  54.420  1.00  0.00     0.162 HD
ENDROOT
BRANCH   6  12
HETATM   12  C   UNL     1      25.374  44.768  49.955  1.00  0.00     0.273 C 
HETATM   13  N   UNL     1      24.404  43.796  49.814  1.00  0.00    -0.355 N 
HETATM   14  H   UNL     1      24.549  42.963  50.391  1.00  0.00     0.162 HD
HETATM   15  O   UNL     1      25.349  45.793  49.270  1.00  0.00    -0.266 OA
BRANCH  13  16
HETATM   16  C   UNL     1      23.443  43.782  48.739  1.00  0.00     0.124 C 
BRANCH  16  17
HETATM   17  C   UNL     1      22.196  44.623  49.011  1.00  0.00     0.047 C 
BRANCH  17  18
HETATM   18  C   UNL     1      21.521  45.282  47.807  1.00  0.00     0.236 C 
BRANCH  18  19
HETATM   19  N   UNL     1      21.053  46.690  48.056  1.00  0.00    -0.067 N 
HETATM   20  H   UNL     1      20.930  47.135  47.122  1.00  0.00     0.280 HD
HETATM   21  C   UNL     1      19.756  46.816  48.833  1.00  0.00     0.261 C 
HETATM   22  C   UNL     1      19.390  48.296  48.997  1.00  0.00     0.195 C 
HETATM   23  O   UNL     1      20.443  49.020  49.642  1.00  0.00    -0.388 OA
HETATM   24  C   UNL     1      21.652  48.976  48.875  1.00  0.00     0.195 C 
HETATM   25  C   UNL     1      22.142  47.533  48.718  1.00  0.00     0.261 C 
ENDBRANCH  18  19
ENDBRANCH  17  18
ENDBRANCH  16  17
ENDBRANCH  13  16
ENDBRANCH   6  12
BRANCH   9  26
HETATM   26  C   UNL     1      28.463  41.016  52.030  1.00  0.00     0.409 C 
HETATM   27  F   UNL     1      27.144  40.868  52.280  1.00  0.00    -0.169 F 
HETATM   28  F   UNL     1      28.650  40.665  50.733  1.00  0.00    -0.169 F 
HETATM   29  F   UNL     1      29.132  40.115  52.784  1.00  0.00    -0.169 F 
ENDBRANCH   9  26
BRANCH   1  30
HETATM   30  C   UNL     1      30.244  44.178  55.472  1.00  0.00     0.005 A 
HETATM   31  S   UNL     1      29.841  45.545  56.430  1.00  0.00    -0.104 SA
HETATM   32  C   UNL     1      30.788  44.991  57.740  1.00  0.00     0.050 A 
HETATM   33  C   UNL     1      31.401  43.791  57.462  1.00  0.00     0.008 A 
HETATM   34  C   UNL     1      31.080  43.316  56.157  1.00  0.00     0.017 A 
ENDBRANCH   1  30
TORSDOF 7
ENDMDL
MODEL 6
REMARK VINA RESULT:      -8.5      2.856      3.418
REMARK  7 active torsions:
REMARK  status: ('A' for Active; 'I' for Inactive)
REMARK    1  A    between atoms: C_4  and  C_5 
REMARK    2  A    between atoms: C_10  and  C_11 
REMARK       I    between atoms: C_11  and  N_12 
REMARK    3  A    between atoms: N_12  and  C_13 
REMARK    4  A    between atoms: C_13  and  C_14 
REMARK    5  A    between atoms: C_14  and  C_15 
REMARK    6  A    between atoms: C_15  and  N_16 
REMARK    7  A    between atoms: C_26  and  C_27 
ROOT
HETATM    1  C   UNL     1      28.135  44.365  54.900  1.00  0.00     0.125 C 
HETATM    2  N   UNL     1      27.981  43.733  53.587  1.00  0.00    -0.365 N 
HETATM    3  C   UNL     1      26.874  44.009  52.856  1.00  0.00     0.141 A 
HETATM    4  N   UNL     1      26.144  45.146  53.093  1.00  0.00    -0.238 N 
HETATM    5  N   UNL     1      25.026  45.229  52.346  1.00  0.00    -0.163 NA
HETATM    6  C   UNL     1      25.090  44.149  51.533  1.00  0.00     0.165 A 
HETATM    7  C   UNL     1      26.236  43.371  51.825  1.00  0.00     0.092 A 
HETATM    8 BR   UNL     1      26.759  41.778  50.993  1.00  0.00    -0.044 Br
HETATM    9  C   UNL     1      26.432  46.092  54.161  1.00  0.00     0.221 C 
HETATM   10  C   UNL     1      27.844  45.866  54.740  1.00  0.00     0.067 C 
HETATM   11  H   UNL     1      28.395  42.799  53.533  1.00  0.00     0.162 HD
ENDROOT
BRANCH   6  12
HETATM   12  C   UNL     1      24.046  43.928  50.527  1.00  0.00     0.273 C 
HETATM   13  N   UNL     1      24.165  44.735  49.413  1.00  0.00    -0.355 N 
HETATM   14  H   UNL     1      24.907  45.437  49.474  1.00  0.00     0.162 HD
HETATM   15  O   UNL     1      23.151  43.084  50.605  1.00  0.00    -0.266 OA
BRANCH  13  16
HETATM   16  C   UNL     1      23.160  44.822  48.383  1.00  0.00     0.124 C 
BRANCH  16  17
HETATM   17  C   UNL     1      22.229  46.026  48.525  1.00  0.00     0.047 C 
BRANCH  17  18
HETATM   18  C   UNL     1      22.880  47.386  48.788  1.00  0.00     0.236 C 
BRANCH  18  19
HETATM   19  N   UNL     1      21.969  48.392  49.434  1.00  0.00    -0.067 N 
HETATM   20  H   UNL     1      21.933  48.158  50.449  1.00  0.00     0.280 HD
HETATM   21  C   UNL     1      22.390  49.842  49.281  1.00  0.00     0.261 C 
HETATM   22  C   UNL     1      21.386  50.753  50.000  1.00  0.00     0.195 C 
HETATM   23  O   UNL     1      20.060  50.552  49.503  1.00  0.00    -0.388 OA
HETATM   24  C   UNL     1      19.620  49.206  49.715  1.00  0.00     0.195 C 
HETATM   25  C   UNL     1      20.523  48.217  48.970  1.00  0.00     0.261 C 
ENDBRANCH  18  19
ENDBRANCH  17  18
ENDBRANCH  16  17
ENDBRANCH  13  16
ENDBRANCH   6  12
BRANCH   9  26
HETATM   26  C   UNL     1      26.299  47.522  53.679  1.00  0.00     0.409 C 
HETATM   27  F   UNL     1      25.066  48.034  53.884  1.00  0.00    -0.169 F 
HETATM   28  F   UNL     1      27.164  48.323  54.350  1.00  0.00    -0.169 F 
HETATM   29  F   UNL     1      26.587  47.644  52.363  1.00  0.00    -0.169 F 
ENDBRANCH   9  26
BRANCH   1  30
HETATM   30  C   UNL     1      29.500  44.136  55.497  1.00  0.00     0.005 A 
HETATM   31  S   UNL     1      30.165  45.295  56.576  1.00  0.00    -0.104 SA
HETATM   32  C   UNL     1      31.586  44.373  56.799  1.00  0.00     0.050 A 
HETATM   33  C   UNL     1      31.563  43.205  56.071  1.00  0.00     0.008 A 
HETATM   34  C   UNL     1      30.355  43.063  55.327  1.00  0.00     0.017 A 
ENDBRANCH   1  30
TORSDOF 7
ENDMDL
MODEL 7
REMARK VINA RESULT:      -8.4      3.095      3.915
REMARK  7 active torsions:
REMARK  status: ('A' for Active; 'I' for Inactive)
REMARK    1  A    between atoms: C_4  and  C_5 
REMARK    2  A    between atoms: C_10  and  C_11 
REMARK       I    between atoms: C_11  and  N_12 
REMARK    3  A    between atoms: N_12  and  C_13 
REMARK    4  A    between atoms: C_13  and  C_14 
REMARK    5  A    between atoms: C_14  and  C_15 
REMARK    6  A    between atoms: C_15  and  N_16 
REMARK    7  A    between atoms: C_26  and  C_27 
ROOT
HETATM    1  C   UNL     1      27.924  44.015  54.146  1.00  0.00     0.125 C 
HETATM    2  N   UNL     1      28.048  43.273  52.888  1.00  0.00    -0.365 N 
HETATM    3  C   UNL     1      27.053  43.369  51.974  1.00  0.00     0.141 A 
HETATM    4  N   UNL     1      26.186  44.432  51.991  1.00  0.00    -0.238 N 
HETATM    5  N   UNL     1      25.202  44.335  51.077  1.00  0.00    -0.163 NA
HETATM    6  C   UNL     1      25.502  43.211  50.385  1.00  0.00     0.165 A 
HETATM    7  C   UNL     1      26.656  42.588  50.920  1.00  0.00     0.092 A 
HETATM    8 BR   UNL     1      27.460  41.005  50.328  1.00  0.00    -0.044 Br
HETATM    9  C   UNL     1      26.203  45.482  53.000  1.00  0.00     0.221 C 
HETATM   10  C   UNL     1      27.517  45.458  53.807  1.00  0.00     0.067 C 
HETATM   11  H   UNL     1      28.554  42.389  52.985  1.00  0.00     0.162 HD
ENDROOT
BRANCH   6  12
HETATM   12  C   UNL     1      24.663  42.800  49.255  1.00  0.00     0.273 C 
HETATM   13  N   UNL     1      24.409  43.813  48.352  1.00  0.00    -0.355 N 
HETATM   14  H   UNL     1      24.764  44.731  48.632  1.00  0.00     0.162 HD
HETATM   15  O   UNL     1      24.234  41.660  49.065  1.00  0.00    -0.266 OA
BRANCH  13  16
HETATM   16  C   UNL     1      23.468  43.693  47.266  1.00  0.00     0.124 C 
BRANCH  16  17
HETATM   17  C   UNL     1      22.519  44.885  47.135  1.00  0.00     0.047 C 
BRANCH  17  18
HETATM   18  C   UNL     1      22.151  45.630  48.420  1.00  0.00     0.236 C 
BRANCH  18  19
HETATM   19  N   UNL     1      22.562  47.077  48.433  1.00  0.00    -0.067 N 
HETATM   20  H   UNL     1      22.820  47.325  47.454  1.00  0.00     0.280 HD
HETATM   21  C   UNL     1      21.504  48.048  48.922  1.00  0.00     0.261 C 
HETATM   22  C   UNL     1      22.048  49.481  48.866  1.00  0.00     0.195 C 
HETATM   23  O   UNL     1      23.249  49.607  49.633  1.00  0.00    -0.388 OA
HETATM   24  C   UNL     1      24.283  48.753  49.129  1.00  0.00     0.195 C 
HETATM   25  C   UNL     1      23.860  47.283  49.213  1.00  0.00     0.261 C 
ENDBRANCH  18  19
ENDBRANCH  17  18
ENDBRANCH  16  17
ENDBRANCH  13  16
ENDBRANCH   6  12
BRANCH   9  26
HETATM   26  C   UNL     1      26.012  46.848  52.373  1.00  0.00     0.409 C 
HETATM   27  F   UNL     1      26.607  47.837  53.076  1.00  0.00    -0.169 F 
HETATM   28  F   UNL     1      26.561  46.873  51.133  1.00  0.00    -0.169 F 
HETATM   29  F   UNL     1      24.705  47.165  52.233  1.00  0.00    -0.169 F 
ENDBRANCH   9  26
BRANCH   1  30
HETATM   30  C   UNL     1      29.190  43.984  54.965  1.00  0.00     0.005 A 
HETATM   31  S   UNL     1      29.598  45.326  55.956  1.00  0.00    -0.104 SA
HETATM   32  C   UNL     1      31.024  44.567  56.513  1.00  0.00     0.050 A 
HETATM   33  C   UNL     1      31.193  43.318  55.961  1.00  0.00     0.008 A 
HETATM   34  C   UNL     1      30.130  42.977  55.075  1.00  0.00     0.017 A 
ENDBRANCH   1  30
TORSDOF 7
ENDMDL
MODEL 8
REMARK VINA RESULT:      -8.1      6.347     10.880
REMARK  7 active torsions:
REMARK  status: ('A' for Active; 'I' for Inactive)
REMARK    1  A    between atoms: C_4  and  C_5 
REMARK    2  A    between atoms: C_10  and  C_11 
REMARK       I    between atoms: C_11  and  N_12 
REMARK    3  A    between atoms: N_12  and  C_13 
REMARK    4  A    between atoms: C_13  and  C_14 
REMARK    5  A    between atoms: C_14  and  C_15 
REMARK    6  A    between atoms: C_15  and  N_16 
REMARK    7  A    between atoms: C_26  and  C_27 
ROOT
HETATM    1  C   UNL     1      19.223  50.502  47.894  1.00  0.00     0.125 C 
HETATM    2  N   UNL     1      19.127  49.099  48.309  1.00  0.00    -0.365 N 
HETATM    3  C   UNL     1      20.146  48.259  48.007  1.00  0.00     0.141 A 
HETATM    4  N   UNL     1      21.399  48.747  47.734  1.00  0.00    -0.238 N 
HETATM    5  N   UNL     1      22.276  47.793  47.365  1.00  0.00    -0.163 NA
HETATM    6  C   UNL     1      21.583  46.638  47.497  1.00  0.00     0.165 A 
HETATM    7  C   UNL     1      20.251  46.897  47.901  1.00  0.00     0.092 A 
HETATM    8 BR   UNL     1      18.898  45.639  48.201  1.00  0.00    -0.044 Br
HETATM    9  C   UNL     1      21.726  50.164  47.669  1.00  0.00     0.221 C 
HETATM   10  C   UNL     1      20.611  51.023  48.301  1.00  0.00     0.067 C 
HETATM   11  H   UNL     1      18.169  48.741  48.315  1.00  0.00     0.162 HD
ENDROOT
BRANCH   6  12
HETATM   12  C   UNL     1      22.239  45.355  47.224  1.00  0.00     0.273 C 
HETATM   13  N   UNL     1      22.363  44.545  48.335  1.00  0.00    -0.355 N 
HETATM   14  H   UNL     1      22.063  44.977  49.213  1.00  0.00     0.162 HD
HETATM   15  O   UNL     1      22.625  44.975  46.117  1.00  0.00    -0.266 OA
BRANCH  13  16
HETATM   16  C   UNL     1      23.130  43.324  48.347  1.00  0.00     0.124 C 
BRANCH  16  17
HETATM   17  C   UNL     1      24.546  43.487  48.898  1.00  0.00     0.047 C 
BRANCH  17  18
HETATM   18  C   UNL     1      24.689  43.709  50.405  1.00  0.00     0.236 C 
BRANCH  18  19
HETATM   19  N   UNL     1      24.790  45.154  50.810  1.00  0.00    -0.067 N 
HETATM   20  H   UNL     1      23.820  45.533  50.818  1.00  0.00     0.280 HD
HETATM   21  C   UNL     1      25.426  45.406  52.165  1.00  0.00     0.261 C 
HETATM   22  C   UNL     1      25.448  46.912  52.455  1.00  0.00     0.195 C 
HETATM   23  O   UNL     1      26.140  47.627  51.426  1.00  0.00    -0.388 OA
HETATM   24  C   UNL     1      25.501  47.461  50.155  1.00  0.00     0.195 C 
HETATM   25  C   UNL     1      25.495  45.987  49.739  1.00  0.00     0.261 C 
ENDBRANCH  18  19
ENDBRANCH  17  18
ENDBRANCH  16  17
ENDBRANCH  13  16
ENDBRANCH   6  12
BRANCH   9  26
HETATM   26  C   UNL     1      23.046  50.455  48.353  1.00  0.00     0.409 C 
HETATM   27  F   UNL     1      24.114  50.118  47.599  1.00  0.00    -0.169 F 
HETATM   28  F   UNL     1      23.158  51.783  48.607  1.00  0.00    -0.169 F 
HETATM   29  F   UNL     1      23.156  49.815  49.539  1.00  0.00    -0.169 F 
ENDBRANCH   9  26
BRANCH   1  30
HETATM   30  C   UNL     1      18.128  51.356  48.479  1.00  0.00     0.005 A 
HETATM   31  S   UNL     1      16.533  51.247  47.851  1.00  0.00    -0.104 SA
HETATM   32  C   UNL     1      15.944  52.406  48.960  1.00  0.00     0.050 A 
HETATM   33  C   UNL     1      16.934  52.872  49.794  1.00  0.00     0.008 A 
HETATM   34  C   UNL     1      18.193  52.260  49.524  1.00  0.00     0.017 A 
ENDBRANCH   1  30
TORSDOF 7
ENDMDL
MODEL 9
REMARK VINA RESULT:      -7.9      5.605      7.099
REMARK  7 active torsions:
REMARK  status: ('A' for Active; 'I' for Inactive)
REMARK    1  A    between atoms: C_4  and  C_5 
REMARK    2  A    between atoms: C_10  and  C_11 
REMARK       I    between atoms: C_11  and  N_12 
REMARK    3  A    between atoms: N_12  and  C_13 
REMARK    4  A    between atoms: C_13  and  C_14 
REMARK    5  A    between atoms: C_14  and  C_15 
REMARK    6  A    between atoms: C_15  and  N_16 
REMARK    7  A    between atoms: C_26  and  C_27 
ROOT
HETATM    1  C   UNL     1      25.237  45.022  49.934  1.00  0.00     0.125 C 
HETATM    2  N   UNL     1      24.069  45.554  49.224  1.00  0.00    -0.365 N 
HETATM    3  C   UNL     1      23.838  46.888  49.257  1.00  0.00     0.141 A 
HETATM    4  N   UNL     1      24.851  47.768  49.541  1.00  0.00    -0.238 N 
HETATM    5  N   UNL     1      24.441  49.048  49.624  1.00  0.00    -0.163 NA
HETATM    6  C   UNL     1      23.130  48.998  49.288  1.00  0.00     0.165 A 
HETATM    7  C   UNL     1      22.727  47.663  49.049  1.00  0.00     0.092 A 
HETATM    8 BR   UNL     1      21.016  47.069  48.574  1.00  0.00    -0.044 Br
HETATM    9  C   UNL     1      26.205  47.366  49.896  1.00  0.00     0.221 C 
HETATM   10  C   UNL     1      26.453  45.883  49.554  1.00  0.00     0.067 C 
HETATM   11  H   UNL     1      23.275  44.909  49.207  1.00  0.00     0.162 HD
ENDROOT
BRANCH   6  12
HETATM   12  C   UNL     1      22.344  50.234  49.221  1.00  0.00     0.273 C 
HETATM   13  N   UNL     1      21.325  50.298  50.150  1.00  0.00    -0.355 N 
HETATM   14  H   UNL     1      21.197  49.446  50.701  1.00  0.00     0.162 HD
HETATM   15  O   UNL     1      22.560  51.173  48.452  1.00  0.00    -0.266 OA
BRANCH  13  16
HETATM   16  C   UNL     1      20.317  51.329  50.154  1.00  0.00     0.124 C 
BRANCH  16  17
HETATM   17  C   UNL     1      18.913  50.823  49.821  1.00  0.00     0.047 C 
BRANCH  17  18
HETATM   18  C   UNL     1      18.492  50.846  48.350  1.00  0.00     0.236 C 
BRANCH  18  19
HETATM   19  N   UNL     1      17.563  49.732  47.955  1.00  0.00    -0.067 N 
HETATM   20  H   UNL     1      17.887  49.385  47.027  1.00  0.00     0.280 HD
HETATM   21  C   UNL     1      17.504  48.562  48.921  1.00  0.00     0.261 C 
HETATM   22  C   UNL     1      16.538  47.497  48.387  1.00  0.00     0.195 C 
HETATM   23  O   UNL     1      15.234  48.045  48.170  1.00  0.00    -0.388 OA
HETATM   24  C   UNL     1      15.265  49.097  47.198  1.00  0.00     0.195 C 
HETATM   25  C   UNL     1      16.153  50.251  47.677  1.00  0.00     0.261 C 
ENDBRANCH  18  19
ENDBRANCH  17  18
ENDBRANCH  16  17
ENDBRANCH  13  16
ENDBRANCH   6  12
BRANCH   9  26
HETATM   26  C   UNL     1      27.235  48.232  49.201  1.00  0.00     0.409 C 
HETATM   27  F   UNL     1      26.725  48.919  48.156  1.00  0.00    -0.169 F 
HETATM   28  F   UNL     1      27.728  49.154  50.065  1.00  0.00    -0.169 F 
HETATM   29  F   UNL     1      28.286  47.511  48.751  1.00  0.00    -0.169 F 
ENDBRANCH   9  26
BRANCH   1  30
HETATM   30  C   UNL     1      25.485  43.566  49.634  1.00  0.00     0.005 A 
HETATM   31  S   UNL     1      24.276  42.642  48.838  1.00  0.00    -0.104 SA
HETATM   32  C   UNL     1      25.247  41.235  48.851  1.00  0.00     0.050 A 
HETATM   33  C   UNL     1      26.468  41.457  49.447  1.00  0.00     0.008 A 
HETATM   34  C   UNL     1      26.609  42.804  49.891  1.00  0.00     0.017 A 
ENDBRANCH   1  30
TORSDOF 7
ENDMDL
MODEL 10
REMARK VINA RESULT:      -7.9      5.496     11.179
REMARK  7 active torsions:
REMARK  status: ('A' for Active; 'I' for Inactive)
REMARK    1  A    between atoms: C_4  and  C_5 
REMARK    2  A    between atoms: C_10  and  C_11 
REMARK       I    between atoms: C_11  and  N_12 
REMARK    3  A    between atoms: N_12  and  C_13 
REMARK    4  A    between atoms: C_13  and  C_14 
REMARK    5  A    between atoms: C_14  and  C_15 
REMARK    6  A    between atoms: C_15  and  N_16 
REMARK    7  A    between atoms: C_26  and  C_27 
ROOT
HETATM    1  C   UNL     1      20.849  47.718  47.050  1.00  0.00     0.125 C 
HETATM    2  N   UNL     1      21.416  46.857  48.092  1.00  0.00    -0.365 N 
HETATM    3  C   UNL     1      22.534  47.266  48.738  1.00  0.00     0.141 A 
HETATM    4  N   UNL     1      22.883  48.592  48.764  1.00  0.00    -0.238 N 
HETATM    5  N   UNL     1      24.065  48.823  49.367  1.00  0.00    -0.163 NA
HETATM    6  C   UNL     1      24.444  47.608  49.828  1.00  0.00     0.165 A 
HETATM    7  C   UNL     1      23.506  46.617  49.455  1.00  0.00     0.092 A 
HETATM    8 BR   UNL     1      23.588  44.786  49.835  1.00  0.00    -0.044 Br
HETATM    9  C   UNL     1      22.156  49.640  48.062  1.00  0.00     0.221 C 
HETATM   10  C   UNL     1      20.766  49.147  47.610  1.00  0.00     0.067 C 
HETATM   11  H   UNL     1      21.278  45.859  47.916  1.00  0.00     0.162 HD
ENDROOT
BRANCH   6  12
HETATM   12  C   UNL     1      25.686  47.472  50.597  1.00  0.00     0.273 C 
HETATM   13  N   UNL     1      25.489  47.110  51.915  1.00  0.00    -0.355 N 
HETATM   14  H   UNL     1      24.508  47.071  52.203  1.00  0.00     0.162 HD
HETATM   15  O   UNL     1      26.822  47.616  50.143  1.00  0.00    -0.266 OA
BRANCH  13  16
HETATM   16  C   UNL     1      26.541  47.093  52.900  1.00  0.00     0.124 C 
BRANCH  16  17
HETATM   17  C   UNL     1      26.183  46.328  54.175  1.00  0.00     0.047 C 
BRANCH  17  18
HETATM   18  C   UNL     1      26.781  44.930  54.342  1.00  0.00     0.236 C 
BRANCH  18  19
HETATM   19  N   UNL     1      28.253  44.920  54.651  1.00  0.00    -0.067 N 
HETATM   20  H   UNL     1      28.730  45.396  53.856  1.00  0.00     0.280 HD
HETATM   21  C   UNL     1      28.651  45.609  55.943  1.00  0.00     0.261 C 
HETATM   22  C   UNL     1      30.172  45.540  56.122  1.00  0.00     0.195 C 
HETATM   23  O   UNL     1      30.634  44.185  56.103  1.00  0.00    -0.388 OA
HETATM   24  C   UNL     1      30.335  43.549  54.854  1.00  0.00     0.195 C 
HETATM   25  C   UNL     1      28.822  43.502  54.618  1.00  0.00     0.261 C 
ENDBRANCH  18  19
ENDBRANCH  17  18
ENDBRANCH  16  17
ENDBRANCH  13  16
ENDBRANCH   6  12
BRANCH   9  26
HETATM   26  C   UNL     1      22.004  50.876  48.926  1.00  0.00     0.409 C 
HETATM   27  F   UNL     1      21.068  51.731  48.461  1.00  0.00    -0.169 F 
HETATM   28  F   UNL     1      21.617  50.525  50.178  1.00  0.00    -0.169 F 
HETATM   29  F   UNL     1      23.166  51.557  49.048  1.00  0.00    -0.169 F 
ENDBRANCH   9  26
BRANCH   1  30
HETATM   30  C   UNL     1      19.501  47.240  46.574  1.00  0.00     0.005 A 
HETATM   31  S   UNL     1      18.164  48.318  46.579  1.00  0.00    -0.104 SA
HETATM   32  C   UNL     1      17.117  47.129  45.937  1.00  0.00     0.050 A 
HETATM   33  C   UNL     1      17.764  45.934  45.720  1.00  0.00     0.008 A 
HETATM   34  C   UNL     1      19.142  46.000  46.078  1.00  0.00     0.017 A 
ENDBRANCH   1  30
TORSDOF 7
ENDMDL
