MODEL 1
REMARK VINA RESULT:      -8.3      0.000      0.000
REMARK  6 active torsions:
REMARK  status: ('A' for Active; 'I' for Inactive)
REMARK    1  A    between atoms: C_2  and  N_3 
REMARK    2  A    between atoms: C_2  and  C_21 
REMARK       I    between atoms: N_3  and  C_4 
REMARK       I    between atoms: C_4  and  N_5 
REMARK    3  A    between atoms: N_5  and  C_6 
REMARK    4  A    between atoms: C_6  and  C_7 
REMARK    5  A    between atoms: C_10  and  O_11 
REMARK    6  A    between atoms: O_11  and  C_12 
ROOT
HETATM    1  N   UNL     1      24.719  47.511  50.077  1.00  0.00    -0.332 N 
HETATM    2  C   UNL     1      25.137  46.228  50.259  1.00  0.00     0.317 C 
HETATM    3  N   UNL     1      24.658  45.697  51.427  1.00  0.00    -0.339 N 
HETATM    4  O   UNL     1      25.847  45.619  49.472  1.00  0.00    -0.247 OA
HETATM    5  H   UNL     1      24.411  48.041  50.880  1.00  0.00     0.165 HD
HETATM    6  H   UNL     1      23.776  46.070  51.741  1.00  0.00     0.164 HD
ENDROOT
BRANCH   3   7
HETATM    7  C   UNL     1      24.927  44.310  51.722  1.00  0.00     0.162 C 
BRANCH   7   8
HETATM    8  C   UNL     1      26.054  44.164  52.709  1.00  0.00    -0.040 A 
HETATM    9  C   UNL     1      25.915  44.634  54.021  1.00  0.00     0.011 A 
HETATM   10  C   UNL     1      26.950  44.482  54.951  1.00  0.00     0.037 A 
HETATM   11  C   UNL     1      28.142  43.861  54.579  1.00  0.00     0.069 A 
HETATM   12  C   UNL     1      28.295  43.422  53.262  1.00  0.00     0.037 A 
HETATM   13  C   UNL     1      27.264  43.573  52.331  1.00  0.00     0.011 A 
BRANCH  11  14
HETATM   14  O   UNL     1      29.217  43.619  55.387  1.00  0.00    -0.346 OA
BRANCH  14  15
HETATM   15  C   UNL     1      30.356  44.488  55.323  1.00  0.00     0.129 C 
HETATM   16  C   UNL     1      30.072  45.826  56.023  1.00  0.00     0.032 C 
HETATM   17  C   UNL     1      29.820  45.654  57.521  1.00  0.00     0.002 C 
HETATM   18  C   UNL     1      30.975  44.927  58.203  1.00  0.00     0.000 C 
HETATM   19  C   UNL     1      31.278  43.594  57.527  1.00  0.00     0.002 C 
HETATM   20  C   UNL     1      31.517  43.763  56.025  1.00  0.00     0.032 C 
ENDBRANCH  14  15
ENDBRANCH  11  14
ENDBRANCH   7   8
ENDBRANCH   3   7
BRANCH   1  21
HETATM   21  C   UNL     1      25.130  48.304  48.923  1.00  0.00     0.155 C 
HETATM   22  C   UNL     1      26.519  48.913  49.122  1.00  0.00     0.041 C 
BRANCH  21  23
HETATM   23  C   UNL     1      24.104  49.382  48.694  1.00  0.00     0.169 A 
HETATM   24  N   UNL     1      23.146  49.690  49.588  1.00  0.00    -0.156 NA
HETATM   25  N   UNL     1      22.510  50.694  48.961  1.00  0.00    -0.270 N 
HETATM   26  H   UNL     1      21.719  51.142  49.410  1.00  0.00     0.190 HD
HETATM   27  C   UNL     1      23.074  50.959  47.754  1.00  0.00     0.227 A 
HETATM   28  N   UNL     1      24.084  50.148  47.554  1.00  0.00    -0.223 NA
ENDBRANCH  21  23
ENDBRANCH   1  21
TORSDOF 6
ENDMDL
MODEL 2
REMARK VINA RESULT:      -8.0      1.801      2.094
REMARK  6 active torsions:
REMARK  status: ('A' for Active; 'I' for Inactive)
REMARK    1  A    between atoms: C_2  and  N_3 
REMARK    2  A    between atoms: C_2  and  C_21 
REMARK       I    between atoms: N_3  and  C_4 
REMARK       I    between atoms: C_4  and  N_5 
REMARK    3  A    between atoms: N_5  and  C_6 
REMARK    4  A    between atoms: C_6  and  C_7 
REMARK    5  A    between atoms: C_10  and  O_11 
REMARK    6  A    between atoms: O_11  and  C_12 
ROOT
HETATM    1  N   UNL     1      23.920  48.303  49.849  1.00  0.00    -0.332 N 
HETATM    2  C   UNL     1      24.269  47.005  50.059  1.00  0.00     0.317 C 
HETATM    3  N   UNL     1      24.625  46.775  51.361  1.00  0.00    -0.339 N 
HETATM    4  O   UNL     1      24.260  46.142  49.192  1.00  0.00    -0.247 OA
HETATM    5  H   UNL     1      24.241  49.005  50.501  1.00  0.00     0.165 HD
HETATM    6  H   UNL     1      24.182  47.375  52.041  1.00  0.00     0.164 HD
ENDROOT
BRANCH   3   7
HETATM    7  C   UNL     1      24.927  45.426  51.773  1.00  0.00     0.162 C 
BRANCH   7   8
HETATM    8  C   UNL     1      25.915  45.404  52.908  1.00  0.00    -0.040 A 
HETATM    9  C   UNL     1      26.408  46.600  53.444  1.00  0.00     0.011 A 
HETATM   10  C   UNL     1      27.311  46.588  54.514  1.00  0.00     0.037 A 
HETATM   11  C   UNL     1      27.736  45.378  55.061  1.00  0.00     0.069 A 
HETATM   12  C   UNL     1      27.271  44.184  54.506  1.00  0.00     0.037 A 
HETATM   13  C   UNL     1      26.370  44.191  53.437  1.00  0.00     0.011 A 
BRANCH  11  14
HETATM   14  O   UNL     1      28.584  45.219  56.120  1.00  0.00    -0.346 OA
BRANCH  14  15
HETATM   15  C   UNL     1      29.896  45.795  56.065  1.00  0.00     0.129 C 
HETATM   16  C   UNL     1      30.430  46.092  57.475  1.00  0.00     0.032 C 
HETATM   17  C   UNL     1      30.617  44.821  58.304  1.00  0.00     0.002 C 
HETATM   18  C   UNL     1      31.517  43.816  57.590  1.00  0.00     0.000 C 
HETATM   19  C   UNL     1      31.009  43.504  56.187  1.00  0.00     0.002 C 
HETATM   20  C   UNL     1      30.808  44.776  55.362  1.00  0.00     0.032 C 
ENDBRANCH  14  15
ENDBRANCH  11  14
ENDBRANCH   7   8
ENDBRANCH   3   7
BRANCH   1  21
HETATM   21  C   UNL     1      23.541  48.801  48.531  1.00  0.00     0.155 C 
HETATM   22  C   UNL     1      23.730  50.314  48.422  1.00  0.00     0.041 C 
BRANCH  21  23
HETATM   23  C   UNL     1      22.105  48.425  48.274  1.00  0.00     0.169 A 
HETATM   24  N   UNL     1      21.081  48.863  49.030  1.00  0.00    -0.156 NA
HETATM   25  N   UNL     1      20.032  48.292  48.414  1.00  0.00    -0.270 N 
HETATM   26  H   UNL     1      19.096  48.451  48.771  1.00  0.00     0.190 HD
HETATM   27  C   UNL     1      20.428  47.554  47.346  1.00  0.00     0.227 A 
HETATM   28  N   UNL     1      21.732  47.616  47.228  1.00  0.00    -0.223 NA
ENDBRANCH  21  23
ENDBRANCH   1  21
TORSDOF 6
ENDMDL
MODEL 3
REMARK VINA RESULT:      -8.0      1.548      2.265
REMARK  6 active torsions:
REMARK  status: ('A' for Active; 'I' for Inactive)
REMARK    1  A    between atoms: C_2  and  N_3 
REMARK    2  A    between atoms: C_2  and  C_21 
REMARK       I    between atoms: N_3  and  C_4 
REMARK       I    between atoms: C_4  and  N_5 
REMARK    3  A    between atoms: N_5  and  C_6 
REMARK    4  A    between atoms: C_6  and  C_7 
REMARK    5  A    between atoms: C_10  and  O_11 
REMARK    6  A    between atoms: O_11  and  C_12 
ROOT
HETATM    1  N   UNL     1      25.602  46.172  49.815  1.00  0.00    -0.332 N 
HETATM    2  C   UNL     1      25.351  45.144  50.670  1.00  0.00     0.317 C 
HETATM    3  N   UNL     1      26.107  44.041  50.378  1.00  0.00    -0.339 N 
HETATM    4  O   UNL     1      24.552  45.199  51.595  1.00  0.00    -0.247 OA
HETATM    5  H   UNL     1      26.019  45.968  48.918  1.00  0.00     0.165 HD
HETATM    6  H   UNL     1      26.997  44.231  49.944  1.00  0.00     0.164 HD
ENDROOT
BRANCH   3   7
HETATM    7  C   UNL     1      26.034  42.895  51.252  1.00  0.00     0.162 C 
BRANCH   7   8
HETATM    8  C   UNL     1      27.044  42.983  52.364  1.00  0.00    -0.040 A 
HETATM    9  C   UNL     1      28.379  42.620  52.142  1.00  0.00     0.011 A 
HETATM   10  C   UNL     1      29.329  42.721  53.166  1.00  0.00     0.037 A 
HETATM   11  C   UNL     1      28.956  43.182  54.427  1.00  0.00     0.069 A 
HETATM   12  C   UNL     1      27.619  43.512  54.659  1.00  0.00     0.037 A 
HETATM   13  C   UNL     1      26.667  43.413  53.641  1.00  0.00     0.011 A 
BRANCH  11  14
HETATM   14  O   UNL     1      29.780  43.359  55.502  1.00  0.00    -0.346 OA
BRANCH  14  15
HETATM   15  C   UNL     1      30.720  44.442  55.501  1.00  0.00     0.129 C 
HETATM   16  C   UNL     1      30.014  45.788  55.731  1.00  0.00     0.032 C 
HETATM   17  C   UNL     1      29.356  45.870  57.108  1.00  0.00     0.002 C 
HETATM   18  C   UNL     1      30.360  45.593  58.224  1.00  0.00     0.000 C 
HETATM   19  C   UNL     1      31.075  44.262  58.020  1.00  0.00     0.002 C 
HETATM   20  C   UNL     1      31.721  44.173  56.636  1.00  0.00     0.032 C 
ENDBRANCH  14  15
ENDBRANCH  11  14
ENDBRANCH   7   8
ENDBRANCH   3   7
BRANCH   1  21
HETATM   21  C   UNL     1      24.889  47.443  49.900  1.00  0.00     0.155 C 
HETATM   22  C   UNL     1      23.511  47.363  49.243  1.00  0.00     0.041 C 
BRANCH  21  23
HETATM   23  C   UNL     1      25.730  48.506  49.245  1.00  0.00     0.169 A 
HETATM   24  N   UNL     1      27.070  48.565  49.363  1.00  0.00    -0.156 NA
HETATM   25  N   UNL     1      27.357  49.639  48.609  1.00  0.00    -0.270 N 
HETATM   26  H   UNL     1      28.322  49.934  48.506  1.00  0.00     0.190 HD
HETATM   27  C   UNL     1      26.234  50.182  48.073  1.00  0.00     0.227 A 
HETATM   28  N   UNL     1      25.187  49.491  48.454  1.00  0.00    -0.223 NA
ENDBRANCH  21  23
ENDBRANCH   1  21
TORSDOF 6
ENDMDL
MODEL 4
REMARK VINA RESULT:      -7.7      2.874      4.100
REMARK  6 active torsions:
REMARK  status: ('A' for Active; 'I' for Inactive)
REMARK    1  A    between atoms: C_2  and  N_3 
REMARK    2  A    between atoms: C_2  and  C_21 
REMARK       I    between atoms: N_3  and  C_4 
REMARK       I    between atoms: C_4  and  N_5 
REMARK    3  A    between atoms: N_5  and  C_6 
REMARK    4  A    between atoms: C_6  and  C_7 
REMARK    5  A    between atoms: C_10  and  O_11 
REMARK    6  A    between atoms: O_11  and  C_12 
ROOT
HETATM    1  N   UNL     1      21.539  48.469  49.554  1.00  0.00    -0.332 N 
HETATM    2  C   UNL     1      22.458  47.746  48.857  1.00  0.00     0.317 C 
HETATM    3  N   UNL     1      22.990  46.734  49.611  1.00  0.00    -0.339 N 
HETATM    4  O   UNL     1      22.766  47.966  47.694  1.00  0.00    -0.247 OA
HETATM    5  H   UNL     1      21.561  48.439  50.564  1.00  0.00     0.165 HD
HETATM    6  H   UNL     1      22.385  46.366  50.329  1.00  0.00     0.164 HD
ENDROOT
BRANCH   3   7
HETATM    7  C   UNL     1      23.908  45.811  48.989  1.00  0.00     0.162 C 
BRANCH   7   8
HETATM    8  C   UNL     1      25.025  45.430  49.922  1.00  0.00    -0.040 A 
HETATM    9  C   UNL     1      25.143  46.042  51.176  1.00  0.00     0.011 A 
HETATM   10  C   UNL     1      26.167  45.677  52.059  1.00  0.00     0.037 A 
HETATM   11  C   UNL     1      27.089  44.697  51.697  1.00  0.00     0.069 A 
HETATM   12  C   UNL     1      26.994  44.109  50.434  1.00  0.00     0.037 A 
HETATM   13  C   UNL     1      25.974  44.471  49.549  1.00  0.00     0.011 A 
BRANCH  11  14
HETATM   14  O   UNL     1      28.114  44.223  52.467  1.00  0.00    -0.346 OA
BRANCH  14  15
HETATM   15  C   UNL     1      27.822  43.384  53.592  1.00  0.00     0.129 C 
HETATM   16  C   UNL     1      28.899  42.302  53.771  1.00  0.00     0.032 C 
HETATM   17  C   UNL     1      30.269  42.898  54.099  1.00  0.00     0.002 C 
HETATM   18  C   UNL     1      30.207  43.801  55.326  1.00  0.00     0.000 C 
HETATM   19  C   UNL     1      29.144  44.885  55.174  1.00  0.00     0.002 C 
HETATM   20  C   UNL     1      27.776  44.291  54.833  1.00  0.00     0.032 C 
ENDBRANCH  14  15
ENDBRANCH  11  14
ENDBRANCH   7   8
ENDBRANCH   3   7
BRANCH   1  21
HETATM   21  C   UNL     1      20.861  49.624  48.976  1.00  0.00     0.155 C 
HETATM   22  C   UNL     1      21.080  50.885  49.813  1.00  0.00     0.041 C 
BRANCH  21  23
HETATM   23  C   UNL     1      19.393  49.309  48.862  1.00  0.00     0.169 A 
HETATM   24  N   UNL     1      18.545  50.011  48.088  1.00  0.00    -0.156 NA
HETATM   25  N   UNL     1      17.390  49.357  48.297  1.00  0.00    -0.270 N 
HETATM   26  H   UNL     1      16.547  49.669  47.827  1.00  0.00     0.190 HD
HETATM   27  C   UNL     1      17.558  48.319  49.155  1.00  0.00     0.227 A 
HETATM   28  N   UNL     1      18.812  48.259  49.532  1.00  0.00    -0.223 NA
ENDBRANCH  21  23
ENDBRANCH   1  21
TORSDOF 6
ENDMDL
MODEL 5
REMARK VINA RESULT:      -7.7      7.985     12.244
REMARK  6 active torsions:
REMARK  status: ('A' for Active; 'I' for Inactive)
REMARK    1  A    between atoms: C_2  and  N_3 
REMARK    2  A    between atoms: C_2  and  C_21 
REMARK       I    between atoms: N_3  and  C_4 
REMARK       I    between atoms: C_4  and  N_5 
REMARK    3  A    between atoms: N_5  and  C_6 
REMARK    4  A    between atoms: C_6  and  C_7 
REMARK    5  A    between atoms: C_10  and  O_11 
REMARK    6  A    between atoms: O_11  and  C_12 
ROOT
HETATM    1  N   UNL     1      15.065  54.790  51.470  1.00  0.00    -0.332 N 
HETATM    2  C   UNL     1      15.063  53.617  50.780  1.00  0.00     0.317 C 
HETATM    3  N   UNL     1      16.243  53.413  50.116  1.00  0.00    -0.339 N 
HETATM    4  O   UNL     1      14.125  52.832  50.761  1.00  0.00    -0.247 OA
HETATM    5  H   UNL     1      15.718  55.512  51.200  1.00  0.00     0.165 HD
HETATM    6  H   UNL     1      17.055  53.837  50.539  1.00  0.00     0.164 HD
ENDROOT
BRANCH   3   7
HETATM    7  C   UNL     1      16.443  52.167  49.416  1.00  0.00     0.162 C 
BRANCH   7   8
HETATM    8  C   UNL     1      17.894  51.770  49.399  1.00  0.00    -0.040 A 
HETATM    9  C   UNL     1      18.374  50.795  50.282  1.00  0.00     0.011 A 
HETATM   10  C   UNL     1      19.719  50.404  50.256  1.00  0.00     0.037 A 
HETATM   11  C   UNL     1      20.602  50.987  49.349  1.00  0.00     0.069 A 
HETATM   12  C   UNL     1      20.133  51.983  48.491  1.00  0.00     0.037 A 
HETATM   13  C   UNL     1      18.792  52.377  48.514  1.00  0.00     0.011 A 
BRANCH  11  14
HETATM   14  O   UNL     1      21.925  50.681  49.194  1.00  0.00    -0.346 OA
BRANCH  14  15
HETATM   15  C   UNL     1      22.341  49.899  48.066  1.00  0.00     0.129 C 
HETATM   16  C   UNL     1      23.742  50.314  47.591  1.00  0.00     0.032 C 
HETATM   17  C   UNL     1      24.815  50.045  48.645  1.00  0.00     0.002 C 
HETATM   18  C   UNL     1      24.810  48.584  49.087  1.00  0.00     0.000 C 
HETATM   19  C   UNL     1      23.430  48.146  49.565  1.00  0.00     0.002 C 
HETATM   20  C   UNL     1      22.353  48.429  48.516  1.00  0.00     0.032 C 
ENDBRANCH  14  15
ENDBRANCH  11  14
ENDBRANCH   7   8
ENDBRANCH   3   7
BRANCH   1  21
HETATM   21  C   UNL     1      13.903  55.246  52.225  1.00  0.00     0.155 C 
HETATM   22  C   UNL     1      12.912  55.999  51.337  1.00  0.00     0.041 C 
BRANCH  21  23
HETATM   23  C   UNL     1      14.381  56.125  53.352  1.00  0.00     0.169 A 
HETATM   24  N   UNL     1      13.554  56.677  54.258  1.00  0.00    -0.156 NA
HETATM   25  N   UNL     1      14.423  57.334  55.046  1.00  0.00    -0.270 N 
HETATM   26  H   UNL     1      14.077  57.858  55.842  1.00  0.00     0.190 HD
HETATM   27  C   UNL     1      15.700  57.170  54.617  1.00  0.00     0.227 A 
HETATM   28  N   UNL     1      15.711  56.411  53.548  1.00  0.00    -0.223 NA
ENDBRANCH  21  23
ENDBRANCH   1  21
TORSDOF 6
ENDMDL
MODEL 6
REMARK VINA RESULT:      -7.6      3.686      9.481
REMARK  6 active torsions:
REMARK  status: ('A' for Active; 'I' for Inactive)
REMARK    1  A    between atoms: C_2  and  N_3 
REMARK    2  A    between atoms: C_2  and  C_21 
REMARK       I    between atoms: N_3  and  C_4 
REMARK       I    between atoms: C_4  and  N_5 
REMARK    3  A    between atoms: N_5  and  C_6 
REMARK    4  A    between atoms: C_6  and  C_7 
REMARK    5  A    between atoms: C_10  and  O_11 
REMARK    6  A    between atoms: O_11  and  C_12 
ROOT
HETATM    1  N   UNL     1      29.131  44.218  54.919  1.00  0.00    -0.332 N 
HETATM    2  C   UNL     1      28.859  43.914  53.620  1.00  0.00     0.317 C 
HETATM    3  N   UNL     1      27.530  44.066  53.328  1.00  0.00    -0.339 N 
HETATM    4  O   UNL     1      29.700  43.557  52.808  1.00  0.00    -0.247 OA
HETATM    5  H   UNL     1      28.378  44.201  55.591  1.00  0.00     0.165 HD
HETATM    6  H   UNL     1      27.044  44.759  53.876  1.00  0.00     0.164 HD
ENDROOT
BRANCH   3   7
HETATM    7  C   UNL     1      27.090  43.879  51.967  1.00  0.00     0.162 C 
BRANCH   7   8
HETATM    8  C   UNL     1      26.478  45.135  51.407  1.00  0.00    -0.040 A 
HETATM    9  C   UNL     1      26.817  45.579  50.123  1.00  0.00     0.011 A 
HETATM   10  C   UNL     1      26.233  46.734  49.587  1.00  0.00     0.037 A 
HETATM   11  C   UNL     1      25.306  47.462  50.330  1.00  0.00     0.069 A 
HETATM   12  C   UNL     1      24.993  47.039  51.624  1.00  0.00     0.037 A 
HETATM   13  C   UNL     1      25.573  45.888  52.163  1.00  0.00     0.011 A 
BRANCH  11  14
HETATM   14  O   UNL     1      24.640  48.583  49.923  1.00  0.00    -0.346 OA
BRANCH  14  15
HETATM   15  C   UNL     1      24.192  48.683  48.564  1.00  0.00     0.129 C 
HETATM   16  C   UNL     1      22.754  48.162  48.416  1.00  0.00     0.032 C 
HETATM   17  C   UNL     1      21.749  49.004  49.201  1.00  0.00     0.002 C 
HETATM   18  C   UNL     1      21.828  50.477  48.810  1.00  0.00     0.000 C 
HETATM   19  C   UNL     1      23.246  51.020  48.949  1.00  0.00     0.002 C 
HETATM   20  C   UNL     1      24.255  50.169  48.175  1.00  0.00     0.032 C 
ENDBRANCH  14  15
ENDBRANCH  11  14
ENDBRANCH   7   8
ENDBRANCH   3   7
BRANCH   1  21
HETATM   21  C   UNL     1      30.473  44.096  55.478  1.00  0.00     0.155 C 
HETATM   22  C   UNL     1      30.872  42.633  55.674  1.00  0.00     0.041 C 
BRANCH  21  23
HETATM   23  C   UNL     1      30.513  44.838  56.789  1.00  0.00     0.169 A 
HETATM   24  N   UNL     1      31.285  44.463  57.826  1.00  0.00    -0.156 NA
HETATM   25  N   UNL     1      31.000  45.417  58.728  1.00  0.00    -0.270 N 
HETATM   26  H   UNL     1      31.450  45.395  59.637  1.00  0.00     0.190 HD
HETATM   27  C   UNL     1      30.103  46.309  58.238  1.00  0.00     0.227 A 
HETATM   28  N   UNL     1      29.773  45.974  57.014  1.00  0.00    -0.223 NA
ENDBRANCH  21  23
ENDBRANCH   1  21
TORSDOF 6
ENDMDL
MODEL 7
REMARK VINA RESULT:      -7.6      3.721      6.251
REMARK  6 active torsions:
REMARK  status: ('A' for Active; 'I' for Inactive)
REMARK    1  A    between atoms: C_2  and  N_3 
REMARK    2  A    between atoms: C_2  and  C_21 
REMARK       I    between atoms: N_3  and  C_4 
REMARK       I    between atoms: C_4  and  N_5 
REMARK    3  A    between atoms: N_5  and  C_6 
REMARK    4  A    between atoms: C_6  and  C_7 
REMARK    5  A    between atoms: C_10  and  O_11 
REMARK    6  A    between atoms: O_11  and  C_12 
ROOT
HETATM    1  N   UNL     1      25.699  41.598  49.839  1.00  0.00    -0.332 N 
HETATM    2  C   UNL     1      25.955  42.920  50.034  1.00  0.00     0.317 C 
HETATM    3  N   UNL     1      25.234  43.431  51.080  1.00  0.00    -0.339 N 
HETATM    4  O   UNL     1      26.741  43.574  49.363  1.00  0.00    -0.247 OA
HETATM    5  H   UNL     1      24.841  41.209  50.205  1.00  0.00     0.165 HD
HETATM    6  H   UNL     1      25.000  42.772  51.806  1.00  0.00     0.164 HD
ENDROOT
BRANCH   3   7
HETATM    7  C   UNL     1      25.463  44.798  51.482  1.00  0.00     0.162 C 
BRANCH   7   8
HETATM    8  C   UNL     1      26.267  44.872  52.752  1.00  0.00    -0.040 A 
HETATM    9  C   UNL     1      26.567  43.708  53.471  1.00  0.00     0.011 A 
HETATM   10  C   UNL     1      27.334  43.767  54.642  1.00  0.00     0.037 A 
HETATM   11  C   UNL     1      27.808  44.991  55.110  1.00  0.00     0.069 A 
HETATM   12  C   UNL     1      27.482  46.156  54.412  1.00  0.00     0.037 A 
HETATM   13  C   UNL     1      26.716  46.102  53.244  1.00  0.00     0.011 A 
BRANCH  11  14
HETATM   14  O   UNL     1      28.588  45.190  56.214  1.00  0.00    -0.346 OA
BRANCH  14  15
HETATM   15  C   UNL     1      29.913  45.716  56.056  1.00  0.00     0.129 C 
HETATM   16  C   UNL     1      30.534  46.070  57.416  1.00  0.00     0.032 C 
HETATM   17  C   UNL     1      30.727  44.840  58.303  1.00  0.00     0.002 C 
HETATM   18  C   UNL     1      31.553  43.768  57.599  1.00  0.00     0.000 C 
HETATM   19  C   UNL     1      30.957  43.398  56.245  1.00  0.00     0.002 C 
HETATM   20  C   UNL     1      30.750  44.630  55.362  1.00  0.00     0.032 C 
ENDBRANCH  14  15
ENDBRANCH  11  14
ENDBRANCH   7   8
ENDBRANCH   3   7
BRANCH   1  21
HETATM   21  C   UNL     1      26.319  40.839  48.758  1.00  0.00     0.155 C 
HETATM   22  C   UNL     1      25.273  40.176  47.861  1.00  0.00     0.041 C 
BRANCH  21  23
HETATM   23  C   UNL     1      27.233  39.806  49.363  1.00  0.00     0.169 A 
HETATM   24  N   UNL     1      26.941  38.493  49.398  1.00  0.00    -0.156 NA
HETATM   25  N   UNL     1      28.036  37.993  49.997  1.00  0.00    -0.270 N 
HETATM   26  H   UNL     1      28.103  36.994  50.161  1.00  0.00     0.190 HD
HETATM   27  C   UNL     1      28.926  38.973  50.296  1.00  0.00     0.227 A 
HETATM   28  N   UNL     1      28.452  40.131  49.910  1.00  0.00    -0.223 NA
ENDBRANCH  21  23
ENDBRANCH   1  21
TORSDOF 6
ENDMDL
MODEL 8
REMARK VINA RESULT:      -7.6      3.280     10.400
REMARK  6 active torsions:
REMARK  status: ('A' for Active; 'I' for Inactive)
REMARK    1  A    between atoms: C_2  and  N_3 
REMARK    2  A    between atoms: C_2  and  C_21 
REMARK       I    between atoms: N_3  and  C_4 
REMARK       I    between atoms: C_4  and  N_5 
REMARK    3  A    between atoms: N_5  and  C_6 
REMARK    4  A    between atoms: C_6  and  C_7 
REMARK    5  A    between atoms: C_10  and  O_11 
REMARK    6  A    between atoms: O_11  and  C_12 
ROOT
HETATM    1  N   UNL     1      26.379  46.138  52.773  1.00  0.00    -0.332 N 
HETATM    2  C   UNL     1      26.390  46.269  51.418  1.00  0.00     0.317 C 
HETATM    3  N   UNL     1      26.087  47.546  51.027  1.00  0.00    -0.339 N 
HETATM    4  O   UNL     1      26.648  45.360  50.642  1.00  0.00    -0.247 OA
HETATM    5  H   UNL     1      25.869  46.814  53.323  1.00  0.00     0.165 HD
HETATM    6  H   UNL     1      26.339  48.270  51.683  1.00  0.00     0.164 HD
ENDROOT
BRANCH   3   7
HETATM    7  C   UNL     1      26.154  47.879  49.624  1.00  0.00     0.162 C 
BRANCH   7   8
HETATM    8  C   UNL     1      24.881  48.524  49.149  1.00  0.00    -0.040 A 
HETATM    9  C   UNL     1      24.911  49.769  48.510  1.00  0.00     0.011 A 
HETATM   10  C   UNL     1      23.732  50.365  48.044  1.00  0.00     0.037 A 
HETATM   11  C   UNL     1      22.507  49.724  48.215  1.00  0.00     0.069 A 
HETATM   12  C   UNL     1      22.471  48.498  48.882  1.00  0.00     0.037 A 
HETATM   13  C   UNL     1      23.644  47.900  49.349  1.00  0.00     0.011 A 
BRANCH  11  14
HETATM   14  O   UNL     1      21.289  50.173  47.786  1.00  0.00    -0.346 OA
BRANCH  14  15
HETATM   15  C   UNL     1      20.137  49.993  48.620  1.00  0.00     0.129 C 
HETATM   16  C   UNL     1      19.800  51.282  49.385  1.00  0.00     0.032 C 
HETATM   17  C   UNL     1      19.405  52.425  48.449  1.00  0.00     0.002 C 
HETATM   18  C   UNL     1      18.250  52.025  47.536  1.00  0.00     0.000 C 
HETATM   19  C   UNL     1      18.559  50.747  46.764  1.00  0.00     0.002 C 
HETATM   20  C   UNL     1      18.968  49.607  47.699  1.00  0.00     0.032 C 
ENDBRANCH  14  15
ENDBRANCH  11  14
ENDBRANCH   7   8
ENDBRANCH   3   7
BRANCH   1  21
HETATM   21  C   UNL     1      26.633  44.860  53.430  1.00  0.00     0.155 C 
HETATM   22  C   UNL     1      25.440  44.413  54.276  1.00  0.00     0.041 C 
BRANCH  21  23
HETATM   23  C   UNL     1      27.868  44.998  54.281  1.00  0.00     0.169 A 
HETATM   24  N   UNL     1      28.229  46.151  54.876  1.00  0.00    -0.156 NA
HETATM   25  N   UNL     1      29.349  45.779  55.519  1.00  0.00    -0.270 N 
HETATM   26  H   UNL     1      29.856  46.461  56.072  1.00  0.00     0.190 HD
HETATM   27  C   UNL     1      29.627  44.467  55.308  1.00  0.00     0.227 A 
HETATM   28  N   UNL     1      28.711  43.943  54.531  1.00  0.00    -0.223 NA
ENDBRANCH  21  23
ENDBRANCH   1  21
TORSDOF 6
ENDMDL
MODEL 9
REMARK VINA RESULT:      -7.4      5.197     12.555
REMARK  6 active torsions:
REMARK  status: ('A' for Active; 'I' for Inactive)
REMARK    1  A    between atoms: C_2  and  N_3 
REMARK    2  A    between atoms: C_2  and  C_21 
REMARK       I    between atoms: N_3  and  C_4 
REMARK       I    between atoms: C_4  and  N_5 
REMARK    3  A    between atoms: N_5  and  C_6 
REMARK    4  A    between atoms: C_6  and  C_7 
REMARK    5  A    between atoms: C_10  and  O_11 
REMARK    6  A    between atoms: O_11  and  C_12 
ROOT
HETATM    1  N   UNL     1      23.306  47.457  49.849  1.00  0.00    -0.332 N 
HETATM    2  C   UNL     1      23.295  48.781  49.533  1.00  0.00     0.317 C 
HETATM    3  N   UNL     1      22.029  49.301  49.562  1.00  0.00    -0.339 N 
HETATM    4  O   UNL     1      24.295  49.431  49.264  1.00  0.00    -0.247 OA
HETATM    5  H   UNL     1      22.452  46.926  49.754  1.00  0.00     0.165 HD
HETATM    6  H   UNL     1      21.391  48.851  50.201  1.00  0.00     0.164 HD
ENDROOT
BRANCH   3   7
HETATM    7  C   UNL     1      21.853  50.717  49.349  1.00  0.00     0.162 C 
BRANCH   7   8
HETATM    8  C   UNL     1      20.641  51.002  48.502  1.00  0.00    -0.040 A 
HETATM    9  C   UNL     1      20.376  50.234  47.361  1.00  0.00     0.011 A 
HETATM   10  C   UNL     1      19.239  50.478  46.582  1.00  0.00     0.037 A 
HETATM   11  C   UNL     1      18.354  51.497  46.931  1.00  0.00     0.069 A 
HETATM   12  C   UNL     1      18.635  52.285  48.049  1.00  0.00     0.037 A 
HETATM   13  C   UNL     1      19.769  52.045  48.830  1.00  0.00     0.011 A 
BRANCH  11  14
HETATM   14  O   UNL     1      17.196  51.824  46.282  1.00  0.00    -0.346 OA
BRANCH  14  15
HETATM   15  C   UNL     1      15.963  51.855  47.013  1.00  0.00     0.129 C 
HETATM   16  C   UNL     1      14.864  52.573  46.213  1.00  0.00     0.032 C 
HETATM   17  C   UNL     1      14.511  51.834  44.922  1.00  0.00     0.002 C 
HETATM   18  C   UNL     1      14.116  50.386  45.197  1.00  0.00     0.000 C 
HETATM   19  C   UNL     1      15.191  49.651  45.990  1.00  0.00     0.002 C 
HETATM   20  C   UNL     1      15.555  50.396  47.275  1.00  0.00     0.032 C 
ENDBRANCH  14  15
ENDBRANCH  11  14
ENDBRANCH   7   8
ENDBRANCH   3   7
BRANCH   1  21
HETATM   21  C   UNL     1      24.535  46.670  49.847  1.00  0.00     0.155 C 
HETATM   22  C   UNL     1      24.335  45.310  49.178  1.00  0.00     0.041 C 
BRANCH  21  23
HETATM   23  C   UNL     1      24.995  46.500  51.272  1.00  0.00     0.169 A 
HETATM   24  N   UNL     1      24.913  45.333  51.938  1.00  0.00    -0.156 NA
HETATM   25  N   UNL     1      25.448  45.667  53.125  1.00  0.00    -0.270 N 
HETATM   26  H   UNL     1      25.524  44.966  53.853  1.00  0.00     0.190 HD
HETATM   27  C   UNL     1      25.826  46.971  53.148  1.00  0.00     0.227 A 
HETATM   28  N   UNL     1      25.554  47.528  51.993  1.00  0.00    -0.223 NA
ENDBRANCH  21  23
ENDBRANCH   1  21
TORSDOF 6
ENDMDL
MODEL 10
REMARK VINA RESULT:      -7.4     13.267     16.178
REMARK  6 active torsions:
REMARK  status: ('A' for Active; 'I' for Inactive)
REMARK    1  A    between atoms: C_2  and  N_3 
REMARK    2  A    between atoms: C_2  and  C_21 
REMARK       I    between atoms: N_3  and  C_4 
REMARK       I    between atoms: C_4  and  N_5 
REMARK    3  A    between atoms: N_5  and  C_6 
REMARK    4  A    between atoms: C_6  and  C_7 
REMARK    5  A    between atoms: C_10  and  O_11 
REMARK    6  A    between atoms: O_11  and  C_12 
ROOT
HETATM    1  N   UNL     1      37.365  53.818  45.133  1.00  0.00    -0.332 N 
HETATM    2  C   UNL     1      37.142  52.613  44.540  1.00  0.00     0.317 C 
HETATM    3  N   UNL     1      35.978  52.607  43.820  1.00  0.00    -0.339 N 
HETATM    4  O   UNL     1      37.894  51.653  44.631  1.00  0.00    -0.247 OA
HETATM    5  H   UNL     1      36.584  54.442  45.276  1.00  0.00     0.165 HD
HETATM    6  H   UNL     1      35.697  53.500  43.444  1.00  0.00     0.164 HD
ENDROOT
BRANCH   3   7
HETATM    7  C   UNL     1      35.643  51.435  43.047  1.00  0.00     0.162 C 
BRANCH   7   8
HETATM    8  C   UNL     1      34.165  51.353  42.780  1.00  0.00    -0.040 A 
HETATM    9  C   UNL     1      33.245  51.826  43.724  1.00  0.00     0.011 A 
HETATM   10  C   UNL     1      31.868  51.774  43.473  1.00  0.00     0.037 A 
HETATM   11  C   UNL     1      31.393  51.244  42.274  1.00  0.00     0.069 A 
HETATM   12  C   UNL     1      32.308  50.742  41.346  1.00  0.00     0.037 A 
HETATM   13  C   UNL     1      33.682  50.791  41.593  1.00  0.00     0.011 A 
BRANCH  11  14
HETATM   14  O   UNL     1      30.086  51.160  41.886  1.00  0.00    -0.346 OA
BRANCH  14  15
HETATM   15  C   UNL     1      29.321  52.361  41.719  1.00  0.00     0.129 C 
HETATM   16  C   UNL     1      29.905  53.239  40.601  1.00  0.00     0.032 C 
HETATM   17  C   UNL     1      29.833  52.560  39.233  1.00  0.00     0.002 C 
HETATM   18  C   UNL     1      28.406  52.138  38.894  1.00  0.00     0.000 C 
HETATM   19  C   UNL     1      27.802  51.265  39.988  1.00  0.00     0.002 C 
HETATM   20  C   UNL     1      27.887  51.937  41.359  1.00  0.00     0.032 C 
ENDBRANCH  14  15
ENDBRANCH  11  14
ENDBRANCH   7   8
ENDBRANCH   3   7
BRANCH   1  21
HETATM   21  C   UNL     1      38.524  54.059  45.986  1.00  0.00     0.155 C 
HETATM   22  C   UNL     1      38.249  53.664  47.438  1.00  0.00     0.041 C 
BRANCH  21  23
HETATM   23  C   UNL     1      38.891  55.517  45.892  1.00  0.00     0.169 A 
HETATM   24  N   UNL     1      38.028  56.471  45.496  1.00  0.00    -0.156 NA
HETATM   25  N   UNL     1      38.788  57.575  45.592  1.00  0.00    -0.270 N 
HETATM   26  H   UNL     1      38.391  58.477  45.353  1.00  0.00     0.190 HD
HETATM   27  C   UNL     1      40.039  57.277  46.027  1.00  0.00     0.227 A 
HETATM   28  N   UNL     1      40.139  55.985  46.226  1.00  0.00    -0.223 NA
ENDBRANCH  21  23
ENDBRANCH   1  21
TORSDOF 6
ENDMDL
