MODEL 1
REMARK VINA RESULT:      -8.3      0.000      0.000
REMARK  4 active torsions:
REMARK  status: ('A' for Active; 'I' for Inactive)
REMARK    1  A    between atoms: C_3  and  N_4 
REMARK       I    between atoms: N_4  and  C_5 
REMARK    2  A    between atoms: C_5  and  C_6 
REMARK    3  A    between atoms: C_7  and  C_8 
REMARK    4  A    between atoms: C_16  and  C_17 
ROOT
HETATM    1  C   UNL     1      27.568  47.046  55.437  1.00  0.00     0.003 A 
HETATM    2  C   UNL     1      27.096  46.445  54.270  1.00  0.00     0.029 A 
HETATM    3  C   UNL     1      27.635  45.233  53.837  1.00  0.00     0.035 A 
HETATM    4  C   UNL     1      28.654  44.629  54.591  1.00  0.00     0.042 A 
HETATM    5  C   UNL     1      29.167  45.243  55.748  1.00  0.00    -0.021 A 
HETATM    6  C   UNL     1      28.598  46.453  56.168  1.00  0.00     0.012 A 
ENDROOT
BRANCH   3   7
HETATM    7  N   UNL     1      27.195  44.564  52.677  1.00  0.00    -0.327 N 
HETATM    8  C   UNL     1      25.948  44.003  52.474  1.00  0.00     0.227 C 
HETATM    9  O   UNL     1      24.982  44.081  53.220  1.00  0.00    -0.273 OA
HETATM   10  H   UNL     1      27.820  44.586  51.882  1.00  0.00     0.169 HD
BRANCH   8  11
HETATM   11  C   UNL     1      25.824  43.345  51.140  1.00  0.00     0.089 A 
HETATM   12  C   UNL     1      25.459  44.117  49.881  1.00  0.00     0.057 A 
HETATM   13  C   UNL     1      26.852  43.551  50.071  1.00  0.00     0.027 A 
BRANCH  12  14
HETATM   14  C   UNL     1      25.347  45.630  49.858  1.00  0.00     0.057 A 
HETATM   15  O   UNL     1      24.189  46.333  50.001  1.00  0.00    -0.327 OA
HETATM   16  C   UNL     1      24.509  47.650  49.972  1.00  0.00     0.142 A 
HETATM   17  C   UNL     1      25.865  47.811  49.812  1.00  0.00     0.027 A 
HETATM   18  C   UNL     1      26.408  46.504  49.736  1.00  0.00     0.035 A 
ENDBRANCH  12  14
ENDBRANCH   8  11
ENDBRANCH   3   7
BRANCH   5  19
HETATM   19  C   UNL     1      30.278  44.637  56.470  1.00  0.00     0.010 A 
HETATM   20  C   UNL     1      30.831  44.929  57.742  1.00  0.00     0.152 A 
HETATM   21  N   UNL     1      31.834  44.111  58.076  1.00  0.00    -0.187 NA
HETATM   22  N   UNL     1      31.929  43.287  57.021  1.00  0.00    -0.289 N 
HETATM   23  H   UNL     1      32.632  42.556  57.043  1.00  0.00     0.188 HD
HETATM   24  C   UNL     1      31.021  43.557  56.038  1.00  0.00     0.123 A 
ENDBRANCH   5  19
TORSDOF 4
ENDMDL
MODEL 2
REMARK VINA RESULT:      -8.1      1.792      2.663
REMARK  4 active torsions:
REMARK  status: ('A' for Active; 'I' for Inactive)
REMARK    1  A    between atoms: C_3  and  N_4 
REMARK       I    between atoms: N_4  and  C_5 
REMARK    2  A    between atoms: C_5  and  C_6 
REMARK    3  A    between atoms: C_7  and  C_8 
REMARK    4  A    between atoms: C_16  and  C_17 
ROOT
HETATM    1  C   UNL     1      30.270  42.641  53.323  1.00  0.00     0.003 A 
HETATM    2  C   UNL     1      29.068  43.018  52.722  1.00  0.00     0.029 A 
HETATM    3  C   UNL     1      28.264  43.992  53.312  1.00  0.00     0.035 A 
HETATM    4  C   UNL     1      28.680  44.589  54.512  1.00  0.00     0.042 A 
HETATM    5  C   UNL     1      29.869  44.193  55.150  1.00  0.00    -0.021 A 
HETATM    6  C   UNL     1      30.666  43.221  54.530  1.00  0.00     0.012 A 
ENDROOT
BRANCH   3   7
HETATM    7  N   UNL     1      27.046  44.429  52.750  1.00  0.00    -0.327 N 
HETATM    8  C   UNL     1      26.463  45.671  52.918  1.00  0.00     0.227 C 
HETATM    9  O   UNL     1      26.949  46.636  53.491  1.00  0.00    -0.273 OA
HETATM   10  H   UNL     1      26.611  43.807  52.083  1.00  0.00     0.169 HD
BRANCH   8  11
HETATM   11  C   UNL     1      25.156  45.793  52.206  1.00  0.00     0.089 A 
HETATM   12  C   UNL     1      25.012  46.543  50.890  1.00  0.00     0.057 A 
HETATM   13  C   UNL     1      24.882  45.034  50.944  1.00  0.00     0.027 A 
BRANCH  12  14
HETATM   14  C   UNL     1      26.206  47.088  50.128  1.00  0.00     0.057 A 
HETATM   15  O   UNL     1      27.150  46.332  49.504  1.00  0.00    -0.327 OA
HETATM   16  C   UNL     1      28.016  47.182  48.901  1.00  0.00     0.142 A 
HETATM   17  C   UNL     1      27.643  48.486  49.126  1.00  0.00     0.027 A 
HETATM   18  C   UNL     1      26.472  48.427  49.922  1.00  0.00     0.035 A 
ENDBRANCH  12  14
ENDBRANCH   8  11
ENDBRANCH   3   7
BRANCH   5  19
HETATM   19  C   UNL     1      30.241  44.770  56.435  1.00  0.00     0.010 A 
HETATM   20  C   UNL     1      29.792  45.941  57.095  1.00  0.00     0.152 A 
HETATM   21  N   UNL     1      30.353  46.111  58.296  1.00  0.00    -0.187 NA
HETATM   22  N   UNL     1      31.163  45.048  58.416  1.00  0.00    -0.289 N 
HETATM   23  H   UNL     1      31.704  44.949  59.269  1.00  0.00     0.188 HD
HETATM   24  C   UNL     1      31.130  44.216  57.334  1.00  0.00     0.123 A 
ENDBRANCH   5  19
TORSDOF 4
ENDMDL
MODEL 3
REMARK VINA RESULT:      -8.1      1.932      3.405
REMARK  4 active torsions:
REMARK  status: ('A' for Active; 'I' for Inactive)
REMARK    1  A    between atoms: C_3  and  N_4 
REMARK       I    between atoms: N_4  and  C_5 
REMARK    2  A    between atoms: C_5  and  C_6 
REMARK    3  A    between atoms: C_7  and  C_8 
REMARK    4  A    between atoms: C_16  and  C_17 
ROOT
HETATM    1  C   UNL     1      26.340  47.993  55.004  1.00  0.00     0.003 A 
HETATM    2  C   UNL     1      26.054  47.306  53.825  1.00  0.00     0.029 A 
HETATM    3  C   UNL     1      26.731  46.125  53.519  1.00  0.00     0.035 A 
HETATM    4  C   UNL     1      27.698  45.640  54.413  1.00  0.00     0.042 A 
HETATM    5  C   UNL     1      28.025  46.342  55.586  1.00  0.00    -0.021 A 
HETATM    6  C   UNL     1      27.320  47.518  55.877  1.00  0.00     0.012 A 
ENDROOT
BRANCH   3   7
HETATM    7  N   UNL     1      26.481  45.374  52.352  1.00  0.00    -0.327 N 
HETATM    8  C   UNL     1      25.503  44.410  52.189  1.00  0.00     0.227 C 
HETATM    9  O   UNL     1      24.624  44.118  52.987  1.00  0.00    -0.273 OA
HETATM   10  H   UNL     1      27.003  45.637  51.528  1.00  0.00     0.169 HD
BRANCH   8  11
HETATM   11  C   UNL     1      25.534  43.785  50.833  1.00  0.00     0.089 A 
HETATM   12  C   UNL     1      26.628  42.819  50.406  1.00  0.00     0.057 A 
HETATM   13  C   UNL     1      25.211  42.337  50.635  1.00  0.00     0.027 A 
BRANCH  12  14
HETATM   14  C   UNL     1      27.679  42.300  51.370  1.00  0.00     0.057 A 
HETATM   15  O   UNL     1      28.603  43.067  52.011  1.00  0.00    -0.327 OA
HETATM   16  C   UNL     1      29.322  42.246  52.815  1.00  0.00     0.142 A 
HETATM   17  C   UNL     1      28.874  40.952  52.704  1.00  0.00     0.027 A 
HETATM   18  C   UNL     1      27.811  40.984  51.767  1.00  0.00     0.035 A 
ENDBRANCH  12  14
ENDBRANCH   8  11
ENDBRANCH   3   7
BRANCH   5  19
HETATM   19  C   UNL     1      29.087  45.861  56.459  1.00  0.00     0.010 A 
HETATM   20  C   UNL     1      29.296  46.029  57.851  1.00  0.00     0.152 A 
HETATM   21  N   UNL     1      30.383  45.391  58.296  1.00  0.00    -0.187 NA
HETATM   22  N   UNL     1      30.876  44.807  57.194  1.00  0.00    -0.289 N 
HETATM   23  H   UNL     1      31.717  44.246  57.282  1.00  0.00     0.188 HD
HETATM   24  C   UNL     1      30.138  45.054  56.072  1.00  0.00     0.123 A 
ENDBRANCH   5  19
TORSDOF 4
ENDMDL
MODEL 4
REMARK VINA RESULT:      -7.9      4.801      7.926
REMARK  4 active torsions:
REMARK  status: ('A' for Active; 'I' for Inactive)
REMARK    1  A    between atoms: C_3  and  N_4 
REMARK       I    between atoms: N_4  and  C_5 
REMARK    2  A    between atoms: C_5  and  C_6 
REMARK    3  A    between atoms: C_7  and  C_8 
REMARK    4  A    between atoms: C_16  and  C_17 
ROOT
HETATM    1  C   UNL     1      26.749  49.019  49.004  1.00  0.00     0.003 A 
HETATM    2  C   UNL     1      25.654  49.662  48.426  1.00  0.00     0.029 A 
HETATM    3  C   UNL     1      24.357  49.267  48.749  1.00  0.00     0.035 A 
HETATM    4  C   UNL     1      24.168  48.219  49.664  1.00  0.00     0.042 A 
HETATM    5  C   UNL     1      25.262  47.536  50.225  1.00  0.00    -0.021 A 
HETATM    6  C   UNL     1      26.555  47.962  49.894  1.00  0.00     0.012 A 
ENDROOT
BRANCH   3   7
HETATM    7  N   UNL     1      23.207  49.882  48.213  1.00  0.00    -0.327 N 
HETATM    8  C   UNL     1      22.278  50.635  48.907  1.00  0.00     0.227 C 
HETATM    9  O   UNL     1      22.347  50.983  50.077  1.00  0.00    -0.273 OA
HETATM   10  H   UNL     1      23.110  49.851  47.207  1.00  0.00     0.169 HD
BRANCH   8  11
HETATM   11  C   UNL     1      21.164  51.116  48.037  1.00  0.00     0.089 A 
HETATM   12  C   UNL     1      19.749  50.570  48.150  1.00  0.00     0.057 A 
HETATM   13  C   UNL     1      20.072  51.987  48.578  1.00  0.00     0.027 A 
BRANCH  12  14
HETATM   14  C   UNL     1      19.330  49.614  49.252  1.00  0.00     0.057 A 
HETATM   15  O   UNL     1      19.092  49.964  50.546  1.00  0.00    -0.327 OA
HETATM   16  C   UNL     1      18.697  48.846  51.202  1.00  0.00     0.142 A 
HETATM   17  C   UNL     1      18.675  47.771  50.346  1.00  0.00     0.027 A 
HETATM   18  C   UNL     1      19.086  48.266  49.084  1.00  0.00     0.035 A 
ENDBRANCH  12  14
ENDBRANCH   8  11
ENDBRANCH   3   7
BRANCH   5  19
HETATM   19  C   UNL     1      25.042  46.400  51.112  1.00  0.00     0.010 A 
HETATM   20  C   UNL     1      24.341  45.185  50.911  1.00  0.00     0.152 A 
HETATM   21  N   UNL     1      24.402  44.367  51.966  1.00  0.00    -0.187 NA
HETATM   22  N   UNL     1      25.145  45.051  52.849  1.00  0.00    -0.289 N 
HETATM   23  H   UNL     1      25.342  44.622  53.748  1.00  0.00     0.188 HD
HETATM   24  C   UNL     1      25.554  46.269  52.387  1.00  0.00     0.123 A 
ENDBRANCH   5  19
TORSDOF 4
ENDMDL
MODEL 5
REMARK VINA RESULT:      -7.8      1.908      3.280
REMARK  4 active torsions:
REMARK  status: ('A' for Active; 'I' for Inactive)
REMARK    1  A    between atoms: C_3  and  N_4 
REMARK       I    between atoms: N_4  and  C_5 
REMARK    2  A    between atoms: C_5  and  C_6 
REMARK    3  A    between atoms: C_7  and  C_8 
REMARK    4  A    between atoms: C_16  and  C_17 
ROOT
HETATM    1  C   UNL     1      30.282  42.424  53.473  1.00  0.00     0.003 A 
HETATM    2  C   UNL     1      29.251  42.938  52.686  1.00  0.00     0.029 A 
HETATM    3  C   UNL     1      28.553  44.073  53.097  1.00  0.00     0.035 A 
HETATM    4  C   UNL     1      28.903  44.691  54.308  1.00  0.00     0.042 A 
HETATM    5  C   UNL     1      29.913  44.162  55.131  1.00  0.00    -0.021 A 
HETATM    6  C   UNL     1      30.608  43.028  54.688  1.00  0.00     0.012 A 
ENDROOT
BRANCH   3   7
HETATM    7  N   UNL     1      27.512  44.653  52.343  1.00  0.00    -0.327 N 
HETATM    8  C   UNL     1      26.157  44.447  52.519  1.00  0.00     0.227 C 
HETATM    9  O   UNL     1      25.625  43.813  53.418  1.00  0.00    -0.273 OA
HETATM   10  H   UNL     1      27.783  45.364  51.677  1.00  0.00     0.169 HD
BRANCH   8  11
HETATM   11  C   UNL     1      25.329  45.195  51.527  1.00  0.00     0.089 A 
HETATM   12  C   UNL     1      25.192  44.750  50.079  1.00  0.00     0.057 A 
HETATM   13  C   UNL     1      24.022  44.654  51.036  1.00  0.00     0.027 A 
BRANCH  12  14
HETATM   14  C   UNL     1      25.757  43.434  49.574  1.00  0.00     0.057 A 
HETATM   15  O   UNL     1      27.078  43.172  49.375  1.00  0.00    -0.327 OA
HETATM   16  C   UNL     1      27.178  41.883  48.970  1.00  0.00     0.142 A 
HETATM   17  C   UNL     1      25.934  41.303  48.904  1.00  0.00     0.027 A 
HETATM   18  C   UNL     1      25.012  42.306  49.293  1.00  0.00     0.035 A 
ENDBRANCH  12  14
ENDBRANCH   8  11
ENDBRANCH   3   7
BRANCH   5  19
HETATM   19  C   UNL     1      30.206  44.773  56.421  1.00  0.00     0.010 A 
HETATM   20  C   UNL     1      29.652  45.910  57.059  1.00  0.00     0.152 A 
HETATM   21  N   UNL     1      30.166  46.130  58.273  1.00  0.00    -0.187 NA
HETATM   22  N   UNL     1      31.051  45.133  58.422  1.00  0.00    -0.289 N 
HETATM   23  H   UNL     1      31.575  45.081  59.290  1.00  0.00     0.188 HD
HETATM   24  C   UNL     1      31.111  44.294  57.347  1.00  0.00     0.123 A 
ENDBRANCH   5  19
TORSDOF 4
ENDMDL
MODEL 6
REMARK VINA RESULT:      -7.8      2.108      2.901
REMARK  4 active torsions:
REMARK  status: ('A' for Active; 'I' for Inactive)
REMARK    1  A    between atoms: C_3  and  N_4 
REMARK       I    between atoms: N_4  and  C_5 
REMARK    2  A    between atoms: C_5  and  C_6 
REMARK    3  A    between atoms: C_7  and  C_8 
REMARK    4  A    between atoms: C_16  and  C_17 
ROOT
HETATM    1  C   UNL     1      30.311  42.378  53.163  1.00  0.00     0.003 A 
HETATM    2  C   UNL     1      29.088  42.149  52.531  1.00  0.00     0.029 A 
HETATM    3  C   UNL     1      27.951  42.853  52.926  1.00  0.00     0.035 A 
HETATM    4  C   UNL     1      28.054  43.794  53.963  1.00  0.00     0.042 A 
HETATM    5  C   UNL     1      29.270  44.007  54.635  1.00  0.00    -0.021 A 
HETATM    6  C   UNL     1      30.401  43.297  54.210  1.00  0.00     0.012 A 
ENDROOT
BRANCH   3   7
HETATM    7  N   UNL     1      26.689  42.682  52.320  1.00  0.00    -0.327 N 
HETATM    8  C   UNL     1      26.428  42.632  50.964  1.00  0.00     0.227 C 
HETATM    9  O   UNL     1      27.253  42.623  50.061  1.00  0.00    -0.273 OA
HETATM   10  H   UNL     1      25.918  42.477  52.941  1.00  0.00     0.169 HD
BRANCH   8  11
HETATM   11  C   UNL     1      24.975  42.470  50.664  1.00  0.00     0.089 A 
HETATM   12  C   UNL     1      23.991  43.627  50.749  1.00  0.00     0.057 A 
HETATM   13  C   UNL     1      24.370  43.025  49.412  1.00  0.00     0.027 A 
BRANCH  12  14
HETATM   14  C   UNL     1      24.436  45.058  50.992  1.00  0.00     0.057 A 
HETATM   15  O   UNL     1      25.011  45.517  52.138  1.00  0.00    -0.327 OA
HETATM   16  C   UNL     1      25.304  46.826  51.946  1.00  0.00     0.142 A 
HETATM   17  C   UNL     1      24.926  47.223  50.686  1.00  0.00     0.027 A 
HETATM   18  C   UNL     1      24.362  46.080  50.067  1.00  0.00     0.035 A 
ENDBRANCH  12  14
ENDBRANCH   8  11
ENDBRANCH   3   7
BRANCH   5  19
HETATM   19  C   UNL     1      29.336  44.930  55.761  1.00  0.00     0.010 A 
HETATM   20  C   UNL     1      28.370  45.822  56.291  1.00  0.00     0.152 A 
HETATM   21  N   UNL     1      28.804  46.481  57.370  1.00  0.00    -0.187 NA
HETATM   22  N   UNL     1      30.050  46.013  57.541  1.00  0.00    -0.289 N 
HETATM   23  H   UNL     1      30.593  46.366  58.322  1.00  0.00     0.188 HD
HETATM   24  C   UNL     1      30.414  45.084  56.609  1.00  0.00     0.123 A 
ENDBRANCH   5  19
TORSDOF 4
ENDMDL
MODEL 7
REMARK VINA RESULT:      -7.5      1.781      3.281
REMARK  4 active torsions:
REMARK  status: ('A' for Active; 'I' for Inactive)
REMARK    1  A    between atoms: C_3  and  N_4 
REMARK       I    between atoms: N_4  and  C_5 
REMARK    2  A    between atoms: C_5  and  C_6 
REMARK    3  A    between atoms: C_7  and  C_8 
REMARK    4  A    between atoms: C_16  and  C_17 
ROOT
HETATM    1  C   UNL     1      26.600  47.732  54.843  1.00  0.00     0.003 A 
HETATM    2  C   UNL     1      25.830  47.375  53.736  1.00  0.00     0.029 A 
HETATM    3  C   UNL     1      26.072  46.175  53.070  1.00  0.00     0.035 A 
HETATM    4  C   UNL     1      27.097  45.332  53.529  1.00  0.00     0.042 A 
HETATM    5  C   UNL     1      27.907  45.696  54.619  1.00  0.00    -0.021 A 
HETATM    6  C   UNL     1      27.633  46.902  55.279  1.00  0.00     0.012 A 
ENDROOT
BRANCH   3   7
HETATM    7  N   UNL     1      25.323  45.746  51.955  1.00  0.00    -0.327 N 
HETATM    8  C   UNL     1      25.606  46.002  50.626  1.00  0.00     0.227 C 
HETATM    9  O   UNL     1      26.605  46.551  50.185  1.00  0.00    -0.273 OA
HETATM   10  H   UNL     1      24.562  45.108  52.144  1.00  0.00     0.169 HD
BRANCH   8  11
HETATM   11  C   UNL     1      24.587  45.425  49.700  1.00  0.00     0.089 A 
HETATM   12  C   UNL     1      24.678  43.999  49.177  1.00  0.00     0.057 A 
HETATM   13  C   UNL     1      23.603  44.397  50.167  1.00  0.00     0.027 A 
BRANCH  12  14
HETATM   14  C   UNL     1      25.718  43.012  49.677  1.00  0.00     0.057 A 
HETATM   15  O   UNL     1      26.995  42.918  49.213  1.00  0.00    -0.327 OA
HETATM   16  C   UNL     1      27.618  41.958  49.939  1.00  0.00     0.142 A 
HETATM   17  C   UNL     1      26.759  41.427  50.872  1.00  0.00     0.027 A 
HETATM   18  C   UNL     1      25.527  42.108  50.701  1.00  0.00     0.035 A 
ENDBRANCH  12  14
ENDBRANCH   8  11
ENDBRANCH   3   7
BRANCH   5  19
HETATM   19  C   UNL     1      29.015  44.844  55.029  1.00  0.00     0.010 A 
HETATM   20  C   UNL     1      29.435  43.574  54.561  1.00  0.00     0.152 A 
HETATM   21  N   UNL     1      30.537  43.129  55.173  1.00  0.00    -0.187 NA
HETATM   22  N   UNL     1      30.833  44.114  56.036  1.00  0.00    -0.289 N 
HETATM   23  H   UNL     1      31.654  44.008  56.623  1.00  0.00     0.188 HD
HETATM   24  C   UNL     1      29.957  45.160  55.987  1.00  0.00     0.123 A 
ENDBRANCH   5  19
TORSDOF 4
ENDMDL
MODEL 8
REMARK VINA RESULT:      -7.5      2.915      4.206
REMARK  4 active torsions:
REMARK  status: ('A' for Active; 'I' for Inactive)
REMARK    1  A    between atoms: C_3  and  N_4 
REMARK       I    between atoms: N_4  and  C_5 
REMARK    2  A    between atoms: C_5  and  C_6 
REMARK    3  A    between atoms: C_7  and  C_8 
REMARK    4  A    between atoms: C_16  and  C_17 
ROOT
HETATM    1  C   UNL     1      29.677  43.597  54.914  1.00  0.00     0.003 A 
HETATM    2  C   UNL     1      29.060  42.614  54.140  1.00  0.00     0.029 A 
HETATM    3  C   UNL     1      27.845  42.878  53.508  1.00  0.00     0.035 A 
HETATM    4  C   UNL     1      27.256  44.143  53.658  1.00  0.00     0.042 A 
HETATM    5  C   UNL     1      27.847  45.131  54.466  1.00  0.00    -0.021 A 
HETATM    6  C   UNL     1      29.074  44.845  55.079  1.00  0.00     0.012 A 
ENDROOT
BRANCH   3   7
HETATM    7  N   UNL     1      27.175  41.935  52.701  1.00  0.00    -0.327 N 
HETATM    8  C   UNL     1      27.567  41.499  51.449  1.00  0.00     0.227 C 
HETATM    9  O   UNL     1      28.610  41.773  50.873  1.00  0.00    -0.273 OA
HETATM   10  H   UNL     1      26.388  41.462  53.123  1.00  0.00     0.169 HD
BRANCH   8  11
HETATM   11  C   UNL     1      26.611  40.516  50.858  1.00  0.00     0.089 A 
HETATM   12  C   UNL     1      25.282  40.938  50.249  1.00  0.00     0.057 A 
HETATM   13  C   UNL     1      26.408  40.419  49.378  1.00  0.00     0.027 A 
BRANCH  12  14
HETATM   14  C   UNL     1      24.900  42.394  50.057  1.00  0.00     0.057 A 
HETATM   15  O   UNL     1      24.641  43.277  51.060  1.00  0.00    -0.327 OA
HETATM   16  C   UNL     1      24.387  44.478  50.487  1.00  0.00     0.142 A 
HETATM   17  C   UNL     1      24.477  44.386  49.119  1.00  0.00     0.027 A 
HETATM   18  C   UNL     1      24.808  43.037  48.838  1.00  0.00     0.035 A 
ENDBRANCH  12  14
ENDBRANCH   8  11
ENDBRANCH   3   7
BRANCH   5  19
HETATM   19  C   UNL     1      27.178  46.409  54.671  1.00  0.00     0.010 A 
HETATM   20  C   UNL     1      26.045  46.979  54.038  1.00  0.00     0.152 A 
HETATM   21  N   UNL     1      25.712  48.172  54.541  1.00  0.00    -0.187 NA
HETATM   22  N   UNL     1      26.627  48.373  55.501  1.00  0.00    -0.289 N 
HETATM   23  H   UNL     1      26.575  49.229  56.044  1.00  0.00     0.188 HD
HETATM   24  C   UNL     1      27.522  47.350  55.621  1.00  0.00     0.123 A 
ENDBRANCH   5  19
TORSDOF 4
ENDMDL
MODEL 9
REMARK VINA RESULT:      -7.4      4.488      8.368
REMARK  4 active torsions:
REMARK  status: ('A' for Active; 'I' for Inactive)
REMARK    1  A    between atoms: C_3  and  N_4 
REMARK       I    between atoms: N_4  and  C_5 
REMARK    2  A    between atoms: C_5  and  C_6 
REMARK    3  A    between atoms: C_7  and  C_8 
REMARK    4  A    between atoms: C_16  and  C_17 
ROOT
HETATM    1  C   UNL     1      26.628  49.803  48.304  1.00  0.00     0.003 A 
HETATM    2  C   UNL     1      26.948  48.786  49.204  1.00  0.00     0.029 A 
HETATM    3  C   UNL     1      25.939  48.009  49.773  1.00  0.00     0.035 A 
HETATM    4  C   UNL     1      24.603  48.262  49.426  1.00  0.00     0.042 A 
HETATM    5  C   UNL     1      24.262  49.309  48.551  1.00  0.00    -0.021 A 
HETATM    6  C   UNL     1      25.296  50.065  47.982  1.00  0.00     0.012 A 
ENDROOT
BRANCH   3   7
HETATM    7  N   UNL     1      26.193  46.957  50.677  1.00  0.00    -0.327 N 
HETATM    8  C   UNL     1      26.656  45.694  50.359  1.00  0.00     0.227 C 
HETATM    9  O   UNL     1      27.022  45.305  49.259  1.00  0.00    -0.273 OA
HETATM   10  H   UNL     1      26.124  47.184  51.659  1.00  0.00     0.169 HD
BRANCH   8  11
HETATM   11  C   UNL     1      26.787  44.813  51.557  1.00  0.00     0.089 A 
HETATM   12  C   UNL     1      25.751  43.756  51.909  1.00  0.00     0.057 A 
HETATM   13  C   UNL     1      27.130  43.361  51.423  1.00  0.00     0.027 A 
BRANCH  12  14
HETATM   14  C   UNL     1      24.592  43.414  50.990  1.00  0.00     0.057 A 
HETATM   15  O   UNL     1      23.427  44.114  50.903  1.00  0.00    -0.327 OA
HETATM   16  C   UNL     1      22.673  43.525  49.943  1.00  0.00     0.142 A 
HETATM   17  C   UNL     1      23.336  42.449  49.404  1.00  0.00     0.027 A 
HETATM   18  C   UNL     1      24.579  42.375  50.082  1.00  0.00     0.035 A 
ENDBRANCH  12  14
ENDBRANCH   8  11
ENDBRANCH   3   7
BRANCH   5  19
HETATM   19  C   UNL     1      22.864  49.604  48.266  1.00  0.00     0.010 A 
HETATM   20  C   UNL     1      21.810  48.770  47.816  1.00  0.00     0.152 A 
HETATM   21  N   UNL     1      20.643  49.414  47.711  1.00  0.00    -0.187 NA
HETATM   22  N   UNL     1      20.941  50.664  48.097  1.00  0.00    -0.289 N 
HETATM   23  H   UNL     1      20.197  51.354  48.110  1.00  0.00     0.188 HD
HETATM   24  C   UNL     1      22.252  50.829  48.442  1.00  0.00     0.123 A 
ENDBRANCH   5  19
TORSDOF 4
ENDMDL
MODEL 10
REMARK VINA RESULT:      -7.4      2.891      4.411
REMARK  4 active torsions:
REMARK  status: ('A' for Active; 'I' for Inactive)
REMARK    1  A    between atoms: C_3  and  N_4 
REMARK       I    between atoms: N_4  and  C_5 
REMARK    2  A    between atoms: C_5  and  C_6 
REMARK    3  A    between atoms: C_7  and  C_8 
REMARK    4  A    between atoms: C_16  and  C_17 
ROOT
HETATM    1  C   UNL     1      30.268  44.174  55.464  1.00  0.00     0.003 A 
HETATM    2  C   UNL     1      30.070  43.233  54.454  1.00  0.00     0.029 A 
HETATM    3  C   UNL     1      29.039  43.401  53.530  1.00  0.00     0.035 A 
HETATM    4  C   UNL     1      28.208  44.528  53.629  1.00  0.00     0.042 A 
HETATM    5  C   UNL     1      28.371  45.465  54.664  1.00  0.00    -0.021 A 
HETATM    6  C   UNL     1      29.423  45.280  55.572  1.00  0.00     0.012 A 
ENDROOT
BRANCH   3   7
HETATM    7  N   UNL     1      28.793  42.496  52.477  1.00  0.00    -0.327 N 
HETATM    8  C   UNL     1      28.180  41.261  52.580  1.00  0.00     0.227 C 
HETATM    9  O   UNL     1      27.654  40.787  53.577  1.00  0.00    -0.273 OA
HETATM   10  H   UNL     1      28.995  42.828  51.544  1.00  0.00     0.169 HD
BRANCH   8  11
HETATM   11  C   UNL     1      28.105  40.547  51.271  1.00  0.00     0.089 A 
HETATM   12  C   UNL     1      26.943  40.731  50.308  1.00  0.00     0.057 A 
HETATM   13  C   UNL     1      28.320  41.267  49.976  1.00  0.00     0.027 A 
BRANCH  12  14
HETATM   14  C   UNL     1      25.855  41.766  50.532  1.00  0.00     0.057 A 
HETATM   15  O   UNL     1      26.006  42.923  51.234  1.00  0.00    -0.327 OA
HETATM   16  C   UNL     1      24.830  43.594  51.165  1.00  0.00     0.142 A 
HETATM   17  C   UNL     1      23.916  42.885  50.424  1.00  0.00     0.027 A 
HETATM   18  C   UNL     1      24.577  41.701  50.014  1.00  0.00     0.035 A 
ENDBRANCH  12  14
ENDBRANCH   8  11
ENDBRANCH   3   7
BRANCH   5  19
HETATM   19  C   UNL     1      27.448  46.585  54.794  1.00  0.00     0.010 A 
HETATM   20  C   UNL     1      26.355  46.989  53.987  1.00  0.00     0.152 A 
HETATM   21  N   UNL     1      25.720  48.063  54.466  1.00  0.00    -0.187 NA
HETATM   22  N   UNL     1      26.400  48.352  55.587  1.00  0.00    -0.289 N 
HETATM   23  H   UNL     1      26.094  49.144  56.144  1.00  0.00     0.188 HD
HETATM   24  C   UNL     1      27.438  47.499  55.828  1.00  0.00     0.123 A 
ENDBRANCH   5  19
TORSDOF 4
ENDMDL
