MODEL 1
REMARK VINA RESULT:      -8.6      0.000      0.000
REMARK  5 active torsions:
REMARK  status: ('A' for Active; 'I' for Inactive)
REMARK    1  A    between atoms: O_2  and  C_3 
REMARK    2  A    between atoms: C_4  and  C_5 
REMARK       I    between atoms: C_5  and  N_6 
REMARK    3  A    between atoms: N_6  and  C_7 
REMARK    4  A    between atoms: C_7  and  C_8 
REMARK    5  A    between atoms: C_8  and  C_9 
ROOT
HETATM    1  C   UNL     1      26.209  44.421  53.441  1.00  0.00     0.256 C 
HETATM    2  N   UNL     1      26.390  44.366  52.075  1.00  0.00    -0.356 N 
HETATM    3  O   UNL     1      25.173  44.078  53.998  1.00  0.00    -0.268 OA
HETATM    4  H   UNL     1      27.217  44.775  51.658  1.00  0.00     0.162 HD
ENDROOT
BRANCH   2   5
HETATM    5  C   UNL     1      25.317  43.954  51.187  1.00  0.00     0.130 C 
BRANCH   5   6
HETATM    6  C   UNL     1      24.200  44.994  51.092  1.00  0.00     0.098 C 
BRANCH   6   7
HETATM    7  C   UNL     1      24.680  46.226  50.411  1.00  0.00     0.106 A 
HETATM    8  N   UNL     1      25.932  46.611  50.277  1.00  0.00    -0.233 NA
HETATM    9  C   UNL     1      25.881  47.797  49.586  1.00  0.00     0.085 A 
HETATM   10  C   UNL     1      24.569  48.138  49.280  1.00  0.00     0.062 A 
HETATM   11  C   UNL     1      26.923  48.643  49.178  1.00  0.00     0.034 A 
HETATM   12  N   UNL     1      23.822  47.121  49.817  1.00  0.00    -0.343 N 
HETATM   13  C   UNL     1      24.222  49.293  48.577  1.00  0.00     0.032 A 
HETATM   14  H   UNL     1      22.815  47.042  49.786  1.00  0.00     0.167 HD
HETATM   15  C   UNL     1      25.274  50.126  48.178  1.00  0.00     0.002 A 
HETATM   16  C   UNL     1      26.603  49.810  48.473  1.00  0.00     0.002 A 
ENDBRANCH   6   7
ENDBRANCH   5   6
ENDBRANCH   2   5
BRANCH   1  17
HETATM   17  C   UNL     1      27.366  44.911  54.224  1.00  0.00     0.088 A 
HETATM   18  C   UNL     1      28.430  44.034  54.503  1.00  0.00     0.107 A 
HETATM   19  C   UNL     1      29.506  44.469  55.289  1.00  0.00     0.068 A 
HETATM   20  C   UNL     1      29.545  45.778  55.768  1.00  0.00     0.028 A 
HETATM   21 CL   UNL     1      30.821  43.419  55.683  1.00  0.00    -0.081 Cl
HETATM   22  C   UNL     1      28.498  46.654  55.483  1.00  0.00     0.027 A 
HETATM   23  C   UNL     1      27.407  46.224  54.721  1.00  0.00     0.052 A 
HETATM   24 CL   UNL     1      26.133  47.368  54.469  1.00  0.00    -0.083 Cl
BRANCH  18  25
HETATM   25  O   UNL     1      28.412  42.726  54.079  1.00  0.00    -0.353 OA
HETATM   26  C   UNL     1      29.254  42.536  52.942  1.00  0.00     0.210 C 
ENDBRANCH  18  25
ENDBRANCH   1  17
TORSDOF 5
ENDMDL
MODEL 2
REMARK VINA RESULT:      -8.5      3.020      7.958
REMARK  5 active torsions:
REMARK  status: ('A' for Active; 'I' for Inactive)
REMARK    1  A    between atoms: O_2  and  C_3 
REMARK    2  A    between atoms: C_4  and  C_5 
REMARK       I    between atoms: C_5  and  N_6 
REMARK    3  A    between atoms: N_6  and  C_7 
REMARK    4  A    between atoms: C_7  and  C_8 
REMARK    5  A    between atoms: C_8  and  C_9 
ROOT
HETATM    1  C   UNL     1      25.374  46.981  50.163  1.00  0.00     0.256 C 
HETATM    2  N   UNL     1      25.278  47.157  51.528  1.00  0.00    -0.356 N 
HETATM    3  O   UNL     1      25.629  45.904  49.638  1.00  0.00    -0.268 OA
HETATM    4  H   UNL     1      25.187  48.090  51.912  1.00  0.00     0.162 HD
ENDROOT
BRANCH   2   5
HETATM    5  C   UNL     1      25.545  46.067  52.450  1.00  0.00     0.130 C 
BRANCH   5   6
HETATM    6  C   UNL     1      25.981  46.559  53.831  1.00  0.00     0.098 C 
BRANCH   6   7
HETATM    7  C   UNL     1      27.186  45.824  54.299  1.00  0.00     0.106 A 
HETATM    8  N   UNL     1      27.561  44.616  53.930  1.00  0.00    -0.233 NA
HETATM    9  C   UNL     1      28.721  44.364  54.621  1.00  0.00     0.085 A 
HETATM   10  C   UNL     1      29.069  45.446  55.421  1.00  0.00     0.062 A 
HETATM   11  C   UNL     1      29.540  43.225  54.613  1.00  0.00     0.034 A 
HETATM   12  N   UNL     1      28.074  46.363  55.199  1.00  0.00    -0.343 N 
HETATM   13  C   UNL     1      30.207  45.466  56.231  1.00  0.00     0.032 A 
HETATM   14  H   UNL     1      28.002  47.278  55.623  1.00  0.00     0.167 HD
HETATM   15  C   UNL     1      31.011  44.321  56.210  1.00  0.00     0.002 A 
HETATM   16  C   UNL     1      30.687  43.217  55.417  1.00  0.00     0.002 A 
ENDBRANCH   6   7
ENDBRANCH   5   6
ENDBRANCH   2   5
BRANCH   1  17
HETATM   17  C   UNL     1      25.130  48.188  49.341  1.00  0.00     0.088 A 
HETATM   18  C   UNL     1      23.809  48.538  49.007  1.00  0.00     0.107 A 
HETATM   19  C   UNL     1      23.567  49.647  48.183  1.00  0.00     0.068 A 
HETATM   20  C   UNL     1      24.627  50.427  47.721  1.00  0.00     0.028 A 
HETATM   21 CL   UNL     1      21.965  50.098  47.722  1.00  0.00    -0.081 Cl
HETATM   22  C   UNL     1      25.937  50.090  48.061  1.00  0.00     0.027 A 
HETATM   23  C   UNL     1      26.193  48.970  48.861  1.00  0.00     0.052 A 
HETATM   24 CL   UNL     1      27.853  48.604  49.179  1.00  0.00    -0.083 Cl
BRANCH  18  25
HETATM   25  O   UNL     1      22.740  47.776  49.413  1.00  0.00    -0.353 OA
HETATM   26  C   UNL     1      22.332  46.864  48.393  1.00  0.00     0.210 C 
ENDBRANCH  18  25
ENDBRANCH   1  17
TORSDOF 5
ENDMDL
MODEL 3
REMARK VINA RESULT:      -8.4      1.499      3.256
REMARK  5 active torsions:
REMARK  status: ('A' for Active; 'I' for Inactive)
REMARK    1  A    between atoms: O_2  and  C_3 
REMARK    2  A    between atoms: C_4  and  C_5 
REMARK       I    between atoms: C_5  and  N_6 
REMARK    3  A    between atoms: N_6  and  C_7 
REMARK    4  A    between atoms: C_7  and  C_8 
REMARK    5  A    between atoms: C_8  and  C_9 
ROOT
HETATM    1  C   UNL     1      28.101  43.001  53.431  1.00  0.00     0.256 C 
HETATM    2  N   UNL     1      28.346  43.136  52.081  1.00  0.00    -0.356 N 
HETATM    3  O   UNL     1      27.781  41.942  53.956  1.00  0.00    -0.268 OA
HETATM    4  H   UNL     1      28.487  44.056  51.682  1.00  0.00     0.162 HD
ENDROOT
BRANCH   2   5
HETATM    5  C   UNL     1      28.169  42.021  51.167  1.00  0.00     0.130 C 
BRANCH   5   6
HETATM    6  C   UNL     1      26.957  42.198  50.251  1.00  0.00     0.098 C 
BRANCH   6   7
HETATM    7  C   UNL     1      26.594  43.635  50.125  1.00  0.00     0.106 A 
HETATM    8  N   UNL     1      27.401  44.622  49.794  1.00  0.00    -0.233 NA
HETATM    9  C   UNL     1      26.624  45.754  49.809  1.00  0.00     0.085 A 
HETATM   10  C   UNL     1      25.310  45.451  50.146  1.00  0.00     0.062 A 
HETATM   11  C   UNL     1      26.974  47.086  49.541  1.00  0.00     0.034 A 
HETATM   12  N   UNL     1      25.317  44.094  50.344  1.00  0.00    -0.343 N 
HETATM   13  C   UNL     1      24.301  46.412  50.234  1.00  0.00     0.032 A 
HETATM   14  H   UNL     1      24.523  43.527  50.606  1.00  0.00     0.167 HD
HETATM   15  C   UNL     1      24.668  47.735  49.964  1.00  0.00     0.002 A 
HETATM   16  C   UNL     1      25.982  48.071  49.624  1.00  0.00     0.002 A 
ENDBRANCH   6   7
ENDBRANCH   5   6
ENDBRANCH   2   5
BRANCH   1  17
HETATM   17  C   UNL     1      28.266  44.230  54.241  1.00  0.00     0.088 A 
HETATM   18  C   UNL     1      27.297  45.246  54.156  1.00  0.00     0.107 A 
HETATM   19  C   UNL     1      27.469  46.438  54.875  1.00  0.00     0.068 A 
HETATM   20  C   UNL     1      28.579  46.607  55.703  1.00  0.00     0.028 A 
HETATM   21 CL   UNL     1      26.321  47.725  54.780  1.00  0.00    -0.081 Cl
HETATM   22  C   UNL     1      29.535  45.597  55.799  1.00  0.00     0.027 A 
HETATM   23  C   UNL     1      29.387  44.414  55.066  1.00  0.00     0.052 A 
HETATM   24 CL   UNL     1      30.654  43.245  55.210  1.00  0.00    -0.083 Cl
BRANCH  18  25
HETATM   25  O   UNL     1      26.207  45.132  53.325  1.00  0.00    -0.353 OA
HETATM   26  C   UNL     1      25.097  44.540  54.001  1.00  0.00     0.210 C 
ENDBRANCH  18  25
ENDBRANCH   1  17
TORSDOF 5
ENDMDL
MODEL 4
REMARK VINA RESULT:      -8.3      2.878      7.290
REMARK  5 active torsions:
REMARK  status: ('A' for Active; 'I' for Inactive)
REMARK    1  A    between atoms: O_2  and  C_3 
REMARK    2  A    between atoms: C_4  and  C_5 
REMARK       I    between atoms: C_5  and  N_6 
REMARK    3  A    between atoms: N_6  and  C_7 
REMARK    4  A    between atoms: C_7  and  C_8 
REMARK    5  A    between atoms: C_8  and  C_9 
ROOT
HETATM    1  C   UNL     1      25.573  44.489  53.273  1.00  0.00     0.256 C 
HETATM    2  N   UNL     1      26.238  45.697  53.295  1.00  0.00    -0.356 N 
HETATM    3  O   UNL     1      24.804  44.126  54.155  1.00  0.00    -0.268 OA
HETATM    4  H   UNL     1      26.952  45.893  52.605  1.00  0.00     0.162 HD
ENDROOT
BRANCH   2   5
HETATM    5  C   UNL     1      26.118  46.604  54.423  1.00  0.00     0.130 C 
BRANCH   5   6
HETATM    6  C   UNL     1      27.430  47.323  54.741  1.00  0.00     0.098 C 
BRANCH   6   7
HETATM    7  C   UNL     1      28.430  46.377  55.305  1.00  0.00     0.106 A 
HETATM    8  N   UNL     1      28.962  45.341  54.690  1.00  0.00    -0.233 NA
HETATM    9  C   UNL     1      29.821  44.774  55.600  1.00  0.00     0.085 A 
HETATM   10  C   UNL     1      29.821  45.487  56.793  1.00  0.00     0.062 A 
HETATM   11  C   UNL     1      30.641  43.643  55.475  1.00  0.00     0.034 A 
HETATM   12  N   UNL     1      28.926  46.503  56.580  1.00  0.00    -0.343 N 
HETATM   13  C   UNL     1      30.606  45.136  57.894  1.00  0.00     0.032 A 
HETATM   14  H   UNL     1      28.671  47.221  57.244  1.00  0.00     0.167 HD
HETATM   15  C   UNL     1      31.418  44.005  57.752  1.00  0.00     0.002 A 
HETATM   16  C   UNL     1      31.437  43.268  56.565  1.00  0.00     0.002 A 
ENDBRANCH   6   7
ENDBRANCH   5   6
ENDBRANCH   2   5
BRANCH   1  17
HETATM   17  C   UNL     1      25.827  43.636  52.090  1.00  0.00     0.088 A 
HETATM   18  C   UNL     1      25.033  43.801  50.940  1.00  0.00     0.107 A 
HETATM   19  C   UNL     1      25.227  42.963  49.831  1.00  0.00     0.068 A 
HETATM   20  C   UNL     1      26.226  41.990  49.849  1.00  0.00     0.028 A 
HETATM   21 CL   UNL     1      24.258  43.107  48.409  1.00  0.00    -0.081 Cl
HETATM   22  C   UNL     1      27.024  41.833  50.983  1.00  0.00     0.027 A 
HETATM   23  C   UNL     1      26.823  42.646  52.104  1.00  0.00     0.052 A 
HETATM   24 CL   UNL     1      27.825  42.336  53.480  1.00  0.00    -0.083 Cl
BRANCH  18  25
HETATM   25  O   UNL     1      24.016  44.724  50.896  1.00  0.00    -0.353 OA
HETATM   26  C   UNL     1      24.425  45.918  50.229  1.00  0.00     0.210 C 
ENDBRANCH  18  25
ENDBRANCH   1  17
TORSDOF 5
ENDMDL
MODEL 5
REMARK VINA RESULT:      -8.2      1.582      2.250
REMARK  5 active torsions:
REMARK  status: ('A' for Active; 'I' for Inactive)
REMARK    1  A    between atoms: O_2  and  C_3 
REMARK    2  A    between atoms: C_4  and  C_5 
REMARK       I    between atoms: C_5  and  N_6 
REMARK    3  A    between atoms: N_6  and  C_7 
REMARK    4  A    between atoms: C_7  and  C_8 
REMARK    5  A    between atoms: C_8  and  C_9 
ROOT
HETATM    1  C   UNL     1      25.818  45.140  53.296  1.00  0.00     0.256 C 
HETATM    2  N   UNL     1      25.814  45.714  52.042  1.00  0.00    -0.356 N 
HETATM    3  O   UNL     1      24.880  44.494  53.746  1.00  0.00    -0.268 OA
HETATM    4  H   UNL     1      26.563  46.338  51.769  1.00  0.00     0.162 HD
ENDROOT
BRANCH   2   5
HETATM    5  C   UNL     1      24.643  45.644  51.185  1.00  0.00     0.130 C 
BRANCH   5   6
HETATM    6  C   UNL     1      24.903  46.210  49.788  1.00  0.00     0.098 C 
BRANCH   6   7
HETATM    7  C   UNL     1      24.002  47.360  49.507  1.00  0.00     0.106 A 
HETATM    8  N   UNL     1      24.333  48.634  49.509  1.00  0.00    -0.233 NA
HETATM    9  C   UNL     1      23.181  49.314  49.197  1.00  0.00     0.085 A 
HETATM   10  C   UNL     1      22.125  48.435  48.990  1.00  0.00     0.062 A 
HETATM   11  C   UNL     1      22.960  50.694  49.071  1.00  0.00     0.034 A 
HETATM   12  N   UNL     1      22.674  47.195  49.194  1.00  0.00    -0.343 N 
HETATM   13  C   UNL     1      20.835  48.852  48.655  1.00  0.00     0.032 A 
HETATM   14  H   UNL     1      22.188  46.311  49.128  1.00  0.00     0.167 HD
HETATM   15  C   UNL     1      20.633  50.231  48.533  1.00  0.00     0.002 A 
HETATM   16  C   UNL     1      21.675  51.140  48.738  1.00  0.00     0.002 A 
ENDBRANCH   6   7
ENDBRANCH   5   6
ENDBRANCH   2   5
BRANCH   1  17
HETATM   17  C   UNL     1      27.055  45.334  54.087  1.00  0.00     0.088 A 
HETATM   18  C   UNL     1      28.005  44.298  54.144  1.00  0.00     0.107 A 
HETATM   19  C   UNL     1      29.155  44.447  54.933  1.00  0.00     0.068 A 
HETATM   20  C   UNL     1      29.380  45.631  55.635  1.00  0.00     0.028 A 
HETATM   21 CL   UNL     1      30.335  43.191  55.058  1.00  0.00    -0.081 Cl
HETATM   22  C   UNL     1      28.446  46.665  55.571  1.00  0.00     0.027 A 
HETATM   23  C   UNL     1      27.282  46.518  54.807  1.00  0.00     0.052 A 
HETATM   24 CL   UNL     1      26.160  47.834  54.836  1.00  0.00    -0.083 Cl
BRANCH  18  25
HETATM   25  O   UNL     1      27.804  43.103  53.495  1.00  0.00    -0.353 OA
HETATM   26  C   UNL     1      28.421  43.099  52.208  1.00  0.00     0.210 C 
ENDBRANCH  18  25
ENDBRANCH   1  17
TORSDOF 5
ENDMDL
MODEL 6
REMARK VINA RESULT:      -8.1      2.880      7.680
REMARK  5 active torsions:
REMARK  status: ('A' for Active; 'I' for Inactive)
REMARK    1  A    between atoms: O_2  and  C_3 
REMARK    2  A    between atoms: C_4  and  C_5 
REMARK       I    between atoms: C_5  and  N_6 
REMARK    3  A    between atoms: N_6  and  C_7 
REMARK    4  A    between atoms: C_7  and  C_8 
REMARK    5  A    between atoms: C_8  and  C_9 
ROOT
HETATM    1  C   UNL     1      25.101  47.113  50.343  1.00  0.00     0.256 C 
HETATM    2  N   UNL     1      25.226  45.879  49.739  1.00  0.00    -0.356 N 
HETATM    3  O   UNL     1      25.099  47.273  51.557  1.00  0.00    -0.268 OA
HETATM    4  H   UNL     1      25.098  45.791  48.739  1.00  0.00     0.162 HD
ENDROOT
BRANCH   2   5
HETATM    5  C   UNL     1      25.295  44.659  50.524  1.00  0.00     0.130 C 
BRANCH   5   6
HETATM    6  C   UNL     1      26.591  43.882  50.289  1.00  0.00     0.098 C 
BRANCH   6   7
HETATM    7  C   UNL     1      27.446  43.895  51.506  1.00  0.00     0.106 A 
HETATM    8  N   UNL     1      27.278  44.647  52.574  1.00  0.00    -0.233 NA
HETATM    9  C   UNL     1      28.302  44.312  53.425  1.00  0.00     0.085 A 
HETATM   10  C   UNL     1      29.108  43.325  52.869  1.00  0.00     0.062 A 
HETATM   11  C   UNL     1      28.609  44.812  54.699  1.00  0.00     0.034 A 
HETATM   12  N   UNL     1      28.541  43.076  51.646  1.00  0.00    -0.343 N 
HETATM   13  C   UNL     1      30.223  42.791  53.518  1.00  0.00     0.032 A 
HETATM   14  H   UNL     1      28.870  42.409  50.962  1.00  0.00     0.167 HD
HETATM   15  C   UNL     1      30.514  43.301  54.789  1.00  0.00     0.002 A 
HETATM   16  C   UNL     1      29.724  44.295  55.372  1.00  0.00     0.002 A 
ENDBRANCH   6   7
ENDBRANCH   5   6
ENDBRANCH   2   5
BRANCH   1  17
HETATM   17  C   UNL     1      24.984  48.269  49.424  1.00  0.00     0.088 A 
HETATM   18  C   UNL     1      23.708  48.691  49.007  1.00  0.00     0.107 A 
HETATM   19  C   UNL     1      23.586  49.749  48.095  1.00  0.00     0.068 A 
HETATM   20  C   UNL     1      24.722  50.410  47.626  1.00  0.00     0.028 A 
HETATM   21 CL   UNL     1      22.043  50.283  47.531  1.00  0.00    -0.081 Cl
HETATM   22  C   UNL     1      25.987  50.003  48.048  1.00  0.00     0.027 A 
HETATM   23  C   UNL     1      26.123  48.931  48.938  1.00  0.00     0.052 A 
HETATM   24 CL   UNL     1      27.736  48.467  49.357  1.00  0.00    -0.083 Cl
BRANCH  18  25
HETATM   25  O   UNL     1      22.568  48.043  49.419  1.00  0.00    -0.353 OA
HETATM   26  C   UNL     1      22.146  47.071  48.462  1.00  0.00     0.210 C 
ENDBRANCH  18  25
ENDBRANCH   1  17
TORSDOF 5
ENDMDL
MODEL 7
REMARK VINA RESULT:      -8.1      2.170      3.271
REMARK  5 active torsions:
REMARK  status: ('A' for Active; 'I' for Inactive)
REMARK    1  A    between atoms: O_2  and  C_3 
REMARK    2  A    between atoms: C_4  and  C_5 
REMARK       I    between atoms: C_5  and  N_6 
REMARK    3  A    between atoms: N_6  and  C_7 
REMARK    4  A    between atoms: C_7  and  C_8 
REMARK    5  A    between atoms: C_8  and  C_9 
ROOT
HETATM    1  C   UNL     1      26.077  44.890  53.062  1.00  0.00     0.256 C 
HETATM    2  N   UNL     1      26.186  45.797  52.028  1.00  0.00    -0.356 N 
HETATM    3  O   UNL     1      25.011  44.410  53.428  1.00  0.00    -0.268 OA
HETATM    4  H   UNL     1      27.072  46.253  51.848  1.00  0.00     0.162 HD
ENDROOT
BRANCH   2   5
HETATM    5  C   UNL     1      25.011  46.302  51.340  1.00  0.00     0.130 C 
BRANCH   5   6
HETATM    6  C   UNL     1      25.356  47.012  50.030  1.00  0.00     0.098 C 
BRANCH   6   7
HETATM    7  C   UNL     1      24.280  47.963  49.644  1.00  0.00     0.106 A 
HETATM    8  N   UNL     1      24.432  49.232  49.325  1.00  0.00    -0.233 NA
HETATM    9  C   UNL     1      23.170  49.695  49.046  1.00  0.00     0.085 A 
HETATM   10  C   UNL     1      22.227  48.684  49.187  1.00  0.00     0.062 A 
HETATM   11  C   UNL     1      22.750  50.977  48.661  1.00  0.00     0.034 A 
HETATM   12  N   UNL     1      22.959  47.590  49.569  1.00  0.00    -0.343 N 
HETATM   13  C   UNL     1      20.861  48.873  48.962  1.00  0.00     0.032 A 
HETATM   14  H   UNL     1      22.595  46.668  49.765  1.00  0.00     0.167 HD
HETATM   15  C   UNL     1      20.460  50.158  48.578  1.00  0.00     0.002 A 
HETATM   16  C   UNL     1      21.385  51.195  48.430  1.00  0.00     0.002 A 
ENDBRANCH   6   7
ENDBRANCH   5   6
ENDBRANCH   2   5
BRANCH   1  17
HETATM   17  C   UNL     1      27.349  44.501  53.713  1.00  0.00     0.088 A 
HETATM   18  C   UNL     1      27.859  45.295  54.757  1.00  0.00     0.107 A 
HETATM   19  C   UNL     1      29.089  44.968  55.346  1.00  0.00     0.068 A 
HETATM   20  C   UNL     1      29.794  43.841  54.926  1.00  0.00     0.028 A 
HETATM   21 CL   UNL     1      29.770  45.929  56.610  1.00  0.00    -0.081 Cl
HETATM   22  C   UNL     1      29.285  43.045  53.900  1.00  0.00     0.027 A 
HETATM   23  C   UNL     1      28.071  43.375  53.287  1.00  0.00     0.052 A 
HETATM   24 CL   UNL     1      27.553  42.358  51.987  1.00  0.00    -0.083 Cl
BRANCH  18  25
HETATM   25  O   UNL     1      27.211  46.433  55.176  1.00  0.00    -0.353 OA
HETATM   26  C   UNL     1      27.810  47.606  54.624  1.00  0.00     0.210 C 
ENDBRANCH  18  25
ENDBRANCH   1  17
TORSDOF 5
ENDMDL
MODEL 8
REMARK VINA RESULT:      -8.1      2.709      7.227
REMARK  5 active torsions:
REMARK  status: ('A' for Active; 'I' for Inactive)
REMARK    1  A    between atoms: O_2  and  C_3 
REMARK    2  A    between atoms: C_4  and  C_5 
REMARK       I    between atoms: C_5  and  N_6 
REMARK    3  A    between atoms: N_6  and  C_7 
REMARK    4  A    between atoms: C_7  and  C_8 
REMARK    5  A    between atoms: C_8  and  C_9 
ROOT
HETATM    1  C   UNL     1      26.806  43.844  52.842  1.00  0.00     0.256 C 
HETATM    2  N   UNL     1      27.925  43.354  52.202  1.00  0.00    -0.356 N 
HETATM    3  O   UNL     1      26.418  43.435  53.930  1.00  0.00    -0.268 OA
HETATM    4  H   UNL     1      28.131  43.641  51.253  1.00  0.00     0.162 HD
ENDROOT
BRANCH   2   5
HETATM    5  C   UNL     1      28.690  42.251  52.758  1.00  0.00     0.130 C 
BRANCH   5   6
HETATM    6  C   UNL     1      30.131  42.643  53.088  1.00  0.00     0.098 C 
BRANCH   6   7
HETATM    7  C   UNL     1      30.193  43.412  54.360  1.00  0.00     0.106 A 
HETATM    8  N   UNL     1      29.501  44.493  54.656  1.00  0.00    -0.233 NA
HETATM    9  C   UNL     1      29.892  44.842  55.926  1.00  0.00     0.085 A 
HETATM   10  C   UNL     1      30.835  43.949  56.420  1.00  0.00     0.062 A 
HETATM   11  C   UNL     1      29.479  45.917  56.727  1.00  0.00     0.034 A 
HETATM   12  N   UNL     1      31.011  43.047  55.402  1.00  0.00    -0.343 N 
HETATM   13  C   UNL     1      31.404  44.061  57.690  1.00  0.00     0.032 A 
HETATM   14  H   UNL     1      31.634  42.252  55.413  1.00  0.00     0.167 HD
HETATM   15  C   UNL     1      30.981  45.139  58.475  1.00  0.00     0.002 A 
HETATM   16  C   UNL     1      30.035  46.054  58.005  1.00  0.00     0.002 A 
ENDBRANCH   6   7
ENDBRANCH   5   6
ENDBRANCH   2   5
BRANCH   1  17
HETATM   17  C   UNL     1      26.088  44.931  52.139  1.00  0.00     0.088 A 
HETATM   18  C   UNL     1      25.393  44.641  50.951  1.00  0.00     0.107 A 
HETATM   19  C   UNL     1      24.754  45.672  50.246  1.00  0.00     0.068 A 
HETATM   20  C   UNL     1      24.774  46.978  50.736  1.00  0.00     0.028 A 
HETATM   21 CL   UNL     1      23.914  45.371  48.767  1.00  0.00    -0.081 Cl
HETATM   22  C   UNL     1      25.451  47.266  51.921  1.00  0.00     0.027 A 
HETATM   23  C   UNL     1      26.114  46.251  52.619  1.00  0.00     0.052 A 
HETATM   24 CL   UNL     1      26.971  46.719  54.047  1.00  0.00    -0.083 Cl
BRANCH  18  25
HETATM   25  O   UNL     1      25.380  43.375  50.417  1.00  0.00    -0.353 OA
HETATM   26  C   UNL     1      24.178  42.681  50.753  1.00  0.00     0.210 C 
ENDBRANCH  18  25
ENDBRANCH   1  17
TORSDOF 5
ENDMDL
MODEL 9
REMARK VINA RESULT:      -8.0      2.138      3.003
REMARK  5 active torsions:
REMARK  status: ('A' for Active; 'I' for Inactive)
REMARK    1  A    between atoms: O_2  and  C_3 
REMARK    2  A    between atoms: C_4  and  C_5 
REMARK       I    between atoms: C_5  and  N_6 
REMARK    3  A    between atoms: N_6  and  C_7 
REMARK    4  A    between atoms: C_7  and  C_8 
REMARK    5  A    between atoms: C_8  and  C_9 
ROOT
HETATM    1  C   UNL     1      26.232  45.160  53.193  1.00  0.00     0.256 C 
HETATM    2  N   UNL     1      26.337  45.944  52.063  1.00  0.00    -0.356 N 
HETATM    3  O   UNL     1      25.219  45.094  53.878  1.00  0.00    -0.268 OA
HETATM    4  H   UNL     1      27.233  46.054  51.606  1.00  0.00     0.162 HD
ENDROOT
BRANCH   2   5
HETATM    5  C   UNL     1      25.250  46.812  51.644  1.00  0.00     0.130 C 
BRANCH   5   6
HETATM    6  C   UNL     1      24.833  46.575  50.193  1.00  0.00     0.098 C 
BRANCH   6   7
HETATM    7  C   UNL     1      23.881  47.622  49.737  1.00  0.00     0.106 A 
HETATM    8  N   UNL     1      24.082  48.924  49.750  1.00  0.00    -0.233 NA
HETATM    9  C   UNL     1      22.933  49.478  49.240  1.00  0.00     0.085 A 
HETATM   10  C   UNL     1      22.015  48.492  48.897  1.00  0.00     0.062 A 
HETATM   11  C   UNL     1      22.602  50.826  49.036  1.00  0.00     0.034 A 
HETATM   12  N   UNL     1      22.642  47.318  49.224  1.00  0.00    -0.343 N 
HETATM   13  C   UNL     1      20.760  48.771  48.350  1.00  0.00     0.032 A 
HETATM   14  H   UNL     1      22.262  46.389  49.110  1.00  0.00     0.167 HD
HETATM   15  C   UNL     1      20.447  50.121  48.154  1.00  0.00     0.002 A 
HETATM   16  C   UNL     1      21.349  51.134  48.491  1.00  0.00     0.002 A 
ENDBRANCH   6   7
ENDBRANCH   5   6
ENDBRANCH   2   5
BRANCH   1  17
HETATM   17  C   UNL     1      27.433  44.364  53.537  1.00  0.00     0.088 A 
HETATM   18  C   UNL     1      27.636  43.119  52.913  1.00  0.00     0.107 A 
HETATM   19  C   UNL     1      28.740  42.331  53.270  1.00  0.00     0.068 A 
HETATM   20  C   UNL     1      29.658  42.790  54.214  1.00  0.00     0.028 A 
HETATM   21 CL   UNL     1      29.014  40.783  52.555  1.00  0.00    -0.081 Cl
HETATM   22  C   UNL     1      29.467  44.030  54.824  1.00  0.00     0.027 A 
HETATM   23  C   UNL     1      28.356  44.814  54.495  1.00  0.00     0.052 A 
HETATM   24 CL   UNL     1      28.178  46.309  55.347  1.00  0.00    -0.083 Cl
BRANCH  18  25
HETATM   25  O   UNL     1      26.736  42.616  52.005  1.00  0.00    -0.353 OA
HETATM   26  C   UNL     1      27.161  42.856  50.663  1.00  0.00     0.210 C 
ENDBRANCH  18  25
ENDBRANCH   1  17
TORSDOF 5
ENDMDL
MODEL 10
REMARK VINA RESULT:      -8.0      3.307      8.142
REMARK  5 active torsions:
REMARK  status: ('A' for Active; 'I' for Inactive)
REMARK    1  A    between atoms: O_2  and  C_3 
REMARK    2  A    between atoms: C_4  and  C_5 
REMARK       I    between atoms: C_5  and  N_6 
REMARK    3  A    between atoms: N_6  and  C_7 
REMARK    4  A    between atoms: C_7  and  C_8 
REMARK    5  A    between atoms: C_8  and  C_9 
ROOT
HETATM    1  C   UNL     1      25.070  46.811  50.102  1.00  0.00     0.256 C 
HETATM    2  N   UNL     1      24.995  47.199  51.423  1.00  0.00    -0.356 N 
HETATM    3  O   UNL     1      26.032  46.221  49.626  1.00  0.00    -0.268 OA
HETATM    4  H   UNL     1      24.233  47.789  51.734  1.00  0.00     0.162 HD
ENDROOT
BRANCH   2   5
HETATM    5  C   UNL     1      26.106  46.989  52.336  1.00  0.00     0.130 C 
BRANCH   5   6
HETATM    6  C   UNL     1      25.798  45.941  53.406  1.00  0.00     0.098 C 
BRANCH   6   7
HETATM    7  C   UNL     1      27.052  45.386  53.981  1.00  0.00     0.106 A 
HETATM    8  N   UNL     1      27.608  44.230  53.682  1.00  0.00    -0.233 NA
HETATM    9  C   UNL     1      28.738  44.153  54.459  1.00  0.00     0.085 A 
HETATM   10  C   UNL     1      28.882  45.293  55.242  1.00  0.00     0.062 A 
HETATM   11  C   UNL     1      29.697  43.134  54.547  1.00  0.00     0.034 A 
HETATM   12  N   UNL     1      27.794  46.063  54.920  1.00  0.00    -0.343 N 
HETATM   13  C   UNL     1      29.945  45.485  56.126  1.00  0.00     0.032 A 
HETATM   14  H   UNL     1      27.572  46.970  55.305  1.00  0.00     0.167 HD
HETATM   15  C   UNL     1      30.893  44.458  56.202  1.00  0.00     0.002 A 
HETATM   16  C   UNL     1      30.774  43.300  55.428  1.00  0.00     0.002 A 
ENDBRANCH   6   7
ENDBRANCH   5   6
ENDBRANCH   2   5
BRANCH   1  17
HETATM   17  C   UNL     1      23.890  47.134  49.269  1.00  0.00     0.088 A 
HETATM   18  C   UNL     1      23.658  48.470  48.893  1.00  0.00     0.107 A 
HETATM   19  C   UNL     1      22.515  48.799  48.149  1.00  0.00     0.068 A 
HETATM   20  C   UNL     1      21.623  47.803  47.751  1.00  0.00     0.028 A 
HETATM   21 CL   UNL     1      22.172  50.428  47.690  1.00  0.00    -0.081 Cl
HETATM   22  C   UNL     1      21.857  46.476  48.111  1.00  0.00     0.027 A 
HETATM   23  C   UNL     1      22.980  46.140  48.875  1.00  0.00     0.052 A 
HETATM   24 CL   UNL     1      23.152  44.476  49.318  1.00  0.00    -0.083 Cl
BRANCH  18  25
HETATM   25  O   UNL     1      24.494  49.485  49.295  1.00  0.00    -0.353 OA
HETATM   26  C   UNL     1      25.479  49.772  48.303  1.00  0.00     0.210 C 
ENDBRANCH  18  25
ENDBRANCH   1  17
TORSDOF 5
ENDMDL
