MODEL 1
REMARK VINA RESULT:      -9.0      0.000      0.000
REMARK  5 active torsions:
REMARK  status: ('A' for Active; 'I' for Inactive)
REMARK    1  A    between atoms: C_2  and  C_3 
REMARK    2  A    between atoms: C_8  and  C_9 
REMARK       I    between atoms: C_9  and  N_10 
REMARK    3  A    between atoms: N_10  and  C_11 
REMARK    4  A    between atoms: C_11  and  C_12 
REMARK    5  A    between atoms: C_19  and  C_20 
ROOT
HETATM    1  C   UNL     1      26.196  44.631  53.416  1.00  0.00     0.118 C 
HETATM    2  N   UNL     1      25.813  43.360  52.812  1.00  0.00    -0.366 N 
HETATM    3  C   UNL     1      26.186  43.055  51.548  1.00  0.00     0.123 C 
HETATM    4  N   UNL     1      26.677  44.006  50.692  1.00  0.00    -0.240 N 
HETATM    5  N   UNL     1      27.185  43.488  49.560  1.00  0.00    -0.165 NA
HETATM    6  C   UNL     1      26.881  42.172  49.639  1.00  0.00     0.148 C 
HETATM    7  C   UNL     1      26.231  41.870  50.866  1.00  0.00     0.088 C 
HETATM    8  C   UNL     1      26.905  45.392  51.061  1.00  0.00     0.221 C 
HETATM    9  C   UNL     1      26.169  45.750  52.367  1.00  0.00     0.066 C 
HETATM   10  H   UNL     1      25.672  42.604  53.482  1.00  0.00     0.161 HD
ENDROOT
BRANCH   6  11
HETATM   11  C   UNL     1      27.260  41.215  48.590  1.00  0.00     0.272 C 
HETATM   12  N   UNL     1      26.705  39.969  48.761  1.00  0.00    -0.353 N 
HETATM   13  H   UNL     1      26.254  39.808  49.658  1.00  0.00     0.162 HD
HETATM   14  O   UNL     1      27.988  41.509  47.647  1.00  0.00    -0.266 OA
BRANCH  12  15
HETATM   15  C   UNL     1      26.997  38.850  47.892  1.00  0.00     0.155 C 
BRANCH  15  16
HETATM   16  C   UNL     1      28.094  37.944  48.452  1.00  0.00     0.139 C 
HETATM   17  O   UNL     1      29.397  38.507  48.195  1.00  0.00    -0.384 OA
HETATM   18  C   UNL     1      30.266  38.136  49.274  1.00  0.00     0.168 C 
HETATM   19  C   UNL     1      29.434  37.385  50.297  1.00  0.00     0.029 C 
HETATM   20  C   UNL     1      28.024  37.801  49.960  1.00  0.00     0.035 C 
ENDBRANCH  15  16
ENDBRANCH  12  15
ENDBRANCH   6  11
BRANCH   8  21
HETATM   21  C   UNL     1      26.468  46.334  49.960  1.00  0.00     0.409 C 
HETATM   22  F   UNL     1      25.476  45.815  49.200  1.00  0.00    -0.169 F 
HETATM   23  F   UNL     1      25.975  47.479  50.508  1.00  0.00    -0.169 F 
HETATM   24  F   UNL     1      27.472  46.712  49.143  1.00  0.00    -0.169 F 
ENDBRANCH   8  21
BRANCH   1  25
HETATM   25  C   UNL     1      27.502  44.524  54.192  1.00  0.00    -0.035 A 
HETATM   26  C   UNL     1      28.011  45.568  54.984  1.00  0.00     0.011 A 
HETATM   27  C   UNL     1      29.215  45.424  55.680  1.00  0.00     0.024 A 
HETATM   28  C   UNL     1      29.931  44.236  55.589  1.00  0.00     0.034 A 
HETATM   29  C   UNL     1      29.451  43.187  54.811  1.00  0.00     0.024 A 
HETATM   30 CL   UNL     1      31.418  44.063  56.436  1.00  0.00    -0.084 Cl
HETATM   31  C   UNL     1      28.242  43.329  54.121  1.00  0.00     0.011 A 
ENDBRANCH   1  25
TORSDOF 5
ENDMDL
MODEL 2
REMARK VINA RESULT:      -8.5      4.066      7.136
REMARK  5 active torsions:
REMARK  status: ('A' for Active; 'I' for Inactive)
REMARK    1  A    between atoms: C_2  and  C_3 
REMARK    2  A    between atoms: C_8  and  C_9 
REMARK       I    between atoms: C_9  and  N_10 
REMARK    3  A    between atoms: N_10  and  C_11 
REMARK    4  A    between atoms: C_11  and  C_12 
REMARK    5  A    between atoms: C_19  and  C_20 
ROOT
HETATM    1  C   UNL     1      24.334  45.316  51.011  1.00  0.00     0.118 C 
HETATM    2  N   UNL     1      25.008  45.144  52.294  1.00  0.00    -0.366 N 
HETATM    3  C   UNL     1      26.146  44.419  52.384  1.00  0.00     0.123 C 
HETATM    4  N   UNL     1      26.556  43.592  51.371  1.00  0.00    -0.240 N 
HETATM    5  N   UNL     1      27.801  43.115  51.548  1.00  0.00    -0.165 NA
HETATM    6  C   UNL     1      28.142  43.545  52.784  1.00  0.00     0.148 C 
HETATM    7  C   UNL     1      27.114  44.347  53.349  1.00  0.00     0.088 C 
HETATM    8  C   UNL     1      25.867  43.459  50.100  1.00  0.00     0.221 C 
HETATM    9  C   UNL     1      24.438  44.032  50.178  1.00  0.00     0.066 C 
HETATM   10  H   UNL     1      24.855  45.907  52.953  1.00  0.00     0.161 HD
ENDROOT
BRANCH   6  11
HETATM   11  C   UNL     1      29.449  43.244  53.388  1.00  0.00     0.272 C 
HETATM   12  N   UNL     1      29.480  43.439  54.748  1.00  0.00    -0.353 N 
HETATM   13  H   UNL     1      28.675  43.920  55.142  1.00  0.00     0.162 HD
HETATM   14  O   UNL     1      30.409  42.844  52.737  1.00  0.00    -0.266 OA
BRANCH  12  15
HETATM   15  C   UNL     1      30.680  43.276  55.539  1.00  0.00     0.155 C 
BRANCH  15  16
HETATM   16  C   UNL     1      30.980  44.499  56.407  1.00  0.00     0.139 C 
HETATM   17  O   UNL     1      29.815  45.342  56.515  1.00  0.00    -0.384 OA
HETATM   18  C   UNL     1      29.836  45.971  57.803  1.00  0.00     0.168 C 
HETATM   19  C   UNL     1      31.023  45.416  58.568  1.00  0.00     0.029 C 
HETATM   20  C   UNL     1      31.328  44.132  57.838  1.00  0.00     0.035 C 
ENDBRANCH  15  16
ENDBRANCH  12  15
ENDBRANCH   6  11
BRANCH   8  21
HETATM   21  C   UNL     1      25.808  42.014  49.653  1.00  0.00     0.409 C 
HETATM   22  F   UNL     1      24.795  41.782  48.787  1.00  0.00    -0.169 F 
HETATM   23  F   UNL     1      26.958  41.693  48.997  1.00  0.00    -0.169 F 
HETATM   24  F   UNL     1      25.703  41.138  50.673  1.00  0.00    -0.169 F 
ENDBRANCH   8  21
BRANCH   1  25
HETATM   25  C   UNL     1      24.791  46.577  50.290  1.00  0.00    -0.035 A 
HETATM   26  C   UNL     1      26.126  47.015  50.284  1.00  0.00     0.011 A 
HETATM   27  C   UNL     1      26.500  48.180  49.607  1.00  0.00     0.024 A 
HETATM   28  C   UNL     1      25.542  48.927  48.932  1.00  0.00     0.034 A 
HETATM   29  C   UNL     1      24.212  48.517  48.923  1.00  0.00     0.024 A 
HETATM   30 CL   UNL     1      25.999  50.366  48.108  1.00  0.00    -0.084 Cl
HETATM   31  C   UNL     1      23.841  47.347  49.594  1.00  0.00     0.011 A 
ENDBRANCH   1  25
TORSDOF 5
ENDMDL
MODEL 3
REMARK VINA RESULT:      -8.5      2.091      2.955
REMARK  5 active torsions:
REMARK  status: ('A' for Active; 'I' for Inactive)
REMARK    1  A    between atoms: C_2  and  C_3 
REMARK    2  A    between atoms: C_8  and  C_9 
REMARK       I    between atoms: C_9  and  N_10 
REMARK    3  A    between atoms: N_10  and  C_11 
REMARK    4  A    between atoms: C_11  and  C_12 
REMARK    5  A    between atoms: C_19  and  C_20 
ROOT
HETATM    1  C   UNL     1      26.253  44.281  53.335  1.00  0.00     0.118 C 
HETATM    2  N   UNL     1      25.888  43.051  52.641  1.00  0.00    -0.366 N 
HETATM    3  C   UNL     1      26.229  42.861  51.346  1.00  0.00     0.123 C 
HETATM    4  N   UNL     1      26.666  43.893  50.557  1.00  0.00    -0.240 N 
HETATM    5  N   UNL     1      27.153  43.484  49.372  1.00  0.00    -0.165 NA
HETATM    6  C   UNL     1      26.889  42.157  49.352  1.00  0.00     0.148 C 
HETATM    7  C   UNL     1      26.286  41.737  50.568  1.00  0.00     0.088 C 
HETATM    8  C   UNL     1      26.866  45.251  51.031  1.00  0.00     0.221 C 
HETATM    9  C   UNL     1      26.161  45.479  52.382  1.00  0.00     0.066 C 
HETATM   10  H   UNL     1      25.789  42.239  53.251  1.00  0.00     0.161 HD
ENDROOT
BRANCH   6  11
HETATM   11  C   UNL     1      27.262  41.299  48.217  1.00  0.00     0.272 C 
HETATM   12  N   UNL     1      26.413  41.417  47.142  1.00  0.00    -0.353 N 
HETATM   13  H   UNL     1      25.554  41.934  47.314  1.00  0.00     0.162 HD
HETATM   14  O   UNL     1      28.244  40.564  48.229  1.00  0.00    -0.266 OA
BRANCH  12  15
HETATM   15  C   UNL     1      26.543  40.616  45.945  1.00  0.00     0.155 C 
BRANCH  15  16
HETATM   16  C   UNL     1      27.435  41.276  44.892  1.00  0.00     0.139 C 
HETATM   17  O   UNL     1      28.677  40.557  44.758  1.00  0.00    -0.384 OA
HETATM   18  C   UNL     1      29.113  40.666  43.395  1.00  0.00     0.168 C 
HETATM   19  C   UNL     1      28.036  41.408  42.627  1.00  0.00     0.029 C 
HETATM   20  C   UNL     1      26.820  41.251  43.505  1.00  0.00     0.035 C 
ENDBRANCH  15  16
ENDBRANCH  12  15
ENDBRANCH   6  11
BRANCH   8  21
HETATM   21  C   UNL     1      26.368  46.264  50.023  1.00  0.00     0.409 C 
HETATM   22  F   UNL     1      25.292  45.821  49.333  1.00  0.00    -0.169 F 
HETATM   23  F   UNL     1      25.971  47.395  50.671  1.00  0.00    -0.169 F 
HETATM   24  F   UNL     1      27.307  46.651  49.137  1.00  0.00    -0.169 F 
ENDBRANCH   8  21
BRANCH   1  25
HETATM   25  C   UNL     1      27.585  44.152  54.062  1.00  0.00    -0.035 A 
HETATM   26  C   UNL     1      28.382  42.995  54.003  1.00  0.00     0.011 A 
HETATM   27  C   UNL     1      29.599  42.921  54.687  1.00  0.00     0.024 A 
HETATM   28  C   UNL     1      30.035  44.002  55.444  1.00  0.00     0.034 A 
HETATM   29  C   UNL     1      29.266  45.159  55.521  1.00  0.00     0.024 A 
HETATM   30 CL   UNL     1      31.527  43.908  56.294  1.00  0.00    -0.084 Cl
HETATM   31  C   UNL     1      28.052  45.235  54.830  1.00  0.00     0.011 A 
ENDBRANCH   1  25
TORSDOF 5
ENDMDL
MODEL 4
REMARK VINA RESULT:      -8.3      4.429      8.183
REMARK  5 active torsions:
REMARK  status: ('A' for Active; 'I' for Inactive)
REMARK    1  A    between atoms: C_2  and  C_3 
REMARK    2  A    between atoms: C_8  and  C_9 
REMARK       I    between atoms: C_9  and  N_10 
REMARK    3  A    between atoms: N_10  and  C_11 
REMARK    4  A    between atoms: C_11  and  C_12 
REMARK    5  A    between atoms: C_19  and  C_20 
ROOT
HETATM    1  C   UNL     1      26.361  40.768  50.934  1.00  0.00     0.118 C 
HETATM    2  N   UNL     1      25.369  41.830  51.064  1.00  0.00    -0.366 N 
HETATM    3  C   UNL     1      25.753  43.116  51.239  1.00  0.00     0.123 C 
HETATM    4  N   UNL     1      27.038  43.444  51.584  1.00  0.00    -0.240 N 
HETATM    5  N   UNL     1      27.285  44.764  51.512  1.00  0.00    -0.165 NA
HETATM    6  C   UNL     1      26.075  45.307  51.244  1.00  0.00     0.148 C 
HETATM    7  C   UNL     1      25.084  44.300  51.091  1.00  0.00     0.088 C 
HETATM    8  C   UNL     1      28.113  42.479  51.730  1.00  0.00     0.221 C 
HETATM    9  C   UNL     1      27.561  41.044  51.848  1.00  0.00     0.066 C 
HETATM   10  H   UNL     1      24.485  41.638  50.593  1.00  0.00     0.161 HD
ENDROOT
BRANCH   6  11
HETATM   11  C   UNL     1      25.884  46.756  51.079  1.00  0.00     0.272 C 
HETATM   12  N   UNL     1      25.931  47.167  49.768  1.00  0.00    -0.353 N 
HETATM   13  H   UNL     1      26.256  46.472  49.101  1.00  0.00     0.162 HD
HETATM   14  O   UNL     1      25.688  47.516  52.022  1.00  0.00    -0.266 OA
BRANCH  12  15
HETATM   15  C   UNL     1      25.842  48.556  49.375  1.00  0.00     0.155 C 
BRANCH  15  16
HETATM   16  C   UNL     1      24.472  48.915  48.798  1.00  0.00     0.139 C 
HETATM   17  O   UNL     1      23.544  49.230  49.855  1.00  0.00    -0.384 OA
HETATM   18  C   UNL     1      22.626  50.217  49.366  1.00  0.00     0.168 C 
HETATM   19  C   UNL     1      23.068  50.603  47.967  1.00  0.00     0.029 C 
HETATM   20  C   UNL     1      24.508  50.159  47.930  1.00  0.00     0.035 C 
ENDBRANCH  15  16
ENDBRANCH  12  15
ENDBRANCH   6  11
BRANCH   8  21
HETATM   21  C   UNL     1      28.972  42.790  52.936  1.00  0.00     0.409 C 
HETATM   22  F   UNL     1      29.330  41.678  53.618  1.00  0.00    -0.169 F 
HETATM   23  F   UNL     1      30.130  43.382  52.531  1.00  0.00    -0.169 F 
HETATM   24  F   UNL     1      28.397  43.650  53.802  1.00  0.00    -0.169 F 
ENDBRANCH   8  21
BRANCH   1  25
HETATM   25  C   UNL     1      26.723  40.500  49.479  1.00  0.00    -0.035 A 
HETATM   26  C   UNL     1      25.851  40.769  48.410  1.00  0.00     0.011 A 
HETATM   27  C   UNL     1      26.226  40.507  47.089  1.00  0.00     0.024 A 
HETATM   28  C   UNL     1      27.478  39.966  46.819  1.00  0.00     0.034 A 
HETATM   29  C   UNL     1      28.360  39.688  47.858  1.00  0.00     0.024 A 
HETATM   30 CL   UNL     1      27.936  39.632  45.195  1.00  0.00    -0.084 Cl
HETATM   31  C   UNL     1      27.986  39.958  49.179  1.00  0.00     0.011 A 
ENDBRANCH   1  25
TORSDOF 5
ENDMDL
MODEL 5
REMARK VINA RESULT:      -8.2      4.732      8.461
REMARK  5 active torsions:
REMARK  status: ('A' for Active; 'I' for Inactive)
REMARK    1  A    between atoms: C_2  and  C_3 
REMARK    2  A    between atoms: C_8  and  C_9 
REMARK       I    between atoms: C_9  and  N_10 
REMARK    3  A    between atoms: N_10  and  C_11 
REMARK    4  A    between atoms: C_11  and  C_12 
REMARK    5  A    between atoms: C_19  and  C_20 
ROOT
HETATM    1  C   UNL     1      27.067  38.299  47.954  1.00  0.00     0.118 C 
HETATM    2  N   UNL     1      26.191  39.136  48.766  1.00  0.00    -0.366 N 
HETATM    3  C   UNL     1      26.696  39.904  49.759  1.00  0.00     0.123 C 
HETATM    4  N   UNL     1      27.970  39.726  50.232  1.00  0.00    -0.240 N 
HETATM    5  N   UNL     1      28.366  40.704  51.066  1.00  0.00    -0.165 NA
HETATM    6  C   UNL     1      27.256  41.457  51.235  1.00  0.00     0.148 C 
HETATM    7  C   UNL     1      26.180  40.969  50.447  1.00  0.00     0.088 C 
HETATM    8  C   UNL     1      28.911  38.763  49.689  1.00  0.00     0.221 C 
HETATM    9  C   UNL     1      28.195  37.716  48.814  1.00  0.00     0.066 C 
HETATM   10  H   UNL     1      25.341  39.439  48.290  1.00  0.00     0.161 HD
ENDROOT
BRANCH   6  11
HETATM   11  C   UNL     1      27.244  42.656  52.087  1.00  0.00     0.272 C 
HETATM   12  N   UNL     1      27.496  42.387  53.412  1.00  0.00    -0.353 N 
HETATM   13  H   UNL     1      27.488  41.404  53.670  1.00  0.00     0.162 HD
HETATM   14  O   UNL     1      27.044  43.785  51.651  1.00  0.00    -0.266 OA
BRANCH  12  15
HETATM   15  C   UNL     1      27.462  43.402  54.442  1.00  0.00     0.155 C 
BRANCH  15  16
HETATM   16  C   UNL     1      28.807  44.110  54.613  1.00  0.00     0.139 C 
HETATM   17  O   UNL     1      28.716  45.130  55.627  1.00  0.00    -0.384 OA
HETATM   18  C   UNL     1      29.990  45.228  56.279  1.00  0.00     0.168 C 
HETATM   19  C   UNL     1      30.885  44.147  55.703  1.00  0.00     0.029 C 
HETATM   20  C   UNL     1      29.902  43.178  55.096  1.00  0.00     0.035 C 
ENDBRANCH  15  16
ENDBRANCH  12  15
ENDBRANCH   6  11
BRANCH   8  21
HETATM   21  C   UNL     1      29.679  38.063  50.789  1.00  0.00     0.409 C 
HETATM   22  F   UNL     1      29.343  36.757  50.903  1.00  0.00    -0.169 F 
HETATM   23  F   UNL     1      31.011  38.096  50.509  1.00  0.00    -0.169 F 
HETATM   24  F   UNL     1      29.537  38.642  51.999  1.00  0.00    -0.169 F 
ENDBRANCH   8  21
BRANCH   1  25
HETATM   25  C   UNL     1      27.537  39.017  46.696  1.00  0.00    -0.035 A 
HETATM   26  C   UNL     1      27.558  40.417  46.575  1.00  0.00     0.011 A 
HETATM   27  C   UNL     1      27.998  41.033  45.399  1.00  0.00     0.024 A 
HETATM   28  C   UNL     1      28.418  40.257  44.326  1.00  0.00     0.034 A 
HETATM   29  C   UNL     1      28.406  38.869  44.417  1.00  0.00     0.024 A 
HETATM   30 CL   UNL     1      28.950  41.014  42.875  1.00  0.00    -0.084 Cl
HETATM   31  C   UNL     1      27.972  38.254  45.597  1.00  0.00     0.011 A 
ENDBRANCH   1  25
TORSDOF 5
ENDMDL
MODEL 6
REMARK VINA RESULT:      -7.8     12.529     15.075
REMARK  5 active torsions:
REMARK  status: ('A' for Active; 'I' for Inactive)
REMARK    1  A    between atoms: C_2  and  C_3 
REMARK    2  A    between atoms: C_8  and  C_9 
REMARK       I    between atoms: C_9  and  N_10 
REMARK    3  A    between atoms: N_10  and  C_11 
REMARK    4  A    between atoms: C_11  and  C_12 
REMARK    5  A    between atoms: C_19  and  C_20 
ROOT
HETATM    1  C   UNL     1      30.061  49.338  38.643  1.00  0.00     0.118 C 
HETATM    2  N   UNL     1      31.408  49.481  39.184  1.00  0.00    -0.366 N 
HETATM    3  C   UNL     1      31.634  50.245  40.278  1.00  0.00     0.123 C 
HETATM    4  N   UNL     1      30.697  51.127  40.749  1.00  0.00    -0.240 N 
HETATM    5  N   UNL     1      31.011  51.642  41.951  1.00  0.00    -0.165 NA
HETATM    6  C   UNL     1      32.258  51.175  42.189  1.00  0.00     0.148 C 
HETATM    7  C   UNL     1      32.691  50.313  41.146  1.00  0.00     0.088 C 
HETATM    8  C   UNL     1      29.371  51.285  40.178  1.00  0.00     0.221 C 
HETATM    9  C   UNL     1      29.290  50.657  38.773  1.00  0.00     0.066 C 
HETATM   10  H   UNL     1      32.020  48.687  39.000  1.00  0.00     0.161 HD
ENDROOT
BRANCH   6  11
HETATM   11  C   UNL     1      32.995  51.499  43.420  1.00  0.00     0.272 C 
HETATM   12  N   UNL     1      34.249  52.013  43.186  1.00  0.00    -0.353 N 
HETATM   13  H   UNL     1      34.579  51.948  42.226  1.00  0.00     0.162 HD
HETATM   14  O   UNL     1      32.526  51.339  44.542  1.00  0.00    -0.266 OA
BRANCH  12  15
HETATM   15  C   UNL     1      35.179  52.334  44.247  1.00  0.00     0.155 C 
BRANCH  15  16
HETATM   16  C   UNL     1      36.557  52.731  43.717  1.00  0.00     0.139 C 
HETATM   17  O   UNL     1      36.440  53.377  42.434  1.00  0.00    -0.384 OA
HETATM   18  C   UNL     1      37.493  54.345  42.322  1.00  0.00     0.168 C 
HETATM   19  C   UNL     1      38.240  54.366  43.642  1.00  0.00     0.029 C 
HETATM   20  C   UNL     1      37.255  53.747  44.602  1.00  0.00     0.035 C 
ENDBRANCH  15  16
ENDBRANCH  12  15
ENDBRANCH   6  11
BRANCH   8  21
HETATM   21  C   UNL     1      28.975  52.744  40.104  1.00  0.00     0.409 C 
HETATM   22  F   UNL     1      28.147  53.107  41.110  1.00  0.00    -0.169 F 
HETATM   23  F   UNL     1      30.085  53.525  40.217  1.00  0.00    -0.169 F 
HETATM   24  F   UNL     1      28.395  53.087  38.935  1.00  0.00    -0.169 F 
ENDBRANCH   8  21
BRANCH   1  25
HETATM   25  C   UNL     1      29.341  48.125  39.217  1.00  0.00    -0.035 A 
HETATM   26  C   UNL     1      28.191  48.225  40.019  1.00  0.00     0.011 A 
HETATM   27  C   UNL     1      27.562  47.083  40.525  1.00  0.00     0.024 A 
HETATM   28  C   UNL     1      28.079  45.825  40.240  1.00  0.00     0.034 A 
HETATM   29  C   UNL     1      29.217  45.696  39.450  1.00  0.00     0.024 A 
HETATM   30 CL   UNL     1      27.312  44.420  40.872  1.00  0.00    -0.084 Cl
HETATM   31  C   UNL     1      29.841  46.839  38.939  1.00  0.00     0.011 A 
ENDBRANCH   1  25
TORSDOF 5
ENDMDL
MODEL 7
REMARK VINA RESULT:      -7.7      4.461      7.480
REMARK  5 active torsions:
REMARK  status: ('A' for Active; 'I' for Inactive)
REMARK    1  A    between atoms: C_2  and  C_3 
REMARK    2  A    between atoms: C_8  and  C_9 
REMARK       I    between atoms: C_9  and  N_10 
REMARK    3  A    between atoms: N_10  and  C_11 
REMARK    4  A    between atoms: C_11  and  C_12 
REMARK    5  A    between atoms: C_19  and  C_20 
ROOT
HETATM    1  C   UNL     1      27.587  44.079  51.213  1.00  0.00     0.118 C 
HETATM    2  N   UNL     1      27.583  45.242  50.332  1.00  0.00    -0.366 N 
HETATM    3  C   UNL     1      26.436  45.911  50.079  1.00  0.00     0.123 C 
HETATM    4  N   UNL     1      25.209  45.384  50.388  1.00  0.00    -0.240 N 
HETATM    5  N   UNL     1      24.204  46.268  50.257  1.00  0.00    -0.165 NA
HETATM    6  C   UNL     1      24.797  47.356  49.713  1.00  0.00     0.148 C 
HETATM    7  C   UNL     1      26.196  47.157  49.564  1.00  0.00     0.088 C 
HETATM    8  C   UNL     1      25.017  44.113  51.063  1.00  0.00     0.221 C 
HETATM    9  C   UNL     1      26.302  43.263  51.025  1.00  0.00     0.066 C 
HETATM   10  H   UNL     1      28.468  45.748  50.302  1.00  0.00     0.161 HD
ENDROOT
BRANCH   6  11
HETATM   11  C   UNL     1      24.048  48.582  49.398  1.00  0.00     0.272 C 
HETATM   12  N   UNL     1      22.692  48.457  49.583  1.00  0.00    -0.353 N 
HETATM   13  H   UNL     1      22.355  47.510  49.741  1.00  0.00     0.162 HD
HETATM   14  O   UNL     1      24.589  49.618  49.024  1.00  0.00    -0.266 OA
BRANCH  12  15
HETATM   15  C   UNL     1      21.753  49.511  49.266  1.00  0.00     0.155 C 
BRANCH  15  16
HETATM   16  C   UNL     1      20.391  48.971  48.829  1.00  0.00     0.139 C 
HETATM   17  O   UNL     1      20.469  47.556  48.562  1.00  0.00    -0.384 OA
HETATM   18  C   UNL     1      19.205  46.966  48.897  1.00  0.00     0.168 C 
HETATM   19  C   UNL     1      18.333  48.056  49.492  1.00  0.00     0.029 C 
HETATM   20  C   UNL     1      19.334  49.104  49.910  1.00  0.00     0.035 C 
ENDBRANCH  15  16
ENDBRANCH  12  15
ENDBRANCH   6  11
BRANCH   8  21
HETATM   21  C   UNL     1      23.875  43.331  50.450  1.00  0.00     0.409 C 
HETATM   22  F   UNL     1      23.933  43.307  49.099  1.00  0.00    -0.169 F 
HETATM   23  F   UNL     1      23.937  42.035  50.862  1.00  0.00    -0.169 F 
HETATM   24  F   UNL     1      22.657  43.781  50.814  1.00  0.00    -0.169 F 
ENDBRANCH   8  21
BRANCH   1  25
HETATM   25  C   UNL     1      27.891  44.457  52.656  1.00  0.00    -0.035 A 
HETATM   26  C   UNL     1      28.885  43.823  53.422  1.00  0.00     0.011 A 
HETATM   27  C   UNL     1      29.129  44.204  54.746  1.00  0.00     0.024 A 
HETATM   28  C   UNL     1      28.378  45.221  55.323  1.00  0.00     0.034 A 
HETATM   29  C   UNL     1      27.386  45.864  54.589  1.00  0.00     0.024 A 
HETATM   30 CL   UNL     1      28.670  45.682  56.954  1.00  0.00    -0.084 Cl
HETATM   31  C   UNL     1      27.148  45.487  53.263  1.00  0.00     0.011 A 
ENDBRANCH   1  25
TORSDOF 5
ENDMDL
MODEL 8
REMARK VINA RESULT:      -7.7     10.970     13.007
REMARK  5 active torsions:
REMARK  status: ('A' for Active; 'I' for Inactive)
REMARK    1  A    between atoms: C_2  and  C_3 
REMARK    2  A    between atoms: C_8  and  C_9 
REMARK       I    between atoms: C_9  and  N_10 
REMARK    3  A    between atoms: N_10  and  C_11 
REMARK    4  A    between atoms: C_11  and  C_12 
REMARK    5  A    between atoms: C_19  and  C_20 
ROOT
HETATM    1  C   UNL     1      32.032  51.805  42.301  1.00  0.00     0.118 C 
HETATM    2  N   UNL     1      31.447  50.581  42.838  1.00  0.00    -0.366 N 
HETATM    3  C   UNL     1      30.445  49.950  42.184  1.00  0.00     0.123 C 
HETATM    4  N   UNL     1      29.750  50.557  41.171  1.00  0.00    -0.240 N 
HETATM    5  N   UNL     1      28.939  49.714  40.507  1.00  0.00    -0.165 NA
HETATM    6  C   UNL     1      29.019  48.562  41.211  1.00  0.00     0.148 C 
HETATM    7  C   UNL     1      29.939  48.683  42.288  1.00  0.00     0.088 C 
HETATM    8  C   UNL     1      30.050  51.882  40.660  1.00  0.00     0.221 C 
HETATM    9  C   UNL     1      30.951  52.665  41.635  1.00  0.00     0.066 C 
HETATM   10  H   UNL     1      32.082  50.033  43.418  1.00  0.00     0.161 HD
ENDROOT
BRANCH   6  11
HETATM   11  C   UNL     1      28.276  47.353  40.825  1.00  0.00     0.272 C 
HETATM   12  N   UNL     1      26.983  47.335  41.291  1.00  0.00    -0.353 N 
HETATM   13  H   UNL     1      26.751  48.052  41.974  1.00  0.00     0.162 HD
HETATM   14  O   UNL     1      28.763  46.459  40.140  1.00  0.00    -0.266 OA
BRANCH  12  15
HETATM   15  C   UNL     1      26.092  46.212  41.095  1.00  0.00     0.155 C 
BRANCH  15  16
HETATM   16  C   UNL     1      26.178  45.190  42.229  1.00  0.00     0.139 C 
HETATM   17  O   UNL     1      24.870  44.926  42.774  1.00  0.00    -0.384 OA
HETATM   18  C   UNL     1      24.836  43.563  43.218  1.00  0.00     0.168 C 
HETATM   19  C   UNL     1      26.159  42.924  42.841  1.00  0.00     0.029 C 
HETATM   20  C   UNL     1      26.685  43.838  41.763  1.00  0.00     0.035 C 
ENDBRANCH  15  16
ENDBRANCH  12  15
ENDBRANCH   6  11
BRANCH   8  21
HETATM   21  C   UNL     1      28.784  52.670  40.398  1.00  0.00     0.409 C 
HETATM   22  F   UNL     1      27.891  52.564  41.408  1.00  0.00    -0.169 F 
HETATM   23  F   UNL     1      29.086  53.994  40.287  1.00  0.00    -0.169 F 
HETATM   24  F   UNL     1      28.165  52.330  39.249  1.00  0.00    -0.169 F 
ENDBRANCH   8  21
BRANCH   1  25
HETATM   25  C   UNL     1      33.243  51.521  41.423  1.00  0.00    -0.035 A 
HETATM   26  C   UNL     1      33.461  52.155  40.188  1.00  0.00     0.011 A 
HETATM   27  C   UNL     1      34.589  51.863  39.414  1.00  0.00     0.024 A 
HETATM   28  C   UNL     1      35.513  50.927  39.864  1.00  0.00     0.034 A 
HETATM   29  C   UNL     1      35.322  50.283  41.082  1.00  0.00     0.024 A 
HETATM   30 CL   UNL     1      36.895  50.559  38.908  1.00  0.00    -0.084 Cl
HETATM   31  C   UNL     1      34.197  50.581  41.858  1.00  0.00     0.011 A 
ENDBRANCH   1  25
TORSDOF 5
ENDMDL
MODEL 9
REMARK VINA RESULT:      -7.6     12.062     13.567
REMARK  5 active torsions:
REMARK  status: ('A' for Active; 'I' for Inactive)
REMARK    1  A    between atoms: C_2  and  C_3 
REMARK    2  A    between atoms: C_8  and  C_9 
REMARK       I    between atoms: C_9  and  N_10 
REMARK    3  A    between atoms: N_10  and  C_11 
REMARK    4  A    between atoms: C_11  and  C_12 
REMARK    5  A    between atoms: C_19  and  C_20 
ROOT
HETATM    1  C   UNL     1      31.876  51.789  42.263  1.00  0.00     0.118 C 
HETATM    2  N   UNL     1      31.221  50.563  42.705  1.00  0.00    -0.366 N 
HETATM    3  C   UNL     1      30.246  49.994  41.960  1.00  0.00     0.123 C 
HETATM    4  N   UNL     1      29.637  50.667  40.933  1.00  0.00    -0.240 N 
HETATM    5  N   UNL     1      28.846  49.882  40.180  1.00  0.00    -0.165 NA
HETATM    6  C   UNL     1      28.846  48.698  40.834  1.00  0.00     0.148 C 
HETATM    7  C   UNL     1      29.697  48.740  41.972  1.00  0.00     0.088 C 
HETATM    8  C   UNL     1      30.008  52.004  40.504  1.00  0.00     0.221 C 
HETATM    9  C   UNL     1      30.866  52.713  41.570  1.00  0.00     0.066 C 
HETATM   10  H   UNL     1      31.801  49.969  43.297  1.00  0.00     0.161 HD
ENDROOT
BRANCH   6  11
HETATM   11  C   UNL     1      28.095  47.532  40.346  1.00  0.00     0.272 C 
HETATM   12  N   UNL     1      28.868  46.403  40.208  1.00  0.00    -0.353 N 
HETATM   13  H   UNL     1      29.871  46.544  40.288  1.00  0.00     0.162 HD
HETATM   14  O   UNL     1      26.893  47.564  40.102  1.00  0.00    -0.266 OA
BRANCH  12  15
HETATM   15  C   UNL     1      28.357  45.159  39.673  1.00  0.00     0.155 C 
BRANCH  15  16
HETATM   16  C   UNL     1      29.303  44.528  38.652  1.00  0.00     0.139 C 
HETATM   17  O   UNL     1      29.351  43.097  38.823  1.00  0.00    -0.384 OA
HETATM   18  C   UNL     1      29.565  42.499  37.537  1.00  0.00     0.168 C 
HETATM   19  C   UNL     1      29.553  43.611  36.505  1.00  0.00     0.029 C 
HETATM   20  C   UNL     1      28.842  44.733  37.221  1.00  0.00     0.035 C 
ENDBRANCH  15  16
ENDBRANCH  12  15
ENDBRANCH   6  11
BRANCH   8  21
HETATM   21  C   UNL     1      28.786  52.843  40.199  1.00  0.00     0.409 C 
HETATM   22  F   UNL     1      27.833  52.733  41.152  1.00  0.00    -0.169 F 
HETATM   23  F   UNL     1      29.136  54.158  40.152  1.00  0.00    -0.169 F 
HETATM   24  F   UNL     1      28.224  52.563  39.005  1.00  0.00    -0.169 F 
ENDBRANCH   8  21
BRANCH   1  25
HETATM   25  C   UNL     1      33.133  51.505  41.452  1.00  0.00    -0.035 A 
HETATM   26  C   UNL     1      33.385  52.089  40.198  1.00  0.00     0.011 A 
HETATM   27  C   UNL     1      34.554  51.799  39.489  1.00  0.00     0.024 A 
HETATM   28  C   UNL     1      35.486  50.916  40.021  1.00  0.00     0.034 A 
HETATM   29  C   UNL     1      35.262  50.322  41.259  1.00  0.00     0.024 A 
HETATM   30 CL   UNL     1      36.920  50.550  39.144  1.00  0.00    -0.084 Cl
HETATM   31  C   UNL     1      34.095  50.619  41.972  1.00  0.00     0.011 A 
ENDBRANCH   1  25
TORSDOF 5
ENDMDL
MODEL 10
REMARK VINA RESULT:      -7.6      4.631      8.460
REMARK  5 active torsions:
REMARK  status: ('A' for Active; 'I' for Inactive)
REMARK    1  A    between atoms: C_2  and  C_3 
REMARK    2  A    between atoms: C_8  and  C_9 
REMARK       I    between atoms: C_9  and  N_10 
REMARK    3  A    between atoms: N_10  and  C_11 
REMARK    4  A    between atoms: C_11  and  C_12 
REMARK    5  A    between atoms: C_19  and  C_20 
ROOT
HETATM    1  C   UNL     1      27.116  38.301  48.012  1.00  0.00     0.118 C 
HETATM    2  N   UNL     1      26.236  39.137  48.821  1.00  0.00    -0.366 N 
HETATM    3  C   UNL     1      26.739  39.926  49.798  1.00  0.00     0.123 C 
HETATM    4  N   UNL     1      28.019  39.773  50.262  1.00  0.00    -0.240 N 
HETATM    5  N   UNL     1      28.410  40.768  51.078  1.00  0.00    -0.165 NA
HETATM    6  C   UNL     1      27.290  41.508  51.248  1.00  0.00     0.148 C 
HETATM    7  C   UNL     1      26.214  40.993  50.477  1.00  0.00     0.088 C 
HETATM    8  C   UNL     1      28.970  38.816  49.723  1.00  0.00     0.221 C 
HETATM    9  C   UNL     1      28.261  37.747  48.869  1.00  0.00     0.066 C 
HETATM   10  H   UNL     1      25.377  39.421  48.349  1.00  0.00     0.161 HD
ENDROOT
BRANCH   6  11
HETATM   11  C   UNL     1      27.269  42.718  52.083  1.00  0.00     0.272 C 
HETATM   12  N   UNL     1      26.028  43.002  52.601  1.00  0.00    -0.353 N 
HETATM   13  H   UNL     1      25.257  42.460  52.218  1.00  0.00     0.162 HD
HETATM   14  O   UNL     1      28.267  43.395  52.305  1.00  0.00    -0.266 OA
BRANCH  12  15
HETATM   15  C   UNL     1      25.755  44.183  53.391  1.00  0.00     0.155 C 
BRANCH  15  16
HETATM   16  C   UNL     1      25.190  45.330  52.553  1.00  0.00     0.139 C 
HETATM   17  O   UNL     1      26.253  46.180  52.076  1.00  0.00    -0.384 OA
HETATM   18  C   UNL     1      25.866  46.709  50.800  1.00  0.00     0.168 C 
HETATM   19  C   UNL     1      24.539  46.077  50.425  1.00  0.00     0.029 C 
HETATM   20  C   UNL     1      24.486  44.849  51.298  1.00  0.00     0.035 C 
ENDBRANCH  15  16
ENDBRANCH  12  15
ENDBRANCH   6  11
BRANCH   8  21
HETATM   21  C   UNL     1      29.757  38.142  50.826  1.00  0.00     0.409 C 
HETATM   22  F   UNL     1      29.528  38.698  52.038  1.00  0.00    -0.169 F 
HETATM   23  F   UNL     1      29.381  36.837  50.923  1.00  0.00    -0.169 F 
HETATM   24  F   UNL     1      31.088  38.133  50.610  1.00  0.00    -0.169 F 
ENDBRANCH   8  21
BRANCH   1  25
HETATM   25  C   UNL     1      27.564  39.008  46.740  1.00  0.00    -0.035 A 
HETATM   26  C   UNL     1      27.535  40.405  46.588  1.00  0.00     0.011 A 
HETATM   27  C   UNL     1      27.957  41.011  45.401  1.00  0.00     0.024 A 
HETATM   28  C   UNL     1      28.408  40.227  44.345  1.00  0.00     0.034 A 
HETATM   29  C   UNL     1      28.445  38.842  44.467  1.00  0.00     0.024 A 
HETATM   30 CL   UNL     1      28.916  40.971  42.880  1.00  0.00    -0.084 Cl
HETATM   31  C   UNL     1      28.029  38.237  45.659  1.00  0.00     0.011 A 
ENDBRANCH   1  25
TORSDOF 5
ENDMDL
