MODEL 1
REMARK VINA RESULT:      -9.0      0.000      0.000
REMARK  6 active torsions:
REMARK  status: ('A' for Active; 'I' for Inactive)
REMARK    1  A    between atoms: C_2  and  N_3 
REMARK    2  A    between atoms: C_2  and  C_16 
REMARK    3  A    between atoms: N_3  and  C_6 
REMARK    4  A    between atoms: C_16  and  C_17 
REMARK       I    between atoms: C_17  and  N_18 
REMARK    5  A    between atoms: N_18  and  C_19 
REMARK    6  A    between atoms: C_21  and  O_22 
ROOT
HETATM    1  C   UNL     1      26.729  43.692  50.781  1.00  0.00     0.040 C 
HETATM    2  C   UNL     1      25.587  43.696  51.796  1.00  0.00     0.191 C 
ENDROOT
BRANCH   2   3
HETATM    3  N   UNL     1      26.088  44.110  53.177  1.00  0.00    -0.063 N 
HETATM    4  H   UNL     1      25.256  44.426  53.692  1.00  0.00     0.278 HD
HETATM    5  H   UNL     1      26.362  43.248  53.668  1.00  0.00     0.278 HD
BRANCH   3   6
HETATM    6  C   UNL     1      27.175  45.146  53.443  1.00  0.00     0.221 C 
HETATM    7  C   UNL     1      28.437  44.582  54.057  1.00  0.00    -0.011 A 
HETATM    8  C   UNL     1      28.990  45.088  55.245  1.00  0.00     0.009 A 
HETATM    9  C   UNL     1      29.116  43.532  53.400  1.00  0.00     0.011 A 
HETATM   10  C   UNL     1      30.124  44.487  55.806  1.00  0.00     0.019 A 
HETATM   11  S   UNL     1      28.320  46.508  56.082  1.00  0.00    -0.129 SA
HETATM   12  C   UNL     1      30.749  43.417  55.169  1.00  0.00     0.001 A 
HETATM   13  C   UNL     1      30.256  42.950  53.958  1.00  0.00     0.001 A 
HETATM   14  C   UNL     1      27.582  47.346  54.657  1.00  0.00     0.082 C 
HETATM   15  C   UNL     1      26.551  46.409  54.056  1.00  0.00     0.048 C 
ENDBRANCH   3   6
ENDBRANCH   2   3
BRANCH   2  16
HETATM   16  C   UNL     1      24.374  44.502  51.332  1.00  0.00     0.135 C 
BRANCH  16  17
HETATM   17  C   UNL     1      24.730  45.425  50.183  1.00  0.00     0.224 C 
HETATM   18  N   UNL     1      25.153  46.663  50.624  1.00  0.00    -0.327 N 
HETATM   19  H   UNL     1      25.205  46.814  51.626  1.00  0.00     0.169 HD
HETATM   20  O   UNL     1      24.591  45.054  49.023  1.00  0.00    -0.273 OA
BRANCH  18  21
HETATM   21  C   UNL     1      25.558  47.767  49.840  1.00  0.00     0.037 A 
HETATM   22  C   UNL     1      24.676  48.603  49.146  1.00  0.00     0.066 A 
HETATM   23  C   UNL     1      25.163  49.673  48.388  1.00  0.00     0.070 A 
HETATM   24  C   UNL     1      26.538  49.900  48.320  1.00  0.00     0.037 A 
HETATM   25  C   UNL     1      27.424  49.078  49.009  1.00  0.00     0.005 A 
HETATM   26  C   UNL     1      26.935  48.016  49.769  1.00  0.00     0.029 A 
BRANCH  23  27
HETATM   27  O   UNL     1      24.409  50.560  47.669  1.00  0.00    -0.356 OA
HETATM   28  C   UNL     1      23.008  50.324  47.611  1.00  0.00     0.210 C 
ENDBRANCH  23  27
ENDBRANCH  18  21
ENDBRANCH  16  17
ENDBRANCH   2  16
TORSDOF 6
ENDMDL
MODEL 2
REMARK VINA RESULT:      -8.7      1.708      2.295
REMARK  6 active torsions:
REMARK  status: ('A' for Active; 'I' for Inactive)
REMARK    1  A    between atoms: C_2  and  N_3 
REMARK    2  A    between atoms: C_2  and  C_16 
REMARK    3  A    between atoms: N_3  and  C_6 
REMARK    4  A    between atoms: C_16  and  C_17 
REMARK       I    between atoms: C_17  and  N_18 
REMARK    5  A    between atoms: N_18  and  C_19 
REMARK    6  A    between atoms: C_21  and  O_22 
ROOT
HETATM    1  C   UNL     1      24.886  43.252  51.375  1.00  0.00     0.040 C 
HETATM    2  C   UNL     1      25.055  44.681  51.889  1.00  0.00     0.191 C 
ENDROOT
BRANCH   2   3
HETATM    3  N   UNL     1      25.765  44.692  53.239  1.00  0.00    -0.063 N 
HETATM    4  H   UNL     1      25.051  44.967  53.927  1.00  0.00     0.278 HD
HETATM    5  H   UNL     1      25.965  43.711  53.481  1.00  0.00     0.278 HD
BRANCH   3   6
HETATM    6  C   UNL     1      27.014  45.502  53.570  1.00  0.00     0.221 C 
HETATM    7  C   UNL     1      28.240  44.667  53.861  1.00  0.00    -0.011 A 
HETATM    8  C   UNL     1      28.988  44.812  55.042  1.00  0.00     0.009 A 
HETATM    9  C   UNL     1      28.683  43.729  52.902  1.00  0.00     0.011 A 
HETATM   10  C   UNL     1      30.078  43.968  55.292  1.00  0.00     0.019 A 
HETATM   11  S   UNL     1      28.628  46.062  56.254  1.00  0.00    -0.129 SA
HETATM   12  C   UNL     1      30.467  43.012  54.355  1.00  0.00     0.001 A 
HETATM   13  C   UNL     1      29.780  42.904  53.153  1.00  0.00     0.001 A 
HETATM   14  C   UNL     1      27.868  47.292  55.165  1.00  0.00     0.082 C 
HETATM   15  C   UNL     1      26.651  46.649  54.525  1.00  0.00     0.048 C 
ENDBRANCH   3   6
ENDBRANCH   2   3
BRANCH   2  16
HETATM   16  C   UNL     1      25.699  45.615  50.864  1.00  0.00     0.135 C 
BRANCH  16  17
HETATM   17  C   UNL     1      24.971  46.943  50.792  1.00  0.00     0.224 C 
HETATM   18  N   UNL     1      24.455  47.184  49.534  1.00  0.00    -0.327 N 
HETATM   19  H   UNL     1      24.588  46.471  48.826  1.00  0.00     0.169 HD
HETATM   20  O   UNL     1      24.925  47.679  51.771  1.00  0.00    -0.273 OA
BRANCH  18  21
HETATM   21  C   UNL     1      23.726  48.316  49.103  1.00  0.00     0.037 A 
HETATM   22  C   UNL     1      22.330  48.414  49.145  1.00  0.00     0.066 A 
HETATM   23  C   UNL     1      21.688  49.572  48.693  1.00  0.00     0.070 A 
HETATM   24  C   UNL     1      22.447  50.630  48.191  1.00  0.00     0.037 A 
HETATM   25  C   UNL     1      23.836  50.544  48.148  1.00  0.00     0.005 A 
HETATM   26  C   UNL     1      24.472  49.392  48.605  1.00  0.00     0.029 A 
BRANCH  23  27
HETATM   27  O   UNL     1      20.338  49.792  48.684  1.00  0.00    -0.356 OA
HETATM   28  C   UNL     1      19.658  49.715  49.930  1.00  0.00     0.210 C 
ENDBRANCH  23  27
ENDBRANCH  18  21
ENDBRANCH  16  17
ENDBRANCH   2  16
TORSDOF 6
ENDMDL
MODEL 3
REMARK VINA RESULT:      -8.2      1.740      2.432
REMARK  6 active torsions:
REMARK  status: ('A' for Active; 'I' for Inactive)
REMARK    1  A    between atoms: C_2  and  N_3 
REMARK    2  A    between atoms: C_2  and  C_16 
REMARK    3  A    between atoms: N_3  and  C_6 
REMARK    4  A    between atoms: C_16  and  C_17 
REMARK       I    between atoms: C_17  and  N_18 
REMARK    5  A    between atoms: N_18  and  C_19 
REMARK    6  A    between atoms: C_21  and  O_22 
ROOT
HETATM    1  C   UNL     1      27.982  41.608  52.394  1.00  0.00     0.040 C 
HETATM    2  C   UNL     1      26.987  42.759  52.532  1.00  0.00     0.191 C 
ENDROOT
BRANCH   2   3
HETATM    3  N   UNL     1      27.164  43.473  53.869  1.00  0.00    -0.063 N 
HETATM    4  H   UNL     1      26.215  43.712  54.185  1.00  0.00     0.278 HD
HETATM    5  H   UNL     1      27.473  42.764  54.549  1.00  0.00     0.278 HD
BRANCH   3   6
HETATM    6  C   UNL     1      28.016  44.717  54.095  1.00  0.00     0.221 C 
HETATM    7  C   UNL     1      29.150  44.526  55.079  1.00  0.00    -0.011 A 
HETATM    8  C   UNL     1      29.327  45.360  56.196  1.00  0.00     0.009 A 
HETATM    9  C   UNL     1      30.093  43.499  54.856  1.00  0.00     0.011 A 
HETATM   10  C   UNL     1      30.355  45.099  57.112  1.00  0.00     0.019 A 
HETATM   11  S   UNL     1      28.303  46.781  56.500  1.00  0.00    -0.129 SA
HETATM   12  C   UNL     1      31.244  44.047  56.902  1.00  0.00     0.001 A 
HETATM   13  C   UNL     1      31.124  43.257  55.766  1.00  0.00     0.001 A 
HETATM   14  C   UNL     1      27.839  47.159  54.791  1.00  0.00     0.082 C 
HETATM   15  C   UNL     1      27.111  45.950  54.236  1.00  0.00     0.048 C 
ENDBRANCH   3   6
ENDBRANCH   2   3
BRANCH   2  16
HETATM   16  C   UNL     1      27.002  43.712  51.336  1.00  0.00     0.135 C 
BRANCH  16  17
HETATM   17  C   UNL     1      25.686  44.453  51.203  1.00  0.00     0.224 C 
HETATM   18  N   UNL     1      25.681  45.312  50.121  1.00  0.00    -0.327 N 
HETATM   19  H   UNL     1      26.510  45.340  49.539  1.00  0.00     0.169 HD
HETATM   20  O   UNL     1      24.793  44.282  52.025  1.00  0.00    -0.273 OA
BRANCH  18  21
HETATM   21  C   UNL     1      24.632  46.160  49.698  1.00  0.00     0.037 A 
HETATM   22  C   UNL     1      24.580  47.533  49.958  1.00  0.00     0.066 A 
HETATM   23  C   UNL     1      23.500  48.299  49.504  1.00  0.00     0.070 A 
HETATM   24  C   UNL     1      22.468  47.683  48.794  1.00  0.00     0.037 A 
HETATM   25  C   UNL     1      22.512  46.318  48.527  1.00  0.00     0.005 A 
HETATM   26  C   UNL     1      23.592  45.560  48.976  1.00  0.00     0.029 A 
BRANCH  23  27
HETATM   27  O   UNL     1      23.333  49.644  49.689  1.00  0.00    -0.356 OA
HETATM   28  C   UNL     1      22.012  50.158  49.575  1.00  0.00     0.210 C 
ENDBRANCH  23  27
ENDBRANCH  18  21
ENDBRANCH  16  17
ENDBRANCH   2  16
TORSDOF 6
ENDMDL
MODEL 4
REMARK VINA RESULT:      -8.1      3.279      7.943
REMARK  6 active torsions:
REMARK  status: ('A' for Active; 'I' for Inactive)
REMARK    1  A    between atoms: C_2  and  N_3 
REMARK    2  A    between atoms: C_2  and  C_16 
REMARK    3  A    between atoms: N_3  and  C_6 
REMARK    4  A    between atoms: C_16  and  C_17 
REMARK       I    between atoms: C_17  and  N_18 
REMARK    5  A    between atoms: N_18  and  C_19 
REMARK    6  A    between atoms: C_21  and  O_22 
ROOT
HETATM    1  C   UNL     1      27.080  44.535  50.273  1.00  0.00     0.040 C 
HETATM    2  C   UNL     1      26.422  45.066  51.545  1.00  0.00     0.191 C 
ENDROOT
BRANCH   2   3
HETATM    3  N   UNL     1      25.379  46.130  51.214  1.00  0.00    -0.063 N 
HETATM    4  H   UNL     1      24.513  45.825  51.677  1.00  0.00     0.278 HD
HETATM    5  H   UNL     1      25.642  46.979  51.732  1.00  0.00     0.278 HD
BRANCH   3   6
HETATM    6  C   UNL     1      24.982  46.564  49.807  1.00  0.00     0.221 C 
HETATM    7  C   UNL     1      25.628  47.852  49.347  1.00  0.00    -0.011 A 
HETATM    8  C   UNL     1      24.880  48.942  48.869  1.00  0.00     0.009 A 
HETATM    9  C   UNL     1      27.035  47.962  49.356  1.00  0.00     0.011 A 
HETATM   10  C   UNL     1      25.522  50.136  48.517  1.00  0.00     0.019 A 
HETATM   11  S   UNL     1      23.115  48.872  48.660  1.00  0.00    -0.129 SA
HETATM   12  C   UNL     1      26.910  50.242  48.584  1.00  0.00     0.001 A 
HETATM   13  C   UNL     1      27.668  49.151  48.988  1.00  0.00     0.001 A 
HETATM   14  C   UNL     1      22.940  47.092  48.382  1.00  0.00     0.082 C 
HETATM   15  C   UNL     1      23.469  46.381  49.613  1.00  0.00     0.048 C 
ENDBRANCH   3   6
ENDBRANCH   2   3
BRANCH   2  16
HETATM   16  C   UNL     1      25.882  43.957  52.449  1.00  0.00     0.135 C 
BRANCH  16  17
HETATM   17  C   UNL     1      26.651  43.884  53.754  1.00  0.00     0.224 C 
HETATM   18  N   UNL     1      27.980  44.227  53.593  1.00  0.00    -0.327 N 
HETATM   19  H   UNL     1      28.286  44.503  52.667  1.00  0.00     0.169 HD
HETATM   20  O   UNL     1      26.094  43.516  54.781  1.00  0.00    -0.273 OA
BRANCH  18  21
HETATM   21  C   UNL     1      28.986  44.265  54.584  1.00  0.00     0.037 A 
HETATM   22  C   UNL     1      29.111  45.282  55.538  1.00  0.00     0.066 A 
HETATM   23  C   UNL     1      30.143  45.244  56.483  1.00  0.00     0.070 A 
HETATM   24  C   UNL     1      31.055  44.187  56.465  1.00  0.00     0.037 A 
HETATM   25  C   UNL     1      30.938  43.169  55.523  1.00  0.00     0.005 A 
HETATM   26  C   UNL     1      29.905  43.207  54.588  1.00  0.00     0.029 A 
BRANCH  23  27
HETATM   27  O   UNL     1      30.370  46.170  57.463  1.00  0.00    -0.356 OA
HETATM   28  C   UNL     1      30.927  45.701  58.684  1.00  0.00     0.210 C 
ENDBRANCH  23  27
ENDBRANCH  18  21
ENDBRANCH  16  17
ENDBRANCH   2  16
TORSDOF 6
ENDMDL
MODEL 5
REMARK VINA RESULT:      -7.8      2.350      3.542
REMARK  6 active torsions:
REMARK  status: ('A' for Active; 'I' for Inactive)
REMARK    1  A    between atoms: C_2  and  N_3 
REMARK    2  A    between atoms: C_2  and  C_16 
REMARK    3  A    between atoms: N_3  and  C_6 
REMARK    4  A    between atoms: C_16  and  C_17 
REMARK       I    between atoms: C_17  and  N_18 
REMARK    5  A    between atoms: N_18  and  C_19 
REMARK    6  A    between atoms: C_21  and  O_22 
ROOT
HETATM    1  C   UNL     1      24.428  43.730  51.155  1.00  0.00     0.040 C 
HETATM    2  C   UNL     1      25.191  45.053  51.132  1.00  0.00     0.191 C 
ENDROOT
BRANCH   2   3
HETATM    3  N   UNL     1      26.643  44.850  51.558  1.00  0.00    -0.063 N 
HETATM    4  H   UNL     1      27.166  44.677  50.690  1.00  0.00     0.278 HD
HETATM    5  H   UNL     1      26.994  45.766  51.871  1.00  0.00     0.278 HD
BRANCH   3   6
HETATM    6  C   UNL     1      27.128  43.813  52.565  1.00  0.00     0.221 C 
HETATM    7  C   UNL     1      27.893  44.390  53.735  1.00  0.00    -0.011 A 
HETATM    8  C   UNL     1      29.178  43.944  54.089  1.00  0.00     0.009 A 
HETATM    9  C   UNL     1      27.290  45.388  54.532  1.00  0.00     0.011 A 
HETATM   10  C   UNL     1      29.870  44.557  55.142  1.00  0.00     0.019 A 
HETATM   11  S   UNL     1      29.980  42.588  53.264  1.00  0.00    -0.129 SA
HETATM   12  C   UNL     1      29.277  45.577  55.883  1.00  0.00     0.001 A 
HETATM   13  C   UNL     1      27.982  45.982  55.589  1.00  0.00     0.001 A 
HETATM   14  C   UNL     1      28.508  41.681  52.727  1.00  0.00     0.082 C 
HETATM   15  C   UNL     1      27.708  42.599  51.823  1.00  0.00     0.048 C 
ENDBRANCH   3   6
ENDBRANCH   2   3
BRANCH   2  16
HETATM   16  C   UNL     1      25.054  45.802  49.807  1.00  0.00     0.135 C 
BRANCH  16  17
HETATM   17  C   UNL     1      24.483  47.192  50.014  1.00  0.00     0.224 C 
HETATM   18  N   UNL     1      23.557  47.523  49.045  1.00  0.00    -0.327 N 
HETATM   19  H   UNL     1      23.344  46.826  48.339  1.00  0.00     0.169 HD
HETATM   20  O   UNL     1      24.880  47.893  50.938  1.00  0.00    -0.273 OA
BRANCH  18  21
HETATM   21  C   UNL     1      22.832  48.730  48.920  1.00  0.00     0.037 A 
HETATM   22  C   UNL     1      21.455  48.845  49.141  1.00  0.00     0.066 A 
HETATM   23  C   UNL     1      20.815  50.080  48.991  1.00  0.00     0.070 A 
HETATM   24  C   UNL     1      21.557  51.200  48.612  1.00  0.00     0.037 A 
HETATM   25  C   UNL     1      22.928  51.097  48.393  1.00  0.00     0.005 A 
HETATM   26  C   UNL     1      23.563  49.867  48.550  1.00  0.00     0.029 A 
BRANCH  23  27
HETATM   27  O   UNL     1      19.482  50.324  49.180  1.00  0.00    -0.356 OA
HETATM   28  C   UNL     1      19.130  51.512  49.877  1.00  0.00     0.210 C 
ENDBRANCH  23  27
ENDBRANCH  18  21
ENDBRANCH  16  17
ENDBRANCH   2  16
TORSDOF 6
ENDMDL
MODEL 6
REMARK VINA RESULT:      -7.6      2.875      4.963
REMARK  6 active torsions:
REMARK  status: ('A' for Active; 'I' for Inactive)
REMARK    1  A    between atoms: C_2  and  N_3 
REMARK    2  A    between atoms: C_2  and  C_16 
REMARK    3  A    between atoms: N_3  and  C_6 
REMARK    4  A    between atoms: C_16  and  C_17 
REMARK       I    between atoms: C_17  and  N_18 
REMARK    5  A    between atoms: N_18  and  C_19 
REMARK    6  A    between atoms: C_21  and  O_22 
ROOT
HETATM    1  C   UNL     1      24.103  46.327  49.344  1.00  0.00     0.040 C 
HETATM    2  C   UNL     1      24.695  47.500  50.122  1.00  0.00     0.191 C 
ENDROOT
BRANCH   2   3
HETATM    3  N   UNL     1      25.866  47.043  50.987  1.00  0.00    -0.063 N 
HETATM    4  H   UNL     1      26.595  46.738  50.329  1.00  0.00     0.278 HD
HETATM    5  H   UNL     1      26.269  47.888  51.417  1.00  0.00     0.278 HD
BRANCH   3   6
HETATM    6  C   UNL     1      25.793  45.974  52.072  1.00  0.00     0.221 C 
HETATM    7  C   UNL     1      26.412  46.382  53.391  1.00  0.00    -0.011 A 
HETATM    8  C   UNL     1      27.401  45.614  54.029  1.00  0.00     0.009 A 
HETATM    9  C   UNL     1      25.961  47.556  54.033  1.00  0.00     0.011 A 
HETATM   10  C   UNL     1      27.988  46.069  55.217  1.00  0.00     0.019 A 
HETATM   11  S   UNL     1      27.940  44.039  53.403  1.00  0.00    -0.129 SA
HETATM   12  C   UNL     1      27.565  47.258  55.808  1.00  0.00     0.001 A 
HETATM   13  C   UNL     1      26.542  47.994  55.225  1.00  0.00     0.001 A 
HETATM   14  C   UNL     1      26.427  43.553  52.536  1.00  0.00     0.082 C 
HETATM   15  C   UNL     1      26.148  44.604  51.477  1.00  0.00     0.048 C 
ENDBRANCH   3   6
ENDBRANCH   2   3
BRANCH   2  16
HETATM   16  C   UNL     1      25.035  48.699  49.235  1.00  0.00     0.135 C 
BRANCH  16  17
HETATM   17  C   UNL     1      23.790  49.290  48.603  1.00  0.00     0.224 C 
HETATM   18  N   UNL     1      22.714  49.281  49.468  1.00  0.00    -0.327 N 
HETATM   19  H   UNL     1      22.865  48.919  50.404  1.00  0.00     0.169 HD
HETATM   20  O   UNL     1      23.809  49.673  47.439  1.00  0.00    -0.273 OA
BRANCH  18  21
HETATM   21  C   UNL     1      21.403  49.745  49.219  1.00  0.00     0.037 A 
HETATM   22  C   UNL     1      20.323  48.915  48.901  1.00  0.00     0.066 A 
HETATM   23  C   UNL     1      19.055  49.460  48.665  1.00  0.00     0.070 A 
HETATM   24  C   UNL     1      18.875  50.841  48.741  1.00  0.00     0.037 A 
HETATM   25  C   UNL     1      19.941  51.677  49.060  1.00  0.00     0.005 A 
HETATM   26  C   UNL     1      21.200  51.129  49.300  1.00  0.00     0.029 A 
BRANCH  23  27
HETATM   27  O   UNL     1      17.924  48.758  48.350  1.00  0.00    -0.356 OA
HETATM   28  C   UNL     1      17.538  47.715  49.235  1.00  0.00     0.210 C 
ENDBRANCH  23  27
ENDBRANCH  18  21
ENDBRANCH  16  17
ENDBRANCH   2  16
TORSDOF 6
ENDMDL
MODEL 7
REMARK VINA RESULT:      -7.6      2.683      7.483
REMARK  6 active torsions:
REMARK  status: ('A' for Active; 'I' for Inactive)
REMARK    1  A    between atoms: C_2  and  N_3 
REMARK    2  A    between atoms: C_2  and  C_16 
REMARK    3  A    between atoms: N_3  and  C_6 
REMARK    4  A    between atoms: C_16  and  C_17 
REMARK       I    between atoms: C_17  and  N_18 
REMARK    5  A    between atoms: N_18  and  C_19 
REMARK    6  A    between atoms: C_21  and  O_22 
ROOT
HETATM    1  C   UNL     1      23.422  44.425  47.596  1.00  0.00     0.040 C 
HETATM    2  C   UNL     1      24.271  44.557  48.859  1.00  0.00     0.191 C 
ENDROOT
BRANCH   2   3
HETATM    3  N   UNL     1      23.662  45.576  49.818  1.00  0.00    -0.063 N 
HETATM    4  H   UNL     1      22.774  45.868  49.389  1.00  0.00     0.278 HD
HETATM    5  H   UNL     1      23.365  45.058  50.657  1.00  0.00     0.278 HD
BRANCH   3   6
HETATM    6  C   UNL     1      24.347  46.852  50.296  1.00  0.00     0.221 C 
HETATM    7  C   UNL     1      24.050  48.072  49.451  1.00  0.00    -0.011 A 
HETATM    8  C   UNL     1      25.065  48.866  48.891  1.00  0.00     0.009 A 
HETATM    9  C   UNL     1      22.708  48.459  49.242  1.00  0.00     0.011 A 
HETATM   10  C   UNL     1      24.736  49.947  48.063  1.00  0.00     0.019 A 
HETATM   11  S   UNL     1      26.791  48.577  49.211  1.00  0.00    -0.129 SA
HETATM   12  C   UNL     1      23.404  50.281  47.826  1.00  0.00     0.001 A 
HETATM   13  C   UNL     1      22.390  49.547  48.428  1.00  0.00     0.001 A 
HETATM   14  C   UNL     1      26.644  47.802  50.840  1.00  0.00     0.082 C 
HETATM   15  C   UNL     1      25.803  46.550  50.678  1.00  0.00     0.048 C 
ENDBRANCH   3   6
ENDBRANCH   2   3
BRANCH   2  16
HETATM   16  C   UNL     1      24.572  43.213  49.522  1.00  0.00     0.135 C 
BRANCH  16  17
HETATM   17  C   UNL     1      25.965  43.193  50.121  1.00  0.00     0.224 C 
HETATM   18  N   UNL     1      25.941  42.968  51.484  1.00  0.00    -0.327 N 
HETATM   19  H   UNL     1      25.038  42.822  51.921  1.00  0.00     0.169 HD
HETATM   20  O   UNL     1      26.946  43.400  49.416  1.00  0.00    -0.273 OA
BRANCH  18  21
HETATM   21  C   UNL     1      27.044  42.890  52.365  1.00  0.00     0.037 A 
HETATM   22  C   UNL     1      27.524  43.967  53.119  1.00  0.00     0.066 A 
HETATM   23  C   UNL     1      28.626  43.802  53.965  1.00  0.00     0.070 A 
HETATM   24  C   UNL     1      29.251  42.557  54.049  1.00  0.00     0.037 A 
HETATM   25  C   UNL     1      28.780  41.479  53.306  1.00  0.00     0.005 A 
HETATM   26  C   UNL     1      27.678  41.645  52.469  1.00  0.00     0.029 A 
BRANCH  23  27
HETATM   27  O   UNL     1      29.188  44.770  54.753  1.00  0.00    -0.356 OA
HETATM   28  C   UNL     1      28.304  45.580  55.517  1.00  0.00     0.210 C 
ENDBRANCH  23  27
ENDBRANCH  18  21
ENDBRANCH  16  17
ENDBRANCH   2  16
TORSDOF 6
ENDMDL
MODEL 8
REMARK VINA RESULT:      -7.4      3.316      7.871
REMARK  6 active torsions:
REMARK  status: ('A' for Active; 'I' for Inactive)
REMARK    1  A    between atoms: C_2  and  N_3 
REMARK    2  A    between atoms: C_2  and  C_16 
REMARK    3  A    between atoms: N_3  and  C_6 
REMARK    4  A    between atoms: C_16  and  C_17 
REMARK       I    between atoms: C_17  and  N_18 
REMARK    5  A    between atoms: N_18  and  C_19 
REMARK    6  A    between atoms: C_21  and  O_22 
ROOT
HETATM    1  C   UNL     1      24.828  41.946  48.802  1.00  0.00     0.040 C 
HETATM    2  C   UNL     1      25.732  42.981  49.470  1.00  0.00     0.191 C 
ENDROOT
BRANCH   2   3
HETATM    3  N   UNL     1      25.431  44.382  48.947  1.00  0.00    -0.063 N 
HETATM    4  H   UNL     1      26.347  44.829  48.803  1.00  0.00     0.278 HD
HETATM    5  H   UNL     1      25.065  44.274  47.991  1.00  0.00     0.278 HD
BRANCH   3   6
HETATM    6  C   UNL     1      24.558  45.415  49.651  1.00  0.00     0.221 C 
HETATM    7  C   UNL     1      23.213  45.645  48.996  1.00  0.00    -0.011 A 
HETATM    8  C   UNL     1      22.768  46.922  48.617  1.00  0.00     0.009 A 
HETATM    9  C   UNL     1      22.349  44.548  48.788  1.00  0.00     0.011 A 
HETATM   10  C   UNL     1      21.542  47.072  47.955  1.00  0.00     0.019 A 
HETATM   11  S   UNL     1      23.693  48.400  48.968  1.00  0.00    -0.129 SA
HETATM   12  C   UNL     1      20.727  45.969  47.711  1.00  0.00     0.001 A 
HETATM   13  C   UNL     1      21.122  44.709  48.141  1.00  0.00     0.001 A 
HETATM   14  C   UNL     1      24.571  47.833  50.446  1.00  0.00     0.082 C 
HETATM   15  C   UNL     1      25.408  46.631  50.049  1.00  0.00     0.048 C 
ENDBRANCH   3   6
ENDBRANCH   2   3
BRANCH   2  16
HETATM   16  C   UNL     1      25.719  42.894  50.996  1.00  0.00     0.135 C 
BRANCH  16  17
HETATM   17  C   UNL     1      26.979  43.488  51.594  1.00  0.00     0.224 C 
HETATM   18  N   UNL     1      27.091  43.217  52.944  1.00  0.00    -0.327 N 
HETATM   19  H   UNL     1      26.365  42.653  53.373  1.00  0.00     0.169 HD
HETATM   20  O   UNL     1      27.740  44.154  50.901  1.00  0.00    -0.273 OA
BRANCH  18  21
HETATM   21  C   UNL     1      28.125  43.614  53.821  1.00  0.00     0.037 A 
HETATM   22  C   UNL     1      28.067  44.744  54.644  1.00  0.00     0.066 A 
HETATM   23  C   UNL     1      29.141  45.067  55.481  1.00  0.00     0.070 A 
HETATM   24  C   UNL     1      30.278  44.258  55.486  1.00  0.00     0.037 A 
HETATM   25  C   UNL     1      30.346  43.130  54.674  1.00  0.00     0.005 A 
HETATM   26  C   UNL     1      29.271  42.808  53.847  1.00  0.00     0.029 A 
BRANCH  23  27
HETATM   27  O   UNL     1      29.206  46.138  56.330  1.00  0.00    -0.356 OA
HETATM   28  C   UNL     1      29.820  45.928  57.595  1.00  0.00     0.210 C 
ENDBRANCH  23  27
ENDBRANCH  18  21
ENDBRANCH  16  17
ENDBRANCH   2  16
TORSDOF 6
ENDMDL
MODEL 9
REMARK VINA RESULT:      -7.4     11.536     13.766
REMARK  6 active torsions:
REMARK  status: ('A' for Active; 'I' for Inactive)
REMARK    1  A    between atoms: C_2  and  N_3 
REMARK    2  A    between atoms: C_2  and  C_16 
REMARK    3  A    between atoms: N_3  and  C_6 
REMARK    4  A    between atoms: C_16  and  C_17 
REMARK       I    between atoms: C_17  and  N_18 
REMARK    5  A    between atoms: N_18  and  C_19 
REMARK    6  A    between atoms: C_21  and  O_22 
ROOT
HETATM    1  C   UNL     1      29.106  47.141  38.284  1.00  0.00     0.040 C 
HETATM    2  C   UNL     1      29.537  48.154  39.343  1.00  0.00     0.191 C 
ENDROOT
BRANCH   2   3
HETATM    3  N   UNL     1      28.385  49.088  39.701  1.00  0.00    -0.063 N 
HETATM    4  H   UNL     1      27.616  48.840  39.064  1.00  0.00     0.278 HD
HETATM    5  H   UNL     1      28.036  48.794  40.624  1.00  0.00     0.278 HD
BRANCH   3   6
HETATM    6  C   UNL     1      28.458  50.612  39.709  1.00  0.00     0.221 C 
HETATM    7  C   UNL     1      29.841  51.170  39.455  1.00  0.00    -0.011 A 
HETATM    8  C   UNL     1      30.458  52.082  40.328  1.00  0.00     0.009 A 
HETATM    9  C   UNL     1      30.532  50.799  38.281  1.00  0.00     0.011 A 
HETATM   10  C   UNL     1      31.766  52.518  40.080  1.00  0.00     0.019 A 
HETATM   11  S   UNL     1      29.632  52.747  41.756  1.00  0.00    -0.129 SA
HETATM   12  C   UNL     1      32.451  52.098  38.942  1.00  0.00     0.001 A 
HETATM   13  C   UNL     1      31.829  51.252  38.034  1.00  0.00     0.001 A 
HETATM   14  C   UNL     1      27.924  52.628  41.167  1.00  0.00     0.082 C 
HETATM   15  C   UNL     1      27.637  51.165  40.883  1.00  0.00     0.048 C 
ENDBRANCH   3   6
ENDBRANCH   2   3
BRANCH   2  16
HETATM   16  C   UNL     1      30.185  47.504  40.566  1.00  0.00     0.135 C 
BRANCH  16  17
HETATM   17  C   UNL     1      30.639  48.547  41.570  1.00  0.00     0.224 C 
HETATM   18  N   UNL     1      31.948  48.933  41.361  1.00  0.00    -0.327 N 
HETATM   19  H   UNL     1      32.442  48.518  40.579  1.00  0.00     0.169 HD
HETATM   20  O   UNL     1      29.883  48.921  42.459  1.00  0.00    -0.273 OA
BRANCH  18  21
HETATM   21  C   UNL     1      32.699  49.874  42.101  1.00  0.00     0.037 A 
HETATM   22  C   UNL     1      34.031  50.205  41.830  1.00  0.00     0.066 A 
HETATM   23  C   UNL     1      34.702  51.147  42.618  1.00  0.00     0.070 A 
HETATM   24  C   UNL     1      34.036  51.752  43.685  1.00  0.00     0.037 A 
HETATM   25  C   UNL     1      32.710  51.433  43.962  1.00  0.00     0.005 A 
HETATM   26  C   UNL     1      32.043  50.499  43.171  1.00  0.00     0.029 A 
BRANCH  23  27
HETATM   27  O   UNL     1      35.996  51.556  42.455  1.00  0.00    -0.356 OA
HETATM   28  C   UNL     1      36.718  51.011  41.359  1.00  0.00     0.210 C 
ENDBRANCH  23  27
ENDBRANCH  18  21
ENDBRANCH  16  17
ENDBRANCH   2  16
TORSDOF 6
ENDMDL
MODEL 10
REMARK VINA RESULT:      -7.4      5.102      9.971
REMARK  6 active torsions:
REMARK  status: ('A' for Active; 'I' for Inactive)
REMARK    1  A    between atoms: C_2  and  N_3 
REMARK    2  A    between atoms: C_2  and  C_16 
REMARK    3  A    between atoms: N_3  and  C_6 
REMARK    4  A    between atoms: C_16  and  C_17 
REMARK       I    between atoms: C_17  and  N_18 
REMARK    5  A    between atoms: N_18  and  C_19 
REMARK    6  A    between atoms: C_21  and  O_22 
ROOT
HETATM    1  C   UNL     1      21.029  50.205  47.345  1.00  0.00     0.040 C 
HETATM    2  C   UNL     1      21.225  50.875  48.703  1.00  0.00     0.191 C 
ENDROOT
BRANCH   2   3
HETATM    3  N   UNL     1      20.335  50.230  49.761  1.00  0.00    -0.063 N 
HETATM    4  H   UNL     1      20.377  49.218  49.581  1.00  0.00     0.278 HD
HETATM    5  H   UNL     1      20.819  50.332  50.664  1.00  0.00     0.278 HD
BRANCH   3   6
HETATM    6  C   UNL     1      18.866  50.562  49.996  1.00  0.00     0.221 C 
HETATM    7  C   UNL     1      17.897  49.627  49.308  1.00  0.00    -0.011 A 
HETATM    8  C   UNL     1      16.883  50.088  48.451  1.00  0.00     0.009 A 
HETATM    9  C   UNL     1      17.979  48.239  49.558  1.00  0.00     0.011 A 
HETATM   10  C   UNL     1      16.053  49.175  47.788  1.00  0.00     0.019 A 
HETATM   11  S   UNL     1      16.575  51.818  48.180  1.00  0.00    -0.129 SA
HETATM   12  C   UNL     1      16.186  47.805  48.007  1.00  0.00     0.001 A 
HETATM   13  C   UNL     1      17.137  47.338  48.904  1.00  0.00     0.001 A 
HETATM   14  C   UNL     1      17.185  52.459  49.759  1.00  0.00     0.082 C 
HETATM   15  C   UNL     1      18.649  52.078  49.874  1.00  0.00     0.048 C 
ENDBRANCH   3   6
ENDBRANCH   2   3
BRANCH   2  16
HETATM   16  C   UNL     1      22.692  50.961  49.124  1.00  0.00     0.135 C 
BRANCH  16  17
HETATM   17  C   UNL     1      23.472  49.745  48.663  1.00  0.00     0.224 C 
HETATM   18  N   UNL     1      23.384  48.700  49.561  1.00  0.00    -0.327 N 
HETATM   19  H   UNL     1      22.813  48.837  50.388  1.00  0.00     0.169 HD
HETATM   20  O   UNL     1      24.114  49.780  47.619  1.00  0.00    -0.273 OA
BRANCH  18  21
HETATM   21  C   UNL     1      23.982  47.424  49.462  1.00  0.00     0.037 A 
HETATM   22  C   UNL     1      25.323  47.160  49.762  1.00  0.00     0.066 A 
HETATM   23  C   UNL     1      25.836  45.864  49.632  1.00  0.00     0.070 A 
HETATM   24  C   UNL     1      25.004  44.834  49.192  1.00  0.00     0.037 A 
HETATM   25  C   UNL     1      23.668  45.085  48.893  1.00  0.00     0.005 A 
HETATM   26  C   UNL     1      23.159  46.375  49.031  1.00  0.00     0.029 A 
BRANCH  23  27
HETATM   27  O   UNL     1      27.122  45.477  49.896  1.00  0.00    -0.356 OA
HETATM   28  C   UNL     1      27.301  44.289  50.655  1.00  0.00     0.210 C 
ENDBRANCH  23  27
ENDBRANCH  18  21
ENDBRANCH  16  17
ENDBRANCH   2  16
TORSDOF 6
ENDMDL
