MODEL 1
REMARK VINA RESULT:     -11.1      0.000      0.000
REMARK  6 active torsions:
REMARK  status: ('A' for Active; 'I' for Inactive)
REMARK    1  A    between atoms: C_7  and  N_8 
REMARK       I    between atoms: N_8  and  C_9 
REMARK    2  A    between atoms: C_9  and  C_10 
REMARK    3  A    between atoms: C_10  and  N_11 
REMARK       I    between atoms: N_11  and  C_12 
REMARK    4  A    between atoms: C_12  and  C_13 
REMARK    5  A    between atoms: N_16  and  C_17 
REMARK    6  A    between atoms: C_23  and  O_24 
ROOT
HETATM    1  C   UNL     1      25.344  45.585  50.987  1.00  0.00     0.080 C 
HETATM    2  C   UNL     1      26.082  44.245  50.870  1.00  0.00     0.029 C 
HETATM    3  C   UNL     1      27.470  44.292  51.511  1.00  0.00     0.098 C 
HETATM    4  N   UNL     1      27.315  44.710  52.907  1.00  0.00    -0.268 NA
HETATM    5  C   UNL     1      26.785  46.073  53.049  1.00  0.00     0.098 C 
HETATM    6  C   UNL     1      25.391  46.133  52.421  1.00  0.00     0.029 C 
ENDROOT
BRANCH   1   7
HETATM    7  C   UNL     1      25.847  46.600  49.965  1.00  0.00     0.222 C 
HETATM    8  N   UNL     1      25.130  47.775  49.951  1.00  0.00    -0.352 N 
HETATM    9  H   UNL     1      24.318  47.886  50.545  1.00  0.00     0.162 HD
HETATM   10  O   UNL     1      26.808  46.418  49.223  1.00  0.00    -0.273 OA
BRANCH   8  11
HETATM   11  C   UNL     1      25.539  48.911  49.148  1.00  0.00     0.225 C 
BRANCH  11  12
HETATM   12  C   UNL     1      24.378  49.492  48.337  1.00  0.00     0.239 C 
HETATM   13  N   UNL     1      23.152  49.242  48.926  1.00  0.00    -0.326 N 
HETATM   14  H   UNL     1      23.189  48.885  49.884  1.00  0.00     0.169 HD
HETATM   15  O   UNL     1      24.585  50.118  47.302  1.00  0.00    -0.271 OA
BRANCH  13  16
HETATM   16  C   UNL     1      21.872  49.465  48.385  1.00  0.00     0.035 A 
HETATM   17  C   UNL     1      21.159  48.514  47.660  1.00  0.00     0.031 A 
HETATM   18  C   UNL     1      19.871  48.799  47.197  1.00  0.00     0.022 A 
HETATM   19  C   UNL     1      19.284  50.038  47.461  1.00  0.00     0.017 A 
HETATM   20  C   UNL     1      19.982  51.014  48.186  1.00  0.00    -0.043 A 
HETATM   21 BR   UNL     1      17.521  50.329  46.818  1.00  0.00    -0.051 Br
HETATM   22  C   UNL     1      19.385  52.353  48.516  1.00  0.00     0.049 C 
HETATM   23  C   UNL     1      21.280  50.711  48.638  1.00  0.00     0.037 A 
ENDBRANCH  13  16
ENDBRANCH  11  12
ENDBRANCH   8  11
ENDBRANCH   1   7
BRANCH   4  24
HETATM   24  C   UNL     1      28.387  44.405  53.762  1.00  0.00     0.106 A 
HETATM   25  N   UNL     1      28.538  45.095  54.914  1.00  0.00    -0.233 NA
HETATM   26  C   UNL     1      29.524  44.749  55.774  1.00  0.00     0.102 A 
HETATM   27  C   UNL     1      30.422  43.698  55.530  1.00  0.00    -0.004 A 
HETATM   28  C   UNL     1      29.663  45.449  56.969  1.00  0.00     0.095 A 
HETATM   29  C   UNL     1      30.262  42.987  54.342  1.00  0.00     0.017 A 
HETATM   30  C   UNL     1      31.424  43.383  56.468  1.00  0.00     0.014 A 
HETATM   31  C   UNL     1      29.233  43.335  53.466  1.00  0.00     0.045 A 
HETATM   32  C   UNL     1      31.532  44.108  57.655  1.00  0.00     0.004 A 
HETATM   33  C   UNL     1      30.645  45.147  57.909  1.00  0.00     0.039 A 
BRANCH  28  34
HETATM   34  O   UNL     1      28.794  46.476  57.246  1.00  0.00    -0.358 OA
HETATM   35  H   UNL     1      29.104  47.202  56.663  1.00  0.00     0.218 HD
ENDBRANCH  28  34
ENDBRANCH   4  24
TORSDOF 6
ENDMDL
MODEL 2
REMARK VINA RESULT:     -10.1      2.275      2.905
REMARK  6 active torsions:
REMARK  status: ('A' for Active; 'I' for Inactive)
REMARK    1  A    between atoms: C_7  and  N_8 
REMARK       I    between atoms: N_8  and  C_9 
REMARK    2  A    between atoms: C_9  and  C_10 
REMARK    3  A    between atoms: C_10  and  N_11 
REMARK       I    between atoms: N_11  and  C_12 
REMARK    4  A    between atoms: C_12  and  C_13 
REMARK    5  A    between atoms: N_16  and  C_17 
REMARK    6  A    between atoms: C_23  and  O_24 
ROOT
HETATM    1  C   UNL     1      26.145  43.367  49.628  1.00  0.00     0.080 C 
HETATM    2  C   UNL     1      26.893  44.675  49.919  1.00  0.00     0.029 C 
HETATM    3  C   UNL     1      27.247  44.820  51.400  1.00  0.00     0.098 C 
HETATM    4  N   UNL     1      28.026  43.645  51.801  1.00  0.00    -0.268 NA
HETATM    5  C   UNL     1      27.268  42.389  51.713  1.00  0.00     0.098 C 
HETATM    6  C   UNL     1      26.854  42.159  50.258  1.00  0.00     0.029 C 
ENDROOT
BRANCH   1   7
HETATM    7  C   UNL     1      24.677  43.451  50.032  1.00  0.00     0.222 C 
HETATM    8  N   UNL     1      23.853  43.915  49.031  1.00  0.00    -0.352 N 
HETATM    9  H   UNL     1      24.241  44.211  48.145  1.00  0.00     0.162 HD
HETATM   10  O   UNL     1      24.242  43.128  51.133  1.00  0.00    -0.273 OA
BRANCH   8  11
HETATM   11  C   UNL     1      22.410  43.934  49.176  1.00  0.00     0.225 C 
BRANCH  11  12
HETATM   12  C   UNL     1      21.778  45.152  48.497  1.00  0.00     0.239 C 
HETATM   13  N   UNL     1      22.028  46.324  49.188  1.00  0.00    -0.326 N 
HETATM   14  H   UNL     1      22.733  46.258  49.926  1.00  0.00     0.169 HD
HETATM   15  O   UNL     1      21.153  45.033  47.448  1.00  0.00    -0.271 OA
BRANCH  13  16
HETATM   16  C   UNL     1      21.466  47.595  48.965  1.00  0.00     0.035 A 
HETATM   17  C   UNL     1      20.097  47.850  48.973  1.00  0.00     0.031 A 
HETATM   18  C   UNL     1      19.622  49.152  48.790  1.00  0.00     0.022 A 
HETATM   19  C   UNL     1      20.513  50.210  48.603  1.00  0.00     0.017 A 
HETATM   20  C   UNL     1      21.896  49.978  48.587  1.00  0.00    -0.043 A 
HETATM   21 BR   UNL     1      19.781  51.949  48.390  1.00  0.00    -0.051 Br
HETATM   22  C   UNL     1      22.897  51.086  48.412  1.00  0.00     0.049 C 
HETATM   23  C   UNL     1      22.355  48.660  48.766  1.00  0.00     0.037 A 
ENDBRANCH  13  16
ENDBRANCH  11  12
ENDBRANCH   8  11
ENDBRANCH   1   7
BRANCH   4  24
HETATM   24  C   UNL     1      28.794  43.787  52.968  1.00  0.00     0.106 A 
HETATM   25  N   UNL     1      28.471  44.744  53.867  1.00  0.00    -0.233 NA
HETATM   26  C   UNL     1      29.163  44.830  55.026  1.00  0.00     0.102 A 
HETATM   27  C   UNL     1      30.222  43.970  55.354  1.00  0.00    -0.004 A 
HETATM   28  C   UNL     1      28.813  45.804  55.958  1.00  0.00     0.095 A 
HETATM   29  C   UNL     1      30.551  42.983  54.427  1.00  0.00     0.017 A 
HETATM   30  C   UNL     1      30.900  44.107  56.582  1.00  0.00     0.014 A 
HETATM   31  C   UNL     1      29.825  42.886  53.240  1.00  0.00     0.045 A 
HETATM   32  C   UNL     1      30.520  45.096  57.490  1.00  0.00     0.004 A 
HETATM   33  C   UNL     1      29.468  45.950  57.178  1.00  0.00     0.039 A 
BRANCH  28  34
HETATM   34  O   UNL     1      27.772  46.656  55.675  1.00  0.00    -0.358 OA
HETATM   35  H   UNL     1      27.479  46.370  54.783  1.00  0.00     0.218 HD
ENDBRANCH  28  34
ENDBRANCH   4  24
TORSDOF 6
ENDMDL
MODEL 3
REMARK VINA RESULT:      -9.9      5.290      9.091
REMARK  6 active torsions:
REMARK  status: ('A' for Active; 'I' for Inactive)
REMARK    1  A    between atoms: C_7  and  N_8 
REMARK       I    between atoms: N_8  and  C_9 
REMARK    2  A    between atoms: C_9  and  C_10 
REMARK    3  A    between atoms: C_10  and  N_11 
REMARK       I    between atoms: N_11  and  C_12 
REMARK    4  A    between atoms: C_12  and  C_13 
REMARK    5  A    between atoms: N_16  and  C_17 
REMARK    6  A    between atoms: C_23  and  O_24 
ROOT
HETATM    1  C   UNL     1      25.094  45.407  49.972  1.00  0.00     0.080 C 
HETATM    2  C   UNL     1      26.574  45.433  49.566  1.00  0.00     0.029 C 
HETATM    3  C   UNL     1      27.286  44.121  49.896  1.00  0.00     0.098 C 
HETATM    4  N   UNL     1      26.561  43.029  49.242  1.00  0.00    -0.268 NA
HETATM    5  C   UNL     1      25.193  42.856  49.749  1.00  0.00     0.098 C 
HETATM    6  C   UNL     1      24.395  44.133  49.475  1.00  0.00     0.029 C 
ENDROOT
BRANCH   1   7
HETATM    7  C   UNL     1      24.914  45.618  51.472  1.00  0.00     0.222 C 
HETATM    8  N   UNL     1      25.562  46.731  51.957  1.00  0.00    -0.352 N 
HETATM    9  H   UNL     1      26.137  47.296  51.345  1.00  0.00     0.162 HD
HETATM   10  O   UNL     1      24.247  44.887  52.199  1.00  0.00    -0.273 OA
BRANCH   8  11
HETATM   11  C   UNL     1      25.396  47.176  53.327  1.00  0.00     0.225 C 
BRANCH  11  12
HETATM   12  C   UNL     1      26.160  46.293  54.317  1.00  0.00     0.239 C 
HETATM   13  N   UNL     1      27.497  46.636  54.399  1.00  0.00    -0.326 N 
HETATM   14  H   UNL     1      27.752  47.520  53.954  1.00  0.00     0.169 HD
HETATM   15  O   UNL     1      25.584  45.413  54.949  1.00  0.00    -0.271 OA
BRANCH  13  16
HETATM   16  C   UNL     1      28.528  45.941  55.060  1.00  0.00     0.035 A 
HETATM   17  C   UNL     1      29.102  46.360  56.257  1.00  0.00     0.031 A 
HETATM   18  C   UNL     1      30.090  45.586  56.873  1.00  0.00     0.022 A 
HETATM   19  C   UNL     1      30.506  44.383  56.299  1.00  0.00     0.017 A 
HETATM   20  C   UNL     1      29.946  43.942  55.092  1.00  0.00    -0.043 A 
HETATM   21 BR   UNL     1      31.832  43.383  57.219  1.00  0.00    -0.051 Br
HETATM   22  C   UNL     1      30.343  42.645  54.446  1.00  0.00     0.049 C 
HETATM   23  C   UNL     1      28.958  44.738  54.483  1.00  0.00     0.037 A 
ENDBRANCH  13  16
ENDBRANCH  11  12
ENDBRANCH   8  11
ENDBRANCH   1   7
BRANCH   4  24
HETATM   24  C   UNL     1      27.277  41.834  49.066  1.00  0.00     0.106 A 
HETATM   25  N   UNL     1      27.879  41.255  50.129  1.00  0.00    -0.233 NA
HETATM   26  C   UNL     1      28.503  40.064  49.975  1.00  0.00     0.102 A 
HETATM   27  C   UNL     1      28.570  39.386  48.749  1.00  0.00    -0.004 A 
HETATM   28  C   UNL     1      29.103  39.461  51.077  1.00  0.00     0.095 A 
HETATM   29  C   UNL     1      27.947  39.984  47.655  1.00  0.00     0.017 A 
HETATM   30  C   UNL     1      29.230  38.145  48.653  1.00  0.00     0.014 A 
HETATM   31  C   UNL     1      27.289  41.203  47.822  1.00  0.00     0.045 A 
HETATM   32  C   UNL     1      29.819  37.572  49.781  1.00  0.00     0.004 A 
HETATM   33  C   UNL     1      29.755  38.233  51.002  1.00  0.00     0.039 A 
BRANCH  28  34
HETATM   34  O   UNL     1      29.046  40.092  52.296  1.00  0.00    -0.358 OA
HETATM   35  H   UNL     1      29.946  40.468  52.401  1.00  0.00     0.218 HD
ENDBRANCH  28  34
ENDBRANCH   4  24
TORSDOF 6
ENDMDL
MODEL 4
REMARK VINA RESULT:      -9.9      3.998     10.654
REMARK  6 active torsions:
REMARK  status: ('A' for Active; 'I' for Inactive)
REMARK    1  A    between atoms: C_7  and  N_8 
REMARK       I    between atoms: N_8  and  C_9 
REMARK    2  A    between atoms: C_9  and  C_10 
REMARK    3  A    between atoms: C_10  and  N_11 
REMARK       I    between atoms: N_11  and  C_12 
REMARK    4  A    between atoms: C_12  and  C_13 
REMARK    5  A    between atoms: N_16  and  C_17 
REMARK    6  A    between atoms: C_23  and  O_24 
ROOT
HETATM    1  C   UNL     1      24.560  42.071  49.424  1.00  0.00     0.080 C 
HETATM    2  C   UNL     1      23.645  42.681  50.495  1.00  0.00     0.029 C 
HETATM    3  C   UNL     1      23.559  44.203  50.381  1.00  0.00     0.098 C 
HETATM    4  N   UNL     1      23.110  44.536  49.026  1.00  0.00    -0.268 NA
HETATM    5  C   UNL     1      24.064  44.131  47.984  1.00  0.00     0.098 C 
HETATM    6  C   UNL     1      24.230  42.610  48.025  1.00  0.00     0.029 C 
ENDROOT
BRANCH   1   7
HETATM    7  C   UNL     1      26.035  42.241  49.776  1.00  0.00     0.222 C 
HETATM    8  N   UNL     1      26.328  41.955  51.090  1.00  0.00    -0.352 N 
HETATM    9  H   UNL     1      25.589  41.712  51.738  1.00  0.00     0.162 HD
HETATM   10  O   UNL     1      26.903  42.583  48.978  1.00  0.00    -0.273 OA
BRANCH   8  11
HETATM   11  C   UNL     1      27.692  41.923  51.580  1.00  0.00     0.225 C 
BRANCH  11  12
HETATM   12  C   UNL     1      27.804  42.460  53.010  1.00  0.00     0.239 C 
HETATM   13  N   UNL     1      28.651  43.550  53.094  1.00  0.00    -0.326 N 
HETATM   14  H   UNL     1      28.931  43.960  52.199  1.00  0.00     0.169 HD
HETATM   15  O   UNL     1      27.169  41.948  53.926  1.00  0.00    -0.271 OA
BRANCH  13  16
HETATM   16  C   UNL     1      29.130  44.185  54.255  1.00  0.00     0.035 A 
HETATM   17  C   UNL     1      28.617  45.379  54.754  1.00  0.00     0.031 A 
HETATM   18  C   UNL     1      29.117  45.920  55.943  1.00  0.00     0.022 A 
HETATM   19  C   UNL     1      30.132  45.266  56.644  1.00  0.00     0.017 A 
HETATM   20  C   UNL     1      30.667  44.064  56.161  1.00  0.00    -0.043 A 
HETATM   21 BR   UNL     1      30.731  46.057  58.262  1.00  0.00    -0.051 Br
HETATM   22  C   UNL     1      31.743  43.310  56.890  1.00  0.00     0.049 C 
HETATM   23  C   UNL     1      30.156  43.539  54.959  1.00  0.00     0.037 A 
ENDBRANCH  13  16
ENDBRANCH  11  12
ENDBRANCH   8  11
ENDBRANCH   1   7
BRANCH   4  24
HETATM   24  C   UNL     1      22.566  45.819  48.857  1.00  0.00     0.106 A 
HETATM   25  N   UNL     1      23.344  46.906  49.060  1.00  0.00    -0.233 NA
HETATM   26  C   UNL     1      22.841  48.139  48.822  1.00  0.00     0.102 A 
HETATM   27  C   UNL     1      21.530  48.361  48.375  1.00  0.00    -0.004 A 
HETATM   28  C   UNL     1      23.653  49.254  49.012  1.00  0.00     0.095 A 
HETATM   29  C   UNL     1      20.731  47.239  48.165  1.00  0.00     0.017 A 
HETATM   30  C   UNL     1      21.067  49.670  48.139  1.00  0.00     0.014 A 
HETATM   31  C   UNL     1      21.257  45.968  48.394  1.00  0.00     0.045 A 
HETATM   32  C   UNL     1      21.911  50.763  48.341  1.00  0.00     0.004 A 
HETATM   33  C   UNL     1      23.214  50.555  48.779  1.00  0.00     0.039 A 
BRANCH  28  34
HETATM   34  O   UNL     1      24.947  49.073  49.437  1.00  0.00    -0.358 OA
HETATM   35  H   UNL     1      25.134  48.137  49.212  1.00  0.00     0.218 HD
ENDBRANCH  28  34
ENDBRANCH   4  24
TORSDOF 6
ENDMDL
MODEL 5
REMARK VINA RESULT:      -9.8      5.251      7.874
REMARK  6 active torsions:
REMARK  status: ('A' for Active; 'I' for Inactive)
REMARK    1  A    between atoms: C_7  and  N_8 
REMARK       I    between atoms: N_8  and  C_9 
REMARK    2  A    between atoms: C_9  and  C_10 
REMARK    3  A    between atoms: C_10  and  N_11 
REMARK       I    between atoms: N_11  and  C_12 
REMARK    4  A    between atoms: C_12  and  C_13 
REMARK    5  A    between atoms: N_16  and  C_17 
REMARK    6  A    between atoms: C_23  and  O_24 
ROOT
HETATM    1  C   UNL     1      24.776  45.219  50.367  1.00  0.00     0.080 C 
HETATM    2  C   UNL     1      24.635  45.309  51.893  1.00  0.00     0.029 C 
HETATM    3  C   UNL     1      25.632  44.405  52.618  1.00  0.00     0.098 C 
HETATM    4  N   UNL     1      26.982  44.762  52.173  1.00  0.00    -0.268 NA
HETATM    5  C   UNL     1      27.208  44.505  50.744  1.00  0.00     0.098 C 
HETATM    6  C   UNL     1      26.240  45.361  49.925  1.00  0.00     0.029 C 
ENDROOT
BRANCH   1   7
HETATM    7  C   UNL     1      24.126  43.955  49.812  1.00  0.00     0.222 C 
HETATM    8  N   UNL     1      24.324  43.777  48.461  1.00  0.00    -0.352 N 
HETATM    9  H   UNL     1      24.817  44.476  47.920  1.00  0.00     0.162 HD
HETATM   10  O   UNL     1      23.492  43.148  50.486  1.00  0.00    -0.273 OA
BRANCH   8  11
HETATM   11  C   UNL     1      23.904  42.568  47.780  1.00  0.00     0.225 C 
BRANCH  11  12
HETATM   12  C   UNL     1      24.995  41.494  47.785  1.00  0.00     0.239 C 
HETATM   13  N   UNL     1      25.404  41.170  49.066  1.00  0.00    -0.326 N 
HETATM   14  H   UNL     1      24.816  41.533  49.820  1.00  0.00     0.169 HD
HETATM   15  O   UNL     1      25.399  41.003  46.735  1.00  0.00    -0.271 OA
BRANCH  13  16
HETATM   16  C   UNL     1      26.495  40.368  49.447  1.00  0.00     0.035 A 
HETATM   17  C   UNL     1      27.622  40.853  50.106  1.00  0.00     0.031 A 
HETATM   18  C   UNL     1      28.643  39.980  50.493  1.00  0.00     0.022 A 
HETATM   19  C   UNL     1      28.541  38.612  50.230  1.00  0.00     0.017 A 
HETATM   20  C   UNL     1      27.417  38.100  49.566  1.00  0.00    -0.043 A 
HETATM   21 BR   UNL     1      29.961  37.497  50.816  1.00  0.00    -0.051 Br
HETATM   22  C   UNL     1      27.250  36.634  49.280  1.00  0.00     0.049 C 
HETATM   23  C   UNL     1      26.404  38.995  49.178  1.00  0.00     0.037 A 
ENDBRANCH  13  16
ENDBRANCH  11  12
ENDBRANCH   8  11
ENDBRANCH   1   7
BRANCH   4  24
HETATM   24  C   UNL     1      28.032  44.361  53.015  1.00  0.00     0.106 A 
HETATM   25  N   UNL     1      28.303  45.076  54.130  1.00  0.00    -0.233 NA
HETATM   26  C   UNL     1      29.263  44.646  54.981  1.00  0.00     0.102 A 
HETATM   27  C   UNL     1      30.015  43.482  54.764  1.00  0.00    -0.004 A 
HETATM   28  C   UNL     1      29.523  45.373  56.138  1.00  0.00     0.095 A 
HETATM   29  C   UNL     1      29.733  42.746  53.615  1.00  0.00     0.017 A 
HETATM   30  C   UNL     1      30.998  43.083  55.691  1.00  0.00     0.014 A 
HETATM   31  C   UNL     1      28.730  43.182  52.749  1.00  0.00     0.045 A 
HETATM   32  C   UNL     1      31.230  43.839  56.841  1.00  0.00     0.004 A 
HETATM   33  C   UNL     1      30.487  44.992  57.068  1.00  0.00     0.039 A 
BRANCH  28  34
HETATM   34  O   UNL     1      28.797  46.513  56.389  1.00  0.00    -0.358 OA
HETATM   35  H   UNL     1      28.550  46.424  57.334  1.00  0.00     0.218 HD
ENDBRANCH  28  34
ENDBRANCH   4  24
TORSDOF 6
ENDMDL
MODEL 6
REMARK VINA RESULT:      -9.8      2.521      3.308
REMARK  6 active torsions:
REMARK  status: ('A' for Active; 'I' for Inactive)
REMARK    1  A    between atoms: C_7  and  N_8 
REMARK       I    between atoms: N_8  and  C_9 
REMARK    2  A    between atoms: C_9  and  C_10 
REMARK    3  A    between atoms: C_10  and  N_11 
REMARK       I    between atoms: N_11  and  C_12 
REMARK    4  A    between atoms: C_12  and  C_13 
REMARK    5  A    between atoms: N_16  and  C_17 
REMARK    6  A    between atoms: C_23  and  O_24 
ROOT
HETATM    1  C   UNL     1      25.182  45.659  50.128  1.00  0.00     0.080 C 
HETATM    2  C   UNL     1      25.207  46.868  51.073  1.00  0.00     0.029 C 
HETATM    3  C   UNL     1      25.563  46.472  52.507  1.00  0.00     0.098 C 
HETATM    4  N   UNL     1      26.849  45.771  52.483  1.00  0.00    -0.268 NA
HETATM    5  C   UNL     1      26.805  44.504  51.740  1.00  0.00     0.098 C 
HETATM    6  C   UNL     1      26.442  44.795  50.282  1.00  0.00     0.029 C 
ENDROOT
BRANCH   1   7
HETATM    7  C   UNL     1      23.900  44.845  50.284  1.00  0.00     0.222 C 
HETATM    8  N   UNL     1      22.889  45.236  49.436  1.00  0.00    -0.352 N 
HETATM    9  H   UNL     1      23.015  46.030  48.821  1.00  0.00     0.162 HD
HETATM   10  O   UNL     1      23.762  43.915  51.073  1.00  0.00    -0.273 OA
BRANCH   8  11
HETATM   11  C   UNL     1      21.646  44.496  49.336  1.00  0.00     0.225 C 
BRANCH  11  12
HETATM   12  C   UNL     1      20.482  45.382  48.886  1.00  0.00     0.239 C 
HETATM   13  N   UNL     1      20.736  46.725  49.097  1.00  0.00    -0.326 N 
HETATM   14  H   UNL     1      21.702  46.958  49.337  1.00  0.00     0.169 HD
HETATM   15  O   UNL     1      19.477  44.892  48.381  1.00  0.00    -0.271 OA
BRANCH  13  16
HETATM   16  C   UNL     1      19.839  47.803  48.973  1.00  0.00     0.035 A 
HETATM   17  C   UNL     1      19.028  48.260  50.008  1.00  0.00     0.031 A 
HETATM   18  C   UNL     1      18.199  49.370  49.816  1.00  0.00     0.022 A 
HETATM   19  C   UNL     1      18.180  50.035  48.589  1.00  0.00     0.017 A 
HETATM   20  C   UNL     1      18.986  49.592  47.531  1.00  0.00    -0.043 A 
HETATM   21 BR   UNL     1      17.045  51.548  48.427  1.00  0.00    -0.051 Br
HETATM   22  C   UNL     1      19.018  50.286  46.198  1.00  0.00     0.049 C 
HETATM   23  C   UNL     1      19.808  48.470  47.740  1.00  0.00     0.037 A 
ENDBRANCH  13  16
ENDBRANCH  11  12
ENDBRANCH   8  11
ENDBRANCH   1   7
BRANCH   4  24
HETATM   24  C   UNL     1      27.539  45.711  53.705  1.00  0.00     0.106 A 
HETATM   25  N   UNL     1      28.504  44.782  53.881  1.00  0.00    -0.233 NA
HETATM   26  C   UNL     1      29.221  44.775  55.029  1.00  0.00     0.102 A 
HETATM   27  C   UNL     1      29.011  45.690  56.071  1.00  0.00    -0.004 A 
HETATM   28  C   UNL     1      30.229  43.829  55.196  1.00  0.00     0.095 A 
HETATM   29  C   UNL     1      28.017  46.649  55.886  1.00  0.00     0.017 A 
HETATM   30  C   UNL     1      29.796  45.635  57.240  1.00  0.00     0.014 A 
HETATM   31  C   UNL     1      27.291  46.664  54.694  1.00  0.00     0.045 A 
HETATM   32  C   UNL     1      30.797  44.672  57.371  1.00  0.00     0.004 A 
HETATM   33  C   UNL     1      31.017  43.763  56.342  1.00  0.00     0.039 A 
BRANCH  28  34
HETATM   34  O   UNL     1      30.470  42.924  54.190  1.00  0.00    -0.358 OA
HETATM   35  H   UNL     1      29.624  42.902  53.695  1.00  0.00     0.218 HD
ENDBRANCH  28  34
ENDBRANCH   4  24
TORSDOF 6
ENDMDL
MODEL 7
REMARK VINA RESULT:      -9.3      2.180      2.556
REMARK  6 active torsions:
REMARK  status: ('A' for Active; 'I' for Inactive)
REMARK    1  A    between atoms: C_7  and  N_8 
REMARK       I    between atoms: N_8  and  C_9 
REMARK    2  A    between atoms: C_9  and  C_10 
REMARK    3  A    between atoms: C_10  and  N_11 
REMARK       I    between atoms: N_11  and  C_12 
REMARK    4  A    between atoms: C_12  and  C_13 
REMARK    5  A    between atoms: N_16  and  C_17 
REMARK    6  A    between atoms: C_23  and  O_24 
ROOT
HETATM    1  C   UNL     1      23.920  43.742  50.563  1.00  0.00     0.080 C 
HETATM    2  C   UNL     1      24.740  42.448  50.668  1.00  0.00     0.029 C 
HETATM    3  C   UNL     1      26.204  42.720  51.017  1.00  0.00     0.098 C 
HETATM    4  N   UNL     1      26.242  43.493  52.262  1.00  0.00    -0.268 NA
HETATM    5  C   UNL     1      25.628  44.822  52.137  1.00  0.00     0.098 C 
HETATM    6  C   UNL     1      24.151  44.657  51.774  1.00  0.00     0.029 C 
ENDROOT
BRANCH   1   7
HETATM    7  C   UNL     1      24.164  44.461  49.239  1.00  0.00     0.222 C 
HETATM    8  N   UNL     1      23.100  44.395  48.369  1.00  0.00    -0.352 N 
HETATM    9  H   UNL     1      22.274  43.861  48.609  1.00  0.00     0.162 HD
HETATM   10  O   UNL     1      25.197  45.062  48.958  1.00  0.00    -0.273 OA
BRANCH   8  11
HETATM   11  C   UNL     1      23.087  45.133  47.121  1.00  0.00     0.225 C 
BRANCH  11  12
HETATM   12  C   UNL     1      22.032  46.243  47.118  1.00  0.00     0.239 C 
HETATM   13  N   UNL     1      22.400  47.316  47.909  1.00  0.00    -0.326 N 
HETATM   14  H   UNL     1      23.372  47.315  48.227  1.00  0.00     0.169 HD
HETATM   15  O   UNL     1      21.009  46.137  46.449  1.00  0.00    -0.271 OA
BRANCH  13  16
HETATM   16  C   UNL     1      21.615  48.422  48.285  1.00  0.00     0.035 A 
HETATM   17  C   UNL     1      21.766  49.698  47.748  1.00  0.00     0.031 A 
HETATM   18  C   UNL     1      20.912  50.733  48.141  1.00  0.00     0.022 A 
HETATM   19  C   UNL     1      19.896  50.498  49.070  1.00  0.00     0.017 A 
HETATM   20  C   UNL     1      19.726  49.222  49.626  1.00  0.00    -0.043 A 
HETATM   21 BR   UNL     1      18.766  51.954  49.524  1.00  0.00    -0.051 Br
HETATM   22  C   UNL     1      18.634  48.912  50.612  1.00  0.00     0.049 C 
HETATM   23  C   UNL     1      20.600  48.195  49.224  1.00  0.00     0.037 A 
ENDBRANCH  13  16
ENDBRANCH  11  12
ENDBRANCH   8  11
ENDBRANCH   1   7
BRANCH   4  24
HETATM   24  C   UNL     1      27.459  43.471  52.961  1.00  0.00     0.106 A 
HETATM   25  N   UNL     1      27.719  44.431  53.877  1.00  0.00    -0.233 NA
HETATM   26  C   UNL     1      28.858  44.366  54.605  1.00  0.00     0.102 A 
HETATM   27  C   UNL     1      29.806  43.342  54.458  1.00  0.00    -0.004 A 
HETATM   28  C   UNL     1      29.111  45.345  55.562  1.00  0.00     0.095 A 
HETATM   29  C   UNL     1      29.534  42.353  53.516  1.00  0.00     0.017 A 
HETATM   30  C   UNL     1      30.970  43.327  55.252  1.00  0.00     0.014 A 
HETATM   31  C   UNL     1      28.352  42.414  52.778  1.00  0.00     0.045 A 
HETATM   32  C   UNL     1      31.189  44.326  56.201  1.00  0.00     0.004 A 
HETATM   33  C   UNL     1      30.253  45.342  56.359  1.00  0.00     0.039 A 
BRANCH  28  34
HETATM   34  O   UNL     1      28.197  46.356  55.742  1.00  0.00    -0.358 OA
HETATM   35  H   UNL     1      28.758  47.148  55.885  1.00  0.00     0.218 HD
ENDBRANCH  28  34
ENDBRANCH   4  24
TORSDOF 6
ENDMDL
MODEL 8
REMARK VINA RESULT:      -9.3      4.141     10.201
REMARK  6 active torsions:
REMARK  status: ('A' for Active; 'I' for Inactive)
REMARK    1  A    between atoms: C_7  and  N_8 
REMARK       I    between atoms: N_8  and  C_9 
REMARK    2  A    between atoms: C_9  and  C_10 
REMARK    3  A    between atoms: C_10  and  N_11 
REMARK       I    between atoms: N_11  and  C_12 
REMARK    4  A    between atoms: C_12  and  C_13 
REMARK    5  A    between atoms: N_16  and  C_17 
REMARK    6  A    between atoms: C_23  and  O_24 
ROOT
HETATM    1  C   UNL     1      23.262  41.927  48.917  1.00  0.00     0.080 C 
HETATM    2  C   UNL     1      22.990  42.734  50.194  1.00  0.00     0.029 C 
HETATM    3  C   UNL     1      23.603  44.133  50.134  1.00  0.00     0.098 C 
HETATM    4  N   UNL     1      23.086  44.809  48.941  1.00  0.00    -0.268 NA
HETATM    5  C   UNL     1      23.493  44.163  47.686  1.00  0.00     0.098 C 
HETATM    6  C   UNL     1      22.933  42.739  47.656  1.00  0.00     0.029 C 
ENDROOT
BRANCH   1   7
HETATM    7  C   UNL     1      24.682  41.369  48.891  1.00  0.00     0.222 C 
HETATM    8  N   UNL     1      25.068  40.781  50.075  1.00  0.00    -0.352 N 
HETATM    9  H   UNL     1      24.450  40.792  50.877  1.00  0.00     0.162 HD
HETATM   10  O   UNL     1      25.426  41.412  47.916  1.00  0.00    -0.273 OA
BRANCH   8  11
HETATM   11  C   UNL     1      26.326  40.072  50.201  1.00  0.00     0.225 C 
BRANCH  11  12
HETATM   12  C   UNL     1      27.393  40.912  50.908  1.00  0.00     0.239 C 
HETATM   13  N   UNL     1      27.005  41.286  52.182  1.00  0.00    -0.326 N 
HETATM   14  H   UNL     1      26.174  40.814  52.545  1.00  0.00     0.169 HD
HETATM   15  O   UNL     1      28.459  41.168  50.357  1.00  0.00    -0.271 OA
BRANCH  13  16
HETATM   16  C   UNL     1      27.641  42.197  53.046  1.00  0.00     0.035 A 
HETATM   17  C   UNL     1      28.847  41.940  53.693  1.00  0.00     0.031 A 
HETATM   18  C   UNL     1      29.437  42.918  54.499  1.00  0.00     0.022 A 
HETATM   19  C   UNL     1      28.827  44.164  54.660  1.00  0.00     0.017 A 
HETATM   20  C   UNL     1      27.611  44.446  54.022  1.00  0.00    -0.043 A 
HETATM   21 BR   UNL     1      29.713  45.441  55.750  1.00  0.00    -0.051 Br
HETATM   22  C   UNL     1      26.926  45.778  54.144  1.00  0.00     0.049 C 
HETATM   23  C   UNL     1      27.029  43.446  53.221  1.00  0.00     0.037 A 
ENDBRANCH  13  16
ENDBRANCH  11  12
ENDBRANCH   8  11
ENDBRANCH   1   7
BRANCH   4  24
HETATM   24  C   UNL     1      23.183  46.210  48.938  1.00  0.00     0.106 A 
HETATM   25  N   UNL     1      22.182  46.947  48.406  1.00  0.00    -0.233 NA
HETATM   26  C   UNL     1      22.240  48.297  48.473  1.00  0.00     0.102 A 
HETATM   27  C   UNL     1      23.304  48.991  49.069  1.00  0.00    -0.004 A 
HETATM   28  C   UNL     1      21.197  49.051  47.943  1.00  0.00     0.095 A 
HETATM   29  C   UNL     1      24.332  48.229  49.619  1.00  0.00     0.017 A 
HETATM   30  C   UNL     1      23.303  50.399  49.113  1.00  0.00     0.014 A 
HETATM   31  C   UNL     1      24.261  46.837  49.563  1.00  0.00     0.045 A 
HETATM   32  C   UNL     1      22.239  51.120  48.570  1.00  0.00     0.004 A 
HETATM   33  C   UNL     1      21.177  50.443  47.982  1.00  0.00     0.039 A 
BRANCH  28  34
HETATM   34  O   UNL     1      20.133  48.403  47.362  1.00  0.00    -0.358 OA
HETATM   35  H   UNL     1      19.469  48.362  48.082  1.00  0.00     0.218 HD
ENDBRANCH  28  34
ENDBRANCH   4  24
TORSDOF 6
ENDMDL
MODEL 9
REMARK VINA RESULT:      -9.3      4.130     11.802
REMARK  6 active torsions:
REMARK  status: ('A' for Active; 'I' for Inactive)
REMARK    1  A    between atoms: C_7  and  N_8 
REMARK       I    between atoms: N_8  and  C_9 
REMARK    2  A    between atoms: C_9  and  C_10 
REMARK    3  A    between atoms: C_10  and  N_11 
REMARK       I    between atoms: N_11  and  C_12 
REMARK    4  A    between atoms: C_12  and  C_13 
REMARK    5  A    between atoms: N_16  and  C_17 
REMARK    6  A    between atoms: C_23  and  O_24 
ROOT
HETATM    1  C   UNL     1      22.853  46.442  48.027  1.00  0.00     0.080 C 
HETATM    2  C   UNL     1      21.464  46.490  47.376  1.00  0.00     0.029 C 
HETATM    3  C   UNL     1      20.470  47.311  48.197  1.00  0.00     0.098 C 
HETATM    4  N   UNL     1      21.030  48.652  48.387  1.00  0.00    -0.268 NA
HETATM    5  C   UNL     1      22.268  48.656  49.177  1.00  0.00     0.098 C 
HETATM    6  C   UNL     1      23.332  47.842  48.438  1.00  0.00     0.029 C 
ENDROOT
BRANCH   1   7
HETATM    7  C   UNL     1      22.901  45.451  49.186  1.00  0.00     0.222 C 
HETATM    8  N   UNL     1      24.002  45.601  49.998  1.00  0.00    -0.352 N 
HETATM    9  H   UNL     1      24.714  46.285  49.774  1.00  0.00     0.162 HD
HETATM   10  O   UNL     1      22.044  44.600  49.405  1.00  0.00    -0.273 OA
BRANCH   8  11
HETATM   11  C   UNL     1      24.154  44.847  51.227  1.00  0.00     0.225 C 
BRANCH  11  12
HETATM   12  C   UNL     1      25.625  44.596  51.571  1.00  0.00     0.239 C 
HETATM   13  N   UNL     1      25.782  44.073  52.842  1.00  0.00    -0.326 N 
HETATM   14  H   UNL     1      24.923  43.756  53.297  1.00  0.00     0.169 HD
HETATM   15  O   UNL     1      26.511  44.832  50.756  1.00  0.00    -0.271 OA
BRANCH  13  16
HETATM   16  C   UNL     1      26.980  43.886  53.557  1.00  0.00     0.035 A 
HETATM   17  C   UNL     1      27.719  42.706  53.536  1.00  0.00     0.031 A 
HETATM   18  C   UNL     1      28.926  42.618  54.238  1.00  0.00     0.022 A 
HETATM   19  C   UNL     1      29.405  43.712  54.960  1.00  0.00     0.017 A 
HETATM   20  C   UNL     1      28.678  44.910  54.998  1.00  0.00    -0.043 A 
HETATM   21 BR   UNL     1      31.065  43.512  55.859  1.00  0.00    -0.051 Br
HETATM   22  C   UNL     1      29.162  46.123  55.742  1.00  0.00     0.049 C 
HETATM   23  C   UNL     1      27.462  44.978  54.292  1.00  0.00     0.037 A 
ENDBRANCH  13  16
ENDBRANCH  11  12
ENDBRANCH   8  11
ENDBRANCH   1   7
BRANCH   4  24
HETATM   24  C   UNL     1      20.112  49.658  48.730  1.00  0.00     0.106 A 
HETATM   25  N   UNL     1      18.820  49.541  48.347  1.00  0.00    -0.233 NA
HETATM   26  C   UNL     1      17.921  50.471  48.743  1.00  0.00     0.102 A 
HETATM   27  C   UNL     1      18.259  51.576  49.538  1.00  0.00    -0.004 A 
HETATM   28  C   UNL     1      16.589  50.335  48.365  1.00  0.00     0.095 A 
HETATM   29  C   UNL     1      19.591  51.693  49.933  1.00  0.00     0.017 A 
HETATM   30  C   UNL     1      17.275  52.508  49.923  1.00  0.00     0.014 A 
HETATM   31  C   UNL     1      20.512  50.723  49.537  1.00  0.00     0.045 A 
HETATM   32  C   UNL     1      15.949  52.337  49.524  1.00  0.00     0.004 A 
HETATM   33  C   UNL     1      15.602  51.243  48.740  1.00  0.00     0.039 A 
BRANCH  28  34
HETATM   34  O   UNL     1      16.219  49.257  47.596  1.00  0.00    -0.358 OA
HETATM   35  H   UNL     1      15.586  48.774  48.168  1.00  0.00     0.218 HD
ENDBRANCH  28  34
ENDBRANCH   4  24
TORSDOF 6
ENDMDL
MODEL 10
REMARK VINA RESULT:      -9.1      3.711      9.537
REMARK  6 active torsions:
REMARK  status: ('A' for Active; 'I' for Inactive)
REMARK    1  A    between atoms: C_7  and  N_8 
REMARK       I    between atoms: N_8  and  C_9 
REMARK    2  A    between atoms: C_9  and  C_10 
REMARK    3  A    between atoms: C_10  and  N_11 
REMARK       I    between atoms: N_11  and  C_12 
REMARK    4  A    between atoms: C_12  and  C_13 
REMARK    5  A    between atoms: N_16  and  C_17 
REMARK    6  A    between atoms: C_23  and  O_24 
ROOT
HETATM    1  C   UNL     1      23.593  41.841  48.883  1.00  0.00     0.080 C 
HETATM    2  C   UNL     1      22.900  42.631  50.001  1.00  0.00     0.029 C 
HETATM    3  C   UNL     1      23.133  44.137  49.873  1.00  0.00     0.098 C 
HETATM    4  N   UNL     1      22.681  44.559  48.545  1.00  0.00    -0.268 NA
HETATM    5  C   UNL     1      23.457  43.961  47.450  1.00  0.00     0.098 C 
HETATM    6  C   UNL     1      23.298  42.440  47.500  1.00  0.00     0.029 C 
ENDROOT
BRANCH   1   7
HETATM    7  C   UNL     1      25.090  41.690  49.139  1.00  0.00     0.222 C 
HETATM    8  N   UNL     1      25.387  40.968  50.273  1.00  0.00    -0.352 N 
HETATM    9  H   UNL     1      24.647  40.635  50.877  1.00  0.00     0.162 HD
HETATM   10  O   UNL     1      25.966  42.147  48.412  1.00  0.00    -0.273 OA
BRANCH   8  11
HETATM   11  C   UNL     1      26.749  40.600  50.608  1.00  0.00     0.225 C 
BRANCH  11  12
HETATM   12  C   UNL     1      27.426  41.644  51.500  1.00  0.00     0.239 C 
HETATM   13  N   UNL     1      26.511  42.384  52.227  1.00  0.00    -0.326 N 
HETATM   14  H   UNL     1      25.553  42.026  52.222  1.00  0.00     0.169 HD
HETATM   15  O   UNL     1      28.649  41.744  51.535  1.00  0.00    -0.271 OA
BRANCH  13  16
HETATM   16  C   UNL     1      26.750  43.532  53.004  1.00  0.00     0.035 A 
HETATM   17  C   UNL     1      27.576  43.553  54.124  1.00  0.00     0.031 A 
HETATM   18  C   UNL     1      27.799  44.749  54.814  1.00  0.00     0.022 A 
HETATM   19  C   UNL     1      27.202  45.935  54.383  1.00  0.00     0.017 A 
HETATM   20  C   UNL     1      26.364  45.940  53.259  1.00  0.00    -0.043 A 
HETATM   21 BR   UNL     1      27.582  47.516  55.363  1.00  0.00    -0.051 Br
HETATM   22  C   UNL     1      25.716  47.193  52.743  1.00  0.00     0.049 C 
HETATM   23  C   UNL     1      26.145  44.725  52.583  1.00  0.00     0.037 A 
ENDBRANCH  13  16
ENDBRANCH  11  12
ENDBRANCH   8  11
ENDBRANCH   1   7
BRANCH   4  24
HETATM   24  C   UNL     1      22.414  45.930  48.394  1.00  0.00     0.106 A 
HETATM   25  N   UNL     1      23.328  46.837  48.805  1.00  0.00    -0.233 NA
HETATM   26  C   UNL     1      23.104  48.153  48.589  1.00  0.00     0.102 A 
HETATM   27  C   UNL     1      21.951  48.643  47.957  1.00  0.00    -0.004 A 
HETATM   28  C   UNL     1      24.058  49.082  48.995  1.00  0.00     0.095 A 
HETATM   29  C   UNL     1      21.012  47.706  47.532  1.00  0.00     0.017 A 
HETATM   30  C   UNL     1      21.779  50.026  47.756  1.00  0.00     0.014 A 
HETATM   31  C   UNL     1      21.253  46.348  47.741  1.00  0.00     0.045 A 
HETATM   32  C   UNL     1      22.758  50.927  48.177  1.00  0.00     0.004 A 
HETATM   33  C   UNL     1      23.907  50.453  48.800  1.00  0.00     0.039 A 
BRANCH  28  34
HETATM   34  O   UNL     1      25.206  48.637  49.607  1.00  0.00    -0.358 OA
HETATM   35  H   UNL     1      24.952  47.756  49.955  1.00  0.00     0.218 HD
ENDBRANCH  28  34
ENDBRANCH   4  24
TORSDOF 6
ENDMDL
