MODEL 1
REMARK VINA RESULT:      -8.7      0.000      0.000
REMARK  3 active torsions:
REMARK  status: ('A' for Active; 'I' for Inactive)
REMARK    1  A    between atoms: C_3  and  N_4 
REMARK       I    between atoms: N_4  and  C_5 
REMARK    2  A    between atoms: C_5  and  C_6 
REMARK    3  A    between atoms: C_6  and  C_7 
ROOT
HETATM    1  C   UNL     1      28.020  41.350  52.120  1.00  0.00     0.286 C 
HETATM    2  N   UNL     1      28.795  40.110  51.654  1.00  0.00    -0.056 N 
HETATM    3  H   UNL     1      29.812  40.316  51.704  1.00  0.00     0.278 HD
HETATM    4  H   UNL     1      28.621  39.330  52.299  1.00  0.00     0.278 HD
HETATM    5  C   UNL     1      28.524  39.688  50.231  1.00  0.00     0.209 C 
HETATM    6  C   UNL     1      27.003  39.593  50.008  1.00  0.00     0.115 C 
HETATM    7  N   UNL     1      26.358  40.858  50.313  1.00  0.00    -0.353 N 
HETATM    8  C   UNL     1      26.762  41.711  51.301  1.00  0.00     0.249 C 
HETATM    9  O   UNL     1      26.145  42.754  51.494  1.00  0.00    -0.271 OA
HETATM   10  C   UNL     1      29.214  38.359  49.947  1.00  0.00     0.035 C 
HETATM   11  C   UNL     1      28.934  37.921  48.510  1.00  0.00     0.002 C 
HETATM   12  C   UNL     1      27.436  37.866  48.210  1.00  0.00     0.002 C 
HETATM   13  C   UNL     1      26.719  39.169  48.564  1.00  0.00     0.027 C 
HETATM   14  H   UNL     1      25.470  41.098  49.873  1.00  0.00     0.163 HD
ENDROOT
BRANCH   1  15
HETATM   15  C   UNL     1      28.927  42.580  52.255  1.00  0.00     0.146 C 
BRANCH  15  16
HETATM   16  C   UNL     1      28.885  43.051  53.682  1.00  0.00     0.224 C 
HETATM   17  N   UNL     1      29.965  43.813  54.066  1.00  0.00    -0.327 N 
HETATM   18  H   UNL     1      30.743  43.887  53.414  1.00  0.00     0.169 HD
HETATM   19  O   UNL     1      28.018  42.560  54.406  1.00  0.00    -0.273 OA
BRANCH  17  20
HETATM   20  C   UNL     1      30.268  44.208  55.392  1.00  0.00     0.040 A 
HETATM   21  C   UNL     1      29.756  45.344  56.044  1.00  0.00    -0.035 A 
HETATM   22  C   UNL     1      28.939  46.420  55.382  1.00  0.00     0.050 C 
HETATM   23  C   UNL     1      30.074  45.547  57.402  1.00  0.00     0.009 A 
HETATM   24  C   UNL     1      30.933  44.685  58.082  1.00  0.00     0.001 A 
HETATM   25  C   UNL     1      31.499  43.610  57.412  1.00  0.00     0.002 A 
HETATM   26  C   UNL     1      31.176  43.379  56.074  1.00  0.00     0.030 A 
ENDBRANCH  17  20
ENDBRANCH  15  16
ENDBRANCH   1  15
TORSDOF 3
ENDMDL
MODEL 2
REMARK VINA RESULT:      -8.6      2.142      3.065
REMARK  3 active torsions:
REMARK  status: ('A' for Active; 'I' for Inactive)
REMARK    1  A    between atoms: C_3  and  N_4 
REMARK       I    between atoms: N_4  and  C_5 
REMARK    2  A    between atoms: C_5  and  C_6 
REMARK    3  A    between atoms: C_6  and  C_7 
ROOT
HETATM    1  C   UNL     1      25.688  44.421  52.649  1.00  0.00     0.286 C 
HETATM    2  N   UNL     1      26.471  43.103  52.712  1.00  0.00    -0.056 N 
HETATM    3  H   UNL     1      27.305  43.241  53.315  1.00  0.00     0.278 HD
HETATM    4  H   UNL     1      25.897  42.380  53.163  1.00  0.00     0.278 HD
HETATM    5  C   UNL     1      26.992  42.609  51.385  1.00  0.00     0.209 C 
HETATM    6  C   UNL     1      25.847  42.605  50.356  1.00  0.00     0.115 C 
HETATM    7  N   UNL     1      25.262  43.930  50.231  1.00  0.00    -0.353 N 
HETATM    8  C   UNL     1      25.132  44.815  51.264  1.00  0.00     0.249 C 
HETATM    9  O   UNL     1      24.611  45.909  51.065  1.00  0.00    -0.271 OA
HETATM   10  C   UNL     1      27.596  41.220  51.553  1.00  0.00     0.035 C 
HETATM   11  C   UNL     1      28.117  40.711  50.210  1.00  0.00     0.002 C 
HETATM   12  C   UNL     1      27.036  40.740  49.128  1.00  0.00     0.002 C 
HETATM   13  C   UNL     1      26.369  42.110  49.004  1.00  0.00     0.027 C 
HETATM   14  H   UNL     1      24.793  44.201  49.368  1.00  0.00     0.163 HD
ENDROOT
BRANCH   1  15
HETATM   15  C   UNL     1      26.479  45.591  53.247  1.00  0.00     0.146 C 
BRANCH  15  16
HETATM   16  C   UNL     1      27.186  45.110  54.483  1.00  0.00     0.224 C 
HETATM   17  N   UNL     1      28.528  45.410  54.530  1.00  0.00    -0.327 N 
HETATM   18  H   UNL     1      28.950  45.807  53.693  1.00  0.00     0.169 HD
HETATM   19  O   UNL     1      26.562  44.345  55.219  1.00  0.00    -0.273 OA
BRANCH  17  20
HETATM   20  C   UNL     1      29.456  44.905  55.474  1.00  0.00     0.040 A 
HETATM   21  C   UNL     1      30.248  43.756  55.307  1.00  0.00    -0.035 A 
HETATM   22  C   UNL     1      30.115  42.777  54.174  1.00  0.00     0.050 C 
HETATM   23  C   UNL     1      31.200  43.440  56.299  1.00  0.00     0.009 A 
HETATM   24  C   UNL     1      31.319  44.202  57.459  1.00  0.00     0.001 A 
HETATM   25  C   UNL     1      30.479  45.290  57.656  1.00  0.00     0.002 A 
HETATM   26  C   UNL     1      29.548  45.633  56.674  1.00  0.00     0.030 A 
ENDBRANCH  17  20
ENDBRANCH  15  16
ENDBRANCH   1  15
TORSDOF 3
ENDMDL
MODEL 3
REMARK VINA RESULT:      -8.4      4.416      5.948
REMARK  3 active torsions:
REMARK  status: ('A' for Active; 'I' for Inactive)
REMARK    1  A    between atoms: C_3  and  N_4 
REMARK       I    between atoms: N_4  and  C_5 
REMARK    2  A    between atoms: C_5  and  C_6 
REMARK    3  A    between atoms: C_6  and  C_7 
ROOT
HETATM    1  C   UNL     1      25.194  44.525  50.998  1.00  0.00     0.286 C 
HETATM    2  N   UNL     1      25.627  45.929  50.556  1.00  0.00    -0.056 N 
HETATM    3  H   UNL     1      26.114  46.391  51.348  1.00  0.00     0.278 HD
HETATM    4  H   UNL     1      26.310  45.856  49.792  1.00  0.00     0.278 HD
HETATM    5  C   UNL     1      24.497  46.849  50.166  1.00  0.00     0.209 C 
HETATM    6  C   UNL     1      23.579  46.133  49.158  1.00  0.00     0.115 C 
HETATM    7  N   UNL     1      23.076  44.889  49.714  1.00  0.00    -0.353 N 
HETATM    8  C   UNL     1      23.784  44.078  50.554  1.00  0.00     0.249 C 
HETATM    9  O   UNL     1      23.280  43.036  50.963  1.00  0.00    -0.271 OA
HETATM   10  C   UNL     1      25.061  48.141  49.588  1.00  0.00     0.035 C 
HETATM   11  C   UNL     1      23.920  49.074  49.181  1.00  0.00     0.002 C 
HETATM   12  C   UNL     1      22.940  48.396  48.224  1.00  0.00     0.002 C 
HETATM   13  C   UNL     1      22.426  47.060  48.760  1.00  0.00     0.027 C 
HETATM   14  H   UNL     1      22.196  44.499  49.378  1.00  0.00     0.163 HD
ENDROOT
BRANCH   1  15
HETATM   15  C   UNL     1      25.355  44.321  52.510  1.00  0.00     0.146 C 
BRANCH  15  16
HETATM   16  C   UNL     1      26.821  44.233  52.828  1.00  0.00     0.224 C 
HETATM   17  N   UNL     1      27.115  44.214  54.172  1.00  0.00    -0.327 N 
HETATM   18  H   UNL     1      26.352  44.387  54.823  1.00  0.00     0.169 HD
HETATM   19  O   UNL     1      27.605  44.383  51.890  1.00  0.00    -0.273 OA
BRANCH  17  20
HETATM   20  C   UNL     1      28.409  44.337  54.737  1.00  0.00     0.040 A 
HETATM   21  C   UNL     1      28.910  45.473  55.396  1.00  0.00    -0.035 A 
HETATM   22  C   UNL     1      28.216  46.806  55.456  1.00  0.00     0.050 C 
HETATM   23  C   UNL     1      30.185  45.404  55.993  1.00  0.00     0.009 A 
HETATM   24  C   UNL     1      30.975  44.261  55.885  1.00  0.00     0.001 A 
HETATM   25  C   UNL     1      30.509  43.169  55.166  1.00  0.00     0.002 A 
HETATM   26  C   UNL     1      29.239  43.211  54.588  1.00  0.00     0.030 A 
ENDBRANCH  17  20
ENDBRANCH  15  16
ENDBRANCH   1  15
TORSDOF 3
ENDMDL
MODEL 4
REMARK VINA RESULT:      -8.3      2.011      7.626
REMARK  3 active torsions:
REMARK  status: ('A' for Active; 'I' for Inactive)
REMARK    1  A    between atoms: C_3  and  N_4 
REMARK       I    between atoms: N_4  and  C_5 
REMARK    2  A    between atoms: C_5  and  C_6 
REMARK    3  A    between atoms: C_6  and  C_7 
ROOT
HETATM    1  C   UNL     1      27.554  45.697  53.904  1.00  0.00     0.286 C 
HETATM    2  N   UNL     1      28.776  44.774  54.010  1.00  0.00    -0.056 N 
HETATM    3  H   UNL     1      28.528  43.848  53.609  1.00  0.00     0.278 HD
HETATM    4  H   UNL     1      29.542  45.147  53.436  1.00  0.00     0.278 HD
HETATM    5  C   UNL     1      29.251  44.506  55.416  1.00  0.00     0.209 C 
HETATM    6  C   UNL     1      29.414  45.843  56.163  1.00  0.00     0.115 C 
HETATM    7  N   UNL     1      28.167  46.589  56.162  1.00  0.00    -0.353 N 
HETATM    8  C   UNL     1      27.269  46.587  55.133  1.00  0.00     0.249 C 
HETATM    9  O   UNL     1      26.246  47.261  55.217  1.00  0.00    -0.271 OA
HETATM   10  C   UNL     1      30.559  43.725  55.378  1.00  0.00     0.035 C 
HETATM   11  C   UNL     1      31.052  43.460  56.801  1.00  0.00     0.002 C 
HETATM   12  C   UNL     1      31.176  44.749  57.613  1.00  0.00     0.002 C 
HETATM   13  C   UNL     1      29.892  45.580  57.594  1.00  0.00     0.027 C 
HETATM   14  H   UNL     1      27.977  47.265  56.900  1.00  0.00     0.163 HD
ENDROOT
BRANCH   1  15
HETATM   15  C   UNL     1      26.286  44.932  53.507  1.00  0.00     0.146 C 
BRANCH  15  16
HETATM   16  C   UNL     1      26.592  44.092  52.298  1.00  0.00     0.224 C 
HETATM   17  N   UNL     1      26.433  42.738  52.486  1.00  0.00    -0.327 N 
HETATM   18  H   UNL     1      26.252  42.414  53.434  1.00  0.00     0.169 HD
HETATM   19  O   UNL     1      27.130  44.659  51.347  1.00  0.00    -0.273 OA
BRANCH  17  20
HETATM   20  C   UNL     1      26.842  41.725  51.584  1.00  0.00     0.040 A 
HETATM   21  C   UNL     1      28.074  41.049  51.619  1.00  0.00    -0.035 A 
HETATM   22  C   UNL     1      29.229  41.412  52.511  1.00  0.00     0.050 C 
HETATM   23  C   UNL     1      28.292  39.992  50.712  1.00  0.00     0.009 A 
HETATM   24  C   UNL     1      27.343  39.654  49.749  1.00  0.00     0.001 A 
HETATM   25  C   UNL     1      26.160  40.377  49.668  1.00  0.00     0.002 A 
HETATM   26  C   UNL     1      25.916  41.411  50.573  1.00  0.00     0.030 A 
ENDBRANCH  17  20
ENDBRANCH  15  16
ENDBRANCH   1  15
TORSDOF 3
ENDMDL
MODEL 5
REMARK VINA RESULT:      -8.3      2.101      3.692
REMARK  3 active torsions:
REMARK  status: ('A' for Active; 'I' for Inactive)
REMARK    1  A    between atoms: C_3  and  N_4 
REMARK       I    between atoms: N_4  and  C_5 
REMARK    2  A    between atoms: C_5  and  C_6 
REMARK    3  A    between atoms: C_6  and  C_7 
ROOT
HETATM    1  C   UNL     1      28.772  42.326  51.689  1.00  0.00     0.286 C 
HETATM    2  N   UNL     1      28.162  43.714  51.929  1.00  0.00    -0.056 N 
HETATM    3  H   UNL     1      28.433  44.036  52.878  1.00  0.00     0.278 HD
HETATM    4  H   UNL     1      28.564  44.388  51.264  1.00  0.00     0.278 HD
HETATM    5  C   UNL     1      26.656  43.764  51.884  1.00  0.00     0.209 C 
HETATM    6  C   UNL     1      26.160  43.079  50.597  1.00  0.00     0.115 C 
HETATM    7  N   UNL     1      26.644  41.711  50.522  1.00  0.00    -0.353 N 
HETATM    8  C   UNL     1      27.860  41.298  50.986  1.00  0.00     0.249 C 
HETATM    9  O   UNL     1      28.189  40.121  50.867  1.00  0.00    -0.271 OA
HETATM   10  C   UNL     1      26.185  45.211  51.963  1.00  0.00     0.035 C 
HETATM   11  C   UNL     1      24.658  45.268  51.908  1.00  0.00     0.002 C 
HETATM   12  C   UNL     1      24.103  44.550  50.678  1.00  0.00     0.002 C 
HETATM   13  C   UNL     1      24.630  43.120  50.546  1.00  0.00     0.027 C 
HETATM   14  H   UNL     1      26.128  41.016  49.984  1.00  0.00     0.163 HD
ENDROOT
BRANCH   1  15
HETATM   15  C   UNL     1      29.349  41.720  52.975  1.00  0.00     0.146 C 
BRANCH  15  16
HETATM   16  C   UNL     1      29.118  42.684  54.105  1.00  0.00     0.224 C 
HETATM   17  N   UNL     1      30.250  43.319  54.558  1.00  0.00    -0.327 N 
HETATM   18  H   UNL     1      31.146  43.002  54.191  1.00  0.00     0.169 HD
HETATM   19  O   UNL     1      28.006  42.664  54.634  1.00  0.00    -0.273 OA
BRANCH  17  20
HETATM   20  C   UNL     1      30.341  44.113  55.728  1.00  0.00     0.040 A 
HETATM   21  C   UNL     1      29.606  45.284  55.981  1.00  0.00    -0.035 A 
HETATM   22  C   UNL     1      28.730  45.982  54.978  1.00  0.00     0.050 C 
HETATM   23  C   UNL     1      29.734  45.907  57.240  1.00  0.00     0.009 A 
HETATM   24  C   UNL     1      30.620  45.423  58.201  1.00  0.00     0.001 A 
HETATM   25  C   UNL     1      31.403  44.312  57.917  1.00  0.00     0.002 A 
HETATM   26  C   UNL     1      31.271  43.668  56.686  1.00  0.00     0.030 A 
ENDBRANCH  17  20
ENDBRANCH  15  16
ENDBRANCH   1  15
TORSDOF 3
ENDMDL
MODEL 6
REMARK VINA RESULT:      -8.3      1.923      7.899
REMARK  3 active torsions:
REMARK  status: ('A' for Active; 'I' for Inactive)
REMARK    1  A    between atoms: C_3  and  N_4 
REMARK       I    between atoms: N_4  and  C_5 
REMARK    2  A    between atoms: C_5  and  C_6 
REMARK    3  A    between atoms: C_6  and  C_7 
ROOT
HETATM    1  C   UNL     1      28.876  43.054  54.392  1.00  0.00     0.286 C 
HETATM    2  N   UNL     1      27.517  43.597  53.928  1.00  0.00    -0.056 N 
HETATM    3  H   UNL     1      27.335  43.256  52.964  1.00  0.00     0.278 HD
HETATM    4  H   UNL     1      26.771  43.213  54.522  1.00  0.00     0.278 HD
HETATM    5  C   UNL     1      27.421  45.101  53.866  1.00  0.00     0.209 C 
HETATM    6  C   UNL     1      27.910  45.700  55.198  1.00  0.00     0.115 C 
HETATM    7  N   UNL     1      29.268  45.271  55.487  1.00  0.00    -0.353 N 
HETATM    8  C   UNL     1      29.774  44.044  55.164  1.00  0.00     0.249 C 
HETATM    9  O   UNL     1      30.932  43.766  55.462  1.00  0.00    -0.271 OA
HETATM   10  C   UNL     1      25.986  45.513  53.563  1.00  0.00     0.035 C 
HETATM   11  C   UNL     1      25.880  47.037  53.509  1.00  0.00     0.002 C 
HETATM   12  C   UNL     1      26.409  47.693  54.784  1.00  0.00     0.002 C 
HETATM   13  C   UNL     1      27.820  47.227  55.142  1.00  0.00     0.027 C 
HETATM   14  H   UNL     1      29.869  45.843  56.079  1.00  0.00     0.163 HD
ENDROOT
BRANCH   1  15
HETATM   15  C   UNL     1      29.666  42.420  53.240  1.00  0.00     0.146 C 
BRANCH  15  16
HETATM   16  C   UNL     1      28.894  41.239  52.721  1.00  0.00     0.224 C 
HETATM   17  N   UNL     1      29.130  40.936  51.400  1.00  0.00    -0.327 N 
HETATM   18  H   UNL     1      29.691  41.591  50.861  1.00  0.00     0.169 HD
HETATM   19  O   UNL     1      28.003  40.795  53.446  1.00  0.00    -0.273 OA
BRANCH  17  20
HETATM   20  C   UNL     1      28.392  40.010  50.620  1.00  0.00     0.040 A 
HETATM   21  C   UNL     1      28.768  38.681  50.358  1.00  0.00    -0.035 A 
HETATM   22  C   UNL     1      30.097  38.077  50.716  1.00  0.00     0.050 C 
HETATM   23  C   UNL     1      27.875  37.853  49.646  1.00  0.00     0.009 A 
HETATM   24  C   UNL     1      26.670  38.345  49.148  1.00  0.00     0.001 A 
HETATM   25  C   UNL     1      26.340  39.679  49.342  1.00  0.00     0.002 A 
HETATM   26  C   UNL     1      27.200  40.508  50.065  1.00  0.00     0.030 A 
ENDBRANCH  17  20
ENDBRANCH  15  16
ENDBRANCH   1  15
TORSDOF 3
ENDMDL
MODEL 7
REMARK VINA RESULT:      -8.3      2.355      3.272
REMARK  3 active torsions:
REMARK  status: ('A' for Active; 'I' for Inactive)
REMARK    1  A    between atoms: C_3  and  N_4 
REMARK       I    between atoms: N_4  and  C_5 
REMARK    2  A    between atoms: C_5  and  C_6 
REMARK    3  A    between atoms: C_6  and  C_7 
ROOT
HETATM    1  C   UNL     1      24.601  43.781  51.056  1.00  0.00     0.286 C 
HETATM    2  N   UNL     1      25.419  42.613  51.624  1.00  0.00    -0.056 N 
HETATM    3  H   UNL     1      25.826  42.905  52.534  1.00  0.00     0.278 HD
HETATM    4  H   UNL     1      24.797  41.819  51.821  1.00  0.00     0.278 HD
HETATM    5  C   UNL     1      26.580  42.174  50.768  1.00  0.00     0.209 C 
HETATM    6  C   UNL     1      26.094  41.950  49.323  1.00  0.00     0.115 C 
HETATM    7  N   UNL     1      25.476  43.156  48.796  1.00  0.00    -0.353 N 
HETATM    8  C   UNL     1      24.745  44.036  49.541  1.00  0.00     0.249 C 
HETATM    9  O   UNL     1      24.249  45.022  49.003  1.00  0.00    -0.271 OA
HETATM   10  C   UNL     1      27.201  40.910  51.349  1.00  0.00     0.035 C 
HETATM   11  C   UNL     1      28.372  40.455  50.479  1.00  0.00     0.002 C 
HETATM   12  C   UNL     1      27.963  40.273  49.018  1.00  0.00     0.002 C 
HETATM   13  C   UNL     1      27.268  41.509  48.445  1.00  0.00     0.027 C 
HETATM   14  H   UNL     1      25.456  43.320  47.790  1.00  0.00     0.163 HD
ENDROOT
BRANCH   1  15
HETATM   15  C   UNL     1      24.839  45.083  51.831  1.00  0.00     0.146 C 
BRANCH  15  16
HETATM   16  C   UNL     1      25.718  44.783  53.013  1.00  0.00     0.224 C 
HETATM   17  N   UNL     1      27.048  45.082  52.828  1.00  0.00    -0.327 N 
HETATM   18  H   UNL     1      27.344  45.352  51.892  1.00  0.00     0.169 HD
HETATM   19  O   UNL     1      25.215  44.135  53.931  1.00  0.00    -0.273 OA
BRANCH  17  20
HETATM   20  C   UNL     1      28.106  44.715  53.697  1.00  0.00     0.040 A 
HETATM   21  C   UNL     1      28.531  45.445  54.821  1.00  0.00    -0.035 A 
HETATM   22  C   UNL     1      28.047  46.821  55.185  1.00  0.00     0.050 C 
HETATM   23  C   UNL     1      29.534  44.896  55.646  1.00  0.00     0.009 A 
HETATM   24  C   UNL     1      30.151  43.686  55.331  1.00  0.00     0.001 A 
HETATM   25  C   UNL     1      29.783  43.008  54.177  1.00  0.00     0.002 A 
HETATM   26  C   UNL     1      28.775  43.524  53.361  1.00  0.00     0.030 A 
ENDBRANCH  17  20
ENDBRANCH  15  16
ENDBRANCH   1  15
TORSDOF 3
ENDMDL
MODEL 8
REMARK VINA RESULT:      -8.2      1.363      1.996
REMARK  3 active torsions:
REMARK  status: ('A' for Active; 'I' for Inactive)
REMARK    1  A    between atoms: C_3  and  N_4 
REMARK       I    between atoms: N_4  and  C_5 
REMARK    2  A    between atoms: C_5  and  C_6 
REMARK    3  A    between atoms: C_6  and  C_7 
ROOT
HETATM    1  C   UNL     1      27.942  42.410  51.668  1.00  0.00     0.286 C 
HETATM    2  N   UNL     1      27.661  42.461  50.160  1.00  0.00    -0.056 N 
HETATM    3  H   UNL     1      26.809  43.034  50.001  1.00  0.00     0.278 HD
HETATM    4  H   UNL     1      28.432  42.941  49.680  1.00  0.00     0.278 HD
HETATM    5  C   UNL     1      27.391  41.124  49.517  1.00  0.00     0.209 C 
HETATM    6  C   UNL     1      28.504  40.134  49.910  1.00  0.00     0.115 C 
HETATM    7  N   UNL     1      28.599  40.014  51.355  1.00  0.00    -0.353 N 
HETATM    8  C   UNL     1      28.378  41.040  52.230  1.00  0.00     0.249 C 
HETATM    9  O   UNL     1      28.495  40.846  53.437  1.00  0.00    -0.271 OA
HETATM   10  C   UNL     1      27.298  41.288  48.005  1.00  0.00     0.035 C 
HETATM   11  C   UNL     1      27.035  39.933  47.348  1.00  0.00     0.002 C 
HETATM   12  C   UNL     1      28.078  38.889  47.749  1.00  0.00     0.002 C 
HETATM   13  C   UNL     1      28.235  38.772  49.266  1.00  0.00     0.027 C 
HETATM   14  H   UNL     1      28.977  39.165  51.773  1.00  0.00     0.163 HD
ENDROOT
BRANCH   1  15
HETATM   15  C   UNL     1      26.774  42.966  52.492  1.00  0.00     0.146 C 
BRANCH  15  16
HETATM   16  C   UNL     1      27.310  43.475  53.800  1.00  0.00     0.224 C 
HETATM   17  N   UNL     1      28.617  43.902  53.757  1.00  0.00    -0.327 N 
HETATM   18  H   UNL     1      29.141  43.725  52.903  1.00  0.00     0.169 HD
HETATM   19  O   UNL     1      26.616  43.282  54.799  1.00  0.00    -0.273 OA
BRANCH  17  20
HETATM   20  C   UNL     1      29.416  44.235  54.879  1.00  0.00     0.040 A 
HETATM   21  C   UNL     1      29.333  45.430  55.615  1.00  0.00    -0.035 A 
HETATM   22  C   UNL     1      28.504  46.624  55.226  1.00  0.00     0.050 C 
HETATM   23  C   UNL     1      30.129  45.571  56.771  1.00  0.00     0.009 A 
HETATM   24  C   UNL     1      31.034  44.582  57.153  1.00  0.00     0.001 A 
HETATM   25  C   UNL     1      31.169  43.438  56.378  1.00  0.00     0.002 A 
HETATM   26  C   UNL     1      30.372  43.271  55.245  1.00  0.00     0.030 A 
ENDBRANCH  17  20
ENDBRANCH  15  16
ENDBRANCH   1  15
TORSDOF 3
ENDMDL
MODEL 9
REMARK VINA RESULT:      -8.2      2.774      8.085
REMARK  3 active torsions:
REMARK  status: ('A' for Active; 'I' for Inactive)
REMARK    1  A    between atoms: C_3  and  N_4 
REMARK       I    between atoms: N_4  and  C_5 
REMARK    2  A    between atoms: C_5  and  C_6 
REMARK    3  A    between atoms: C_6  and  C_7 
ROOT
HETATM    1  C   UNL     1      26.814  45.643  53.478  1.00  0.00     0.286 C 
HETATM    2  N   UNL     1      27.956  44.624  53.360  1.00  0.00    -0.056 N 
HETATM    3  H   UNL     1      27.558  43.714  53.056  1.00  0.00     0.278 HD
HETATM    4  H   UNL     1      28.610  44.920  52.625  1.00  0.00     0.278 HD
HETATM    5  C   UNL     1      28.697  44.348  54.645  1.00  0.00     0.209 C 
HETATM    6  C   UNL     1      29.117  45.682  55.290  1.00  0.00     0.115 C 
HETATM    7  N   UNL     1      27.958  46.528  55.522  1.00  0.00    -0.353 N 
HETATM    8  C   UNL     1      26.865  46.580  54.705  1.00  0.00     0.249 C 
HETATM    9  O   UNL     1      25.938  47.337  54.976  1.00  0.00    -0.271 OA
HETATM   10  C   UNL     1      29.903  43.460  54.363  1.00  0.00     0.035 C 
HETATM   11  C   UNL     1      30.664  43.185  55.660  1.00  0.00     0.002 C 
HETATM   12  C   UNL     1      31.056  44.476  56.378  1.00  0.00     0.002 C 
HETATM   13  C   UNL     1      29.866  45.410  56.597  1.00  0.00     0.027 C 
HETATM   14  H   UNL     1      27.981  47.234  56.257  1.00  0.00     0.163 HD
ENDROOT
BRANCH   1  15
HETATM   15  C   UNL     1      25.435  44.978  53.385  1.00  0.00     0.146 C 
BRANCH  15  16
HETATM   16  C   UNL     1      25.219  44.521  51.970  1.00  0.00     0.224 C 
HETATM   17  N   UNL     1      24.706  43.250  51.850  1.00  0.00    -0.327 N 
HETATM   18  H   UNL     1      24.638  42.689  52.697  1.00  0.00     0.169 HD
HETATM   19  O   UNL     1      25.692  45.226  51.078  1.00  0.00    -0.273 OA
BRANCH  17  20
HETATM   20  C   UNL     1      24.598  42.512  50.645  1.00  0.00     0.040 A 
HETATM   21  C   UNL     1      25.561  41.619  50.144  1.00  0.00    -0.035 A 
HETATM   22  C   UNL     1      26.940  41.433  50.714  1.00  0.00     0.050 C 
HETATM   23  C   UNL     1      25.261  40.882  48.979  1.00  0.00     0.009 A 
HETATM   24  C   UNL     1      24.065  41.072  48.289  1.00  0.00     0.001 A 
HETATM   25  C   UNL     1      23.151  42.012  48.744  1.00  0.00     0.002 A 
HETATM   26  C   UNL     1      23.420  42.733  49.909  1.00  0.00     0.030 A 
ENDBRANCH  17  20
ENDBRANCH  15  16
ENDBRANCH   1  15
TORSDOF 3
ENDMDL
MODEL 10
REMARK VINA RESULT:      -8.1      2.723      7.954
REMARK  3 active torsions:
REMARK  status: ('A' for Active; 'I' for Inactive)
REMARK    1  A    between atoms: C_3  and  N_4 
REMARK       I    between atoms: N_4  and  C_5 
REMARK    2  A    between atoms: C_5  and  C_6 
REMARK    3  A    between atoms: C_6  and  C_7 
ROOT
HETATM    1  C   UNL     1      26.781  45.568  53.385  1.00  0.00     0.286 C 
HETATM    2  N   UNL     1      27.941  44.570  53.271  1.00  0.00    -0.056 N 
HETATM    3  H   UNL     1      27.563  43.654  52.962  1.00  0.00     0.278 HD
HETATM    4  H   UNL     1      28.593  44.880  52.539  1.00  0.00     0.278 HD
HETATM    5  C   UNL     1      28.682  44.306  54.558  1.00  0.00     0.209 C 
HETATM    6  C   UNL     1      29.073  45.646  55.207  1.00  0.00     0.115 C 
HETATM    7  N   UNL     1      27.898  46.470  55.436  1.00  0.00    -0.353 N 
HETATM    8  C   UNL     1      26.808  46.503  54.613  1.00  0.00     0.249 C 
HETATM    9  O   UNL     1      25.866  47.243  54.881  1.00  0.00    -0.271 OA
HETATM   10  C   UNL     1      29.905  43.441  54.281  1.00  0.00     0.035 C 
HETATM   11  C   UNL     1      30.665  43.178  55.581  1.00  0.00     0.002 C 
HETATM   12  C   UNL     1      31.030  44.475  56.303  1.00  0.00     0.002 C 
HETATM   13  C   UNL     1      29.821  45.387  56.518  1.00  0.00     0.027 C 
HETATM   14  H   UNL     1      27.904  47.175  56.172  1.00  0.00     0.163 HD
ENDROOT
BRANCH   1  15
HETATM   15  C   UNL     1      25.415  44.877  53.283  1.00  0.00     0.146 C 
BRANCH  15  16
HETATM   16  C   UNL     1      25.245  44.354  51.885  1.00  0.00     0.224 C 
HETATM   17  N   UNL     1      24.941  43.014  51.807  1.00  0.00    -0.327 N 
HETATM   18  H   UNL     1      24.982  42.473  52.668  1.00  0.00     0.169 HD
HETATM   19  O   UNL     1      25.580  45.102  50.966  1.00  0.00    -0.273 OA
BRANCH  17  20
HETATM   20  C   UNL     1      24.928  42.237  50.622  1.00  0.00     0.040 A 
HETATM   21  C   UNL     1      24.000  42.363  49.573  1.00  0.00    -0.035 A 
HETATM   22  C   UNL     1      22.767  43.223  49.614  1.00  0.00     0.050 C 
HETATM   23  C   UNL     1      24.180  41.583  48.412  1.00  0.00     0.009 A 
HETATM   24  C   UNL     1      25.214  40.652  48.317  1.00  0.00     0.001 A 
HETATM   25  C   UNL     1      26.080  40.476  49.387  1.00  0.00     0.002 A 
HETATM   26  C   UNL     1      25.932  41.256  50.535  1.00  0.00     0.030 A 
ENDBRANCH  17  20
ENDBRANCH  15  16
ENDBRANCH   1  15
TORSDOF 3
ENDMDL
