MODEL 1
REMARK VINA RESULT:      -8.2      0.000      0.000
REMARK  5 active torsions:
REMARK  status: ('A' for Active; 'I' for Inactive)
REMARK    1  A    between atoms: C_2  and  O_3 
REMARK    2  A    between atoms: O_3  and  C_4 
REMARK    3  A    between atoms: C_6  and  C_7 
REMARK    4  A    between atoms: C_7  and  N_8 
REMARK       I    between atoms: N_8  and  C_9 
REMARK       I    between atoms: C_9  and  N_10 
REMARK    5  A    between atoms: N_10  and  C_11 
ROOT
HETATM    1  N   UNL     1      26.575  44.697  51.622  1.00  0.00    -0.335 N 
HETATM    2  C   UNL     1      26.603  45.558  50.568  1.00  0.00     0.321 C 
HETATM    3  N   UNL     1      26.219  46.842  50.824  1.00  0.00    -0.307 N 
HETATM    4  O   UNL     1      26.930  45.106  49.474  1.00  0.00    -0.247 OA
HETATM    5  H   UNL     1      26.899  43.784  51.325  1.00  0.00     0.165 HD
HETATM    6  H   UNL     1      25.707  46.980  51.676  1.00  0.00     0.170 HD
ENDROOT
BRANCH   1   7
HETATM    7  C   UNL     1      26.637  44.964  53.055  1.00  0.00     0.115 C 
HETATM    8  C   UNL     1      25.358  44.466  53.729  1.00  0.00     0.037 C 
BRANCH   7   9
HETATM    9  C   UNL     1      27.856  44.326  53.697  1.00  0.00    -0.033 A 
HETATM   10  C   UNL     1      28.649  45.018  54.630  1.00  0.00     0.046 A 
HETATM   11  C   UNL     1      29.794  44.439  55.188  1.00  0.00     0.069 A 
HETATM   12  C   UNL     1      30.166  43.153  54.803  1.00  0.00     0.037 A 
HETATM   13  C   UNL     1      29.394  42.453  53.872  1.00  0.00     0.003 A 
HETATM   14  C   UNL     1      28.249  43.033  53.324  1.00  0.00     0.009 A 
BRANCH  11  15
HETATM   15  O   UNL     1      30.453  45.236  56.082  1.00  0.00    -0.352 OA
BRANCH  15  16
HETATM   16  C   UNL     1      29.668  45.877  57.086  1.00  0.00     0.171 C 
HETATM   17  C   UNL     1      30.419  45.776  58.401  1.00  0.00     0.034 C 
ENDBRANCH  15  16
ENDBRANCH  11  15
ENDBRANCH   7   9
ENDBRANCH   1   7
BRANCH   3  18
HETATM   18  C   UNL     1      26.229  47.925  49.911  1.00  0.00     0.059 A 
HETATM   19  C   UNL     1      25.017  48.367  49.347  1.00  0.00    -0.032 A 
HETATM   20  C   UNL     1      23.695  47.724  49.662  1.00  0.00     0.050 C 
HETATM   21  C   UNL     1      25.043  49.443  48.447  1.00  0.00     0.028 A 
HETATM   22  C   UNL     1      26.253  50.043  48.145  1.00  0.00     0.117 A 
HETATM   23  N   UNL     1      27.427  49.653  48.673  1.00  0.00    -0.271 NA
HETATM   24  C   UNL     1      27.390  48.607  49.539  1.00  0.00     0.146 A 
ENDBRANCH   3  18
TORSDOF 5
ENDMDL
MODEL 2
REMARK VINA RESULT:      -7.8      1.968      2.776
REMARK  5 active torsions:
REMARK  status: ('A' for Active; 'I' for Inactive)
REMARK    1  A    between atoms: C_2  and  O_3 
REMARK    2  A    between atoms: O_3  and  C_4 
REMARK    3  A    between atoms: C_6  and  C_7 
REMARK    4  A    between atoms: C_7  and  N_8 
REMARK       I    between atoms: N_8  and  C_9 
REMARK       I    between atoms: C_9  and  N_10 
REMARK    5  A    between atoms: N_10  and  C_11 
ROOT
HETATM    1  N   UNL     1      27.461  43.961  51.448  1.00  0.00    -0.335 N 
HETATM    2  C   UNL     1      26.824  44.833  50.618  1.00  0.00     0.321 C 
HETATM    3  N   UNL     1      25.524  45.117  50.920  1.00  0.00    -0.307 N 
HETATM    4  O   UNL     1      27.451  45.257  49.652  1.00  0.00    -0.247 OA
HETATM    5  H   UNL     1      28.420  43.841  51.146  1.00  0.00     0.165 HD
HETATM    6  H   UNL     1      25.074  44.477  51.550  1.00  0.00     0.170 HD
ENDROOT
BRANCH   1   7
HETATM    7  C   UNL     1      27.178  43.608  52.836  1.00  0.00     0.115 C 
HETATM    8  C   UNL     1      27.753  42.226  53.145  1.00  0.00     0.037 C 
BRANCH   7   9
HETATM    9  C   UNL     1      27.729  44.639  53.805  1.00  0.00    -0.033 A 
HETATM   10  C   UNL     1      28.894  44.400  54.556  1.00  0.00     0.046 A 
HETATM   11  C   UNL     1      29.375  45.338  55.477  1.00  0.00     0.069 A 
HETATM   12  C   UNL     1      28.679  46.529  55.666  1.00  0.00     0.037 A 
HETATM   13  C   UNL     1      27.516  46.781  54.934  1.00  0.00     0.003 A 
HETATM   14  C   UNL     1      27.045  45.845  54.010  1.00  0.00     0.009 A 
BRANCH  11  15
HETATM   15  O   UNL     1      30.519  44.961  56.123  1.00  0.00    -0.352 OA
BRANCH  15  16
HETATM   16  C   UNL     1      30.978  43.627  55.911  1.00  0.00     0.171 C 
HETATM   17  C   UNL     1      31.708  43.179  57.165  1.00  0.00     0.034 C 
ENDBRANCH  15  16
ENDBRANCH  11  15
ENDBRANCH   7   9
ENDBRANCH   1   7
BRANCH   3  18
HETATM   18  C   UNL     1      24.683  46.038  50.249  1.00  0.00     0.059 A 
HETATM   19  C   UNL     1      23.726  45.560  49.332  1.00  0.00    -0.032 A 
HETATM   20  C   UNL     1      23.564  44.100  49.018  1.00  0.00     0.050 C 
HETATM   21  C   UNL     1      22.898  46.485  48.678  1.00  0.00     0.028 A 
HETATM   22  C   UNL     1      23.038  47.834  48.956  1.00  0.00     0.117 A 
HETATM   23  N   UNL     1      23.933  48.322  49.832  1.00  0.00    -0.271 NA
HETATM   24  C   UNL     1      24.732  47.418  50.456  1.00  0.00     0.146 A 
ENDBRANCH   3  18
TORSDOF 5
ENDMDL
MODEL 3
REMARK VINA RESULT:      -7.8      2.045      2.946
REMARK  5 active torsions:
REMARK  status: ('A' for Active; 'I' for Inactive)
REMARK    1  A    between atoms: C_2  and  O_3 
REMARK    2  A    between atoms: O_3  and  C_4 
REMARK    3  A    between atoms: C_6  and  C_7 
REMARK    4  A    between atoms: C_7  and  N_8 
REMARK       I    between atoms: N_8  and  C_9 
REMARK       I    between atoms: C_9  and  N_10 
REMARK    5  A    between atoms: N_10  and  C_11 
ROOT
HETATM    1  N   UNL     1      27.856  43.296  51.784  1.00  0.00    -0.335 N 
HETATM    2  C   UNL     1      27.266  44.255  51.018  1.00  0.00     0.321 C 
HETATM    3  N   UNL     1      25.997  44.615  51.369  1.00  0.00    -0.307 N 
HETATM    4  O   UNL     1      27.900  44.685  50.060  1.00  0.00    -0.247 OA
HETATM    5  H   UNL     1      28.797  43.124  51.450  1.00  0.00     0.165 HD
HETATM    6  H   UNL     1      25.517  43.976  51.976  1.00  0.00     0.170 HD
ENDROOT
BRANCH   1   7
HETATM    7  C   UNL     1      27.579  42.889  53.158  1.00  0.00     0.115 C 
HETATM    8  C   UNL     1      27.885  41.401  53.327  1.00  0.00     0.037 C 
BRANCH   7   9
HETATM    9  C   UNL     1      28.372  43.709  54.161  1.00  0.00    -0.033 A 
HETATM   10  C   UNL     1      27.895  44.937  54.654  1.00  0.00     0.046 A 
HETATM   11  C   UNL     1      28.647  45.707  55.548  1.00  0.00     0.069 A 
HETATM   12  C   UNL     1      29.903  45.257  55.948  1.00  0.00     0.037 A 
HETATM   13  C   UNL     1      30.396  44.044  55.463  1.00  0.00     0.003 A 
HETATM   14  C   UNL     1      29.638  43.275  54.578  1.00  0.00     0.009 A 
BRANCH  11  15
HETATM   15  O   UNL     1      28.044  46.871  55.939  1.00  0.00    -0.352 OA
BRANCH  15  16
HETATM   16  C   UNL     1      27.098  47.448  55.042  1.00  0.00     0.171 C 
HETATM   17  C   UNL     1      26.433  48.614  55.750  1.00  0.00     0.034 C 
ENDBRANCH  15  16
ENDBRANCH  11  15
ENDBRANCH   7   9
ENDBRANCH   1   7
BRANCH   3  18
HETATM   18  C   UNL     1      25.210  45.629  50.770  1.00  0.00     0.059 A 
HETATM   19  C   UNL     1      24.277  45.283  49.773  1.00  0.00    -0.032 A 
HETATM   20  C   UNL     1      24.085  43.870  49.299  1.00  0.00     0.050 C 
HETATM   21  C   UNL     1      23.503  46.298  49.192  1.00  0.00     0.028 A 
HETATM   22  C   UNL     1      23.671  47.604  49.617  1.00  0.00     0.117 A 
HETATM   23  N   UNL     1      24.545  47.968  50.572  1.00  0.00    -0.271 NA
HETATM   24  C   UNL     1      25.292  46.977  51.124  1.00  0.00     0.146 A 
ENDBRANCH   3  18
TORSDOF 5
ENDMDL
MODEL 4
REMARK VINA RESULT:      -7.7      3.898      5.004
REMARK  5 active torsions:
REMARK  status: ('A' for Active; 'I' for Inactive)
REMARK    1  A    between atoms: C_2  and  O_3 
REMARK    2  A    between atoms: O_3  and  C_4 
REMARK    3  A    between atoms: C_6  and  C_7 
REMARK    4  A    between atoms: C_7  and  N_8 
REMARK       I    between atoms: N_8  and  C_9 
REMARK       I    between atoms: C_9  and  N_10 
REMARK    5  A    between atoms: N_10  and  C_11 
ROOT
HETATM    1  N   UNL     1      28.057  43.140  51.980  1.00  0.00    -0.335 N 
HETATM    2  C   UNL     1      27.128  43.150  50.985  1.00  0.00     0.321 C 
HETATM    3  N   UNL     1      26.129  42.226  51.081  1.00  0.00    -0.307 N 
HETATM    4  O   UNL     1      27.286  43.952  50.070  1.00  0.00    -0.247 OA
HETATM    5  H   UNL     1      28.735  43.876  51.822  1.00  0.00     0.165 HD
HETATM    6  H   UNL     1      26.300  41.463  51.711  1.00  0.00     0.170 HD
ENDROOT
BRANCH   1   7
HETATM    7  C   UNL     1      27.963  42.641  53.348  1.00  0.00     0.115 C 
HETATM    8  C   UNL     1      28.472  41.200  53.408  1.00  0.00     0.037 C 
BRANCH   7   9
HETATM    9  C   UNL     1      28.732  43.515  54.323  1.00  0.00    -0.033 A 
HETATM   10  C   UNL     1      28.252  44.774  54.726  1.00  0.00     0.046 A 
HETATM   11  C   UNL     1      28.984  45.591  55.594  1.00  0.00     0.069 A 
HETATM   12  C   UNL     1      30.222  45.158  56.060  1.00  0.00     0.037 A 
HETATM   13  C   UNL     1      30.719  43.913  55.665  1.00  0.00     0.003 A 
HETATM   14  C   UNL     1      29.981  43.097  54.805  1.00  0.00     0.009 A 
BRANCH  11  15
HETATM   15  O   UNL     1      28.380  46.781  55.895  1.00  0.00    -0.352 OA
BRANCH  15  16
HETATM   16  C   UNL     1      27.680  47.441  54.842  1.00  0.00     0.171 C 
HETATM   17  C   UNL     1      26.568  48.266  55.466  1.00  0.00     0.034 C 
ENDBRANCH  15  16
ENDBRANCH  11  15
ENDBRANCH   7   9
ENDBRANCH   1   7
BRANCH   3  18
HETATM   18  C   UNL     1      25.021  42.087  50.209  1.00  0.00     0.059 A 
HETATM   19  C   UNL     1      25.087  41.165  49.146  1.00  0.00    -0.032 A 
HETATM   20  C   UNL     1      26.302  40.321  48.880  1.00  0.00     0.050 C 
HETATM   21  C   UNL     1      23.981  41.037  48.293  1.00  0.00     0.028 A 
HETATM   22  C   UNL     1      22.855  41.810  48.524  1.00  0.00     0.117 A 
HETATM   23  N   UNL     1      22.755  42.691  49.535  1.00  0.00    -0.271 NA
HETATM   24  C   UNL     1      23.834  42.810  50.351  1.00  0.00     0.146 A 
ENDBRANCH   3  18
TORSDOF 5
ENDMDL
MODEL 5
REMARK VINA RESULT:      -7.3     11.915     14.098
REMARK  5 active torsions:
REMARK  status: ('A' for Active; 'I' for Inactive)
REMARK    1  A    between atoms: C_2  and  O_3 
REMARK    2  A    between atoms: O_3  and  C_4 
REMARK    3  A    between atoms: C_6  and  C_7 
REMARK    4  A    between atoms: C_7  and  N_8 
REMARK       I    between atoms: N_8  and  C_9 
REMARK       I    between atoms: C_9  and  N_10 
REMARK    5  A    between atoms: N_10  and  C_11 
ROOT
HETATM    1  N   UNL     1      35.052  51.560  39.911  1.00  0.00    -0.335 N 
HETATM    2  C   UNL     1      33.933  52.109  39.365  1.00  0.00     0.321 C 
HETATM    3  N   UNL     1      32.800  51.349  39.410  1.00  0.00    -0.307 N 
HETATM    4  O   UNL     1      34.040  53.215  38.844  1.00  0.00    -0.247 OA
HETATM    5  H   UNL     1      35.822  52.215  39.843  1.00  0.00     0.165 HD
HETATM    6  H   UNL     1      32.940  50.372  39.594  1.00  0.00     0.170 HD
ENDROOT
BRANCH   1   7
HETATM    7  C   UNL     1      35.188  50.513  40.919  1.00  0.00     0.115 C 
HETATM    8  C   UNL     1      36.606  50.531  41.493  1.00  0.00     0.037 C 
BRANCH   7   9
HETATM    9  C   UNL     1      34.166  50.664  42.032  1.00  0.00    -0.033 A 
HETATM   10  C   UNL     1      33.049  49.815  42.131  1.00  0.00     0.046 A 
HETATM   11  C   UNL     1      32.090  49.984  43.135  1.00  0.00     0.069 A 
HETATM   12  C   UNL     1      32.234  51.023  44.050  1.00  0.00     0.037 A 
HETATM   13  C   UNL     1      33.333  51.880  43.964  1.00  0.00     0.003 A 
HETATM   14  C   UNL     1      34.292  51.703  42.965  1.00  0.00     0.009 A 
BRANCH  11  15
HETATM   15  O   UNL     1      31.067  49.075  43.100  1.00  0.00    -0.352 OA
BRANCH  15  16
HETATM   16  C   UNL     1      30.453  48.835  41.835  1.00  0.00     0.171 C 
HETATM   17  C   UNL     1      29.278  49.785  41.698  1.00  0.00     0.034 C 
ENDBRANCH  15  16
ENDBRANCH  11  15
ENDBRANCH   7   9
ENDBRANCH   1   7
BRANCH   3  18
HETATM   18  C   UNL     1      31.509  51.729  38.970  1.00  0.00     0.059 A 
HETATM   19  C   UNL     1      30.699  52.522  39.806  1.00  0.00    -0.032 A 
HETATM   20  C   UNL     1      31.141  52.978  41.168  1.00  0.00     0.050 C 
HETATM   21  C   UNL     1      29.423  52.894  39.355  1.00  0.00     0.028 A 
HETATM   22  C   UNL     1      29.001  52.479  38.103  1.00  0.00     0.117 A 
HETATM   23  N   UNL     1      29.753  51.730  37.277  1.00  0.00    -0.271 NA
HETATM   24  C   UNL     1      30.983  51.373  37.726  1.00  0.00     0.146 A 
ENDBRANCH   3  18
TORSDOF 5
ENDMDL
MODEL 6
REMARK VINA RESULT:      -7.2     11.954     13.931
REMARK  5 active torsions:
REMARK  status: ('A' for Active; 'I' for Inactive)
REMARK    1  A    between atoms: C_2  and  O_3 
REMARK    2  A    between atoms: O_3  and  C_4 
REMARK    3  A    between atoms: C_6  and  C_7 
REMARK    4  A    between atoms: C_7  and  N_8 
REMARK       I    between atoms: N_8  and  C_9 
REMARK       I    between atoms: C_9  and  N_10 
REMARK    5  A    between atoms: N_10  and  C_11 
ROOT
HETATM    1  N   UNL     1      31.683  47.295  40.009  1.00  0.00    -0.335 N 
HETATM    2  C   UNL     1      32.567  47.872  40.868  1.00  0.00     0.321 C 
HETATM    3  N   UNL     1      32.894  49.174  40.618  1.00  0.00    -0.307 N 
HETATM    4  O   UNL     1      33.026  47.172  41.766  1.00  0.00    -0.247 OA
HETATM    5  H   UNL     1      31.497  46.343  40.300  1.00  0.00     0.165 HD
HETATM    6  H   UNL     1      32.672  49.508  39.698  1.00  0.00     0.170 HD
ENDROOT
BRANCH   1   7
HETATM    7  C   UNL     1      30.684  47.906  39.139  1.00  0.00     0.115 C 
HETATM    8  C   UNL     1      29.835  46.817  38.482  1.00  0.00     0.037 C 
BRANCH   7   9
HETATM    9  C   UNL     1      29.799  48.883  39.893  1.00  0.00    -0.033 A 
HETATM   10  C   UNL     1      29.666  50.224  39.490  1.00  0.00     0.046 A 
HETATM   11  C   UNL     1      28.881  51.129  40.212  1.00  0.00     0.069 A 
HETATM   12  C   UNL     1      28.226  50.699  41.364  1.00  0.00     0.037 A 
HETATM   13  C   UNL     1      28.351  49.372  41.783  1.00  0.00     0.003 A 
HETATM   14  C   UNL     1      29.130  48.471  41.054  1.00  0.00     0.009 A 
BRANCH  11  15
HETATM   15  O   UNL     1      28.849  52.393  39.690  1.00  0.00    -0.352 OA
BRANCH  15  16
HETATM   16  C   UNL     1      29.165  53.470  40.571  1.00  0.00     0.171 C 
HETATM   17  C   UNL     1      30.678  53.561  40.672  1.00  0.00     0.034 C 
ENDBRANCH  15  16
ENDBRANCH  11  15
ENDBRANCH   7   9
ENDBRANCH   1   7
BRANCH   3  18
HETATM   18  C   UNL     1      33.733  50.000  41.405  1.00  0.00     0.059 A 
HETATM   19  C   UNL     1      33.186  50.708  42.492  1.00  0.00    -0.032 A 
HETATM   20  C   UNL     1      31.729  50.638  42.854  1.00  0.00     0.050 C 
HETATM   21  C   UNL     1      34.031  51.520  43.263  1.00  0.00     0.028 A 
HETATM   22  C   UNL     1      35.375  51.597  42.941  1.00  0.00     0.117 A 
HETATM   23  N   UNL     1      35.932  50.927  41.916  1.00  0.00    -0.271 NA
HETATM   24  C   UNL     1      35.103  50.148  41.174  1.00  0.00     0.146 A 
ENDBRANCH   3  18
TORSDOF 5
ENDMDL
MODEL 7
REMARK VINA RESULT:      -7.2      2.555      3.791
REMARK  5 active torsions:
REMARK  status: ('A' for Active; 'I' for Inactive)
REMARK    1  A    between atoms: C_2  and  O_3 
REMARK    2  A    between atoms: O_3  and  C_4 
REMARK    3  A    between atoms: C_6  and  C_7 
REMARK    4  A    between atoms: C_7  and  N_8 
REMARK       I    between atoms: N_8  and  C_9 
REMARK       I    between atoms: C_9  and  N_10 
REMARK    5  A    between atoms: N_10  and  C_11 
ROOT
HETATM    1  N   UNL     1      25.692  47.050  50.820  1.00  0.00    -0.335 N 
HETATM    2  C   UNL     1      25.024  47.923  50.017  1.00  0.00     0.321 C 
HETATM    3  N   UNL     1      23.666  47.793  49.978  1.00  0.00    -0.307 N 
HETATM    4  O   UNL     1      25.692  48.722  49.367  1.00  0.00    -0.247 OA
HETATM    5  H   UNL     1      26.685  47.250  50.790  1.00  0.00     0.165 HD
HETATM    6  H   UNL     1      23.303  46.923  50.323  1.00  0.00     0.170 HD
ENDROOT
BRANCH   1   7
HETATM    7  C   UNL     1      25.226  46.294  51.978  1.00  0.00     0.115 C 
HETATM    8  C   UNL     1      24.772  44.902  51.536  1.00  0.00     0.037 C 
BRANCH   7   9
HETATM    9  C   UNL     1      26.296  46.185  53.050  1.00  0.00    -0.033 A 
HETATM   10  C   UNL     1      26.904  44.957  53.367  1.00  0.00     0.046 A 
HETATM   11  C   UNL     1      27.861  44.856  54.383  1.00  0.00     0.069 A 
HETATM   12  C   UNL     1      28.210  45.993  55.108  1.00  0.00     0.037 A 
HETATM   13  C   UNL     1      27.612  47.220  54.812  1.00  0.00     0.003 A 
HETATM   14  C   UNL     1      26.663  47.316  53.792  1.00  0.00     0.009 A 
BRANCH  11  15
HETATM   15  O   UNL     1      28.363  43.597  54.565  1.00  0.00    -0.352 OA
BRANCH  15  16
HETATM   16  C   UNL     1      29.781  43.448  54.520  1.00  0.00     0.171 C 
HETATM   17  C   UNL     1      30.143  42.838  53.178  1.00  0.00     0.034 C 
ENDBRANCH  15  16
ENDBRANCH  11  15
ENDBRANCH   7   9
ENDBRANCH   1   7
BRANCH   3  18
HETATM   18  C   UNL     1      22.757  48.621  49.274  1.00  0.00     0.059 A 
HETATM   19  C   UNL     1      21.981  48.070  48.236  1.00  0.00    -0.032 A 
HETATM   20  C   UNL     1      22.084  46.629  47.824  1.00  0.00     0.050 C 
HETATM   21  C   UNL     1      21.084  48.902  47.550  1.00  0.00     0.028 A 
HETATM   22  C   UNL     1      20.980  50.233  47.916  1.00  0.00     0.117 A 
HETATM   23  N   UNL     1      21.699  50.788  48.909  1.00  0.00    -0.271 NA
HETATM   24  C   UNL     1      22.567  49.974  49.562  1.00  0.00     0.146 A 
ENDBRANCH   3  18
TORSDOF 5
ENDMDL
MODEL 8
REMARK VINA RESULT:      -7.0      6.052     10.933
REMARK  5 active torsions:
REMARK  status: ('A' for Active; 'I' for Inactive)
REMARK    1  A    between atoms: C_2  and  O_3 
REMARK    2  A    between atoms: O_3  and  C_4 
REMARK    3  A    between atoms: C_6  and  C_7 
REMARK    4  A    between atoms: C_7  and  N_8 
REMARK       I    between atoms: N_8  and  C_9 
REMARK       I    between atoms: C_9  and  N_10 
REMARK    5  A    between atoms: N_10  and  C_11 
ROOT
HETATM    1  N   UNL     1      20.740  49.782  49.851  1.00  0.00    -0.335 N 
HETATM    2  C   UNL     1      22.078  50.031  49.802  1.00  0.00     0.321 C 
HETATM    3  N   UNL     1      22.833  49.145  49.090  1.00  0.00    -0.307 N 
HETATM    4  O   UNL     1      22.498  50.998  50.429  1.00  0.00    -0.247 OA
HETATM    5  H   UNL     1      20.277  50.509  50.383  1.00  0.00     0.165 HD
HETATM    6  H   UNL     1      22.397  48.263  48.891  1.00  0.00     0.170 HD
ENDROOT
BRANCH   1   7
HETATM    7  C   UNL     1      19.894  49.015  48.943  1.00  0.00     0.115 C 
HETATM    8  C   UNL     1      19.048  48.022  49.740  1.00  0.00     0.037 C 
BRANCH   7   9
HETATM    9  C   UNL     1      19.003  49.915  48.105  1.00  0.00    -0.033 A 
HETATM   10  C   UNL     1      17.819  50.473  48.621  1.00  0.00     0.046 A 
HETATM   11  C   UNL     1      16.982  51.269  47.832  1.00  0.00     0.069 A 
HETATM   12  C   UNL     1      17.318  51.504  46.501  1.00  0.00     0.037 A 
HETATM   13  C   UNL     1      18.486  50.953  45.969  1.00  0.00     0.003 A 
HETATM   14  C   UNL     1      19.322  50.165  46.763  1.00  0.00     0.009 A 
BRANCH  11  15
HETATM   15  O   UNL     1      15.874  51.742  48.481  1.00  0.00    -0.352 OA
BRANCH  15  16
HETATM   16  C   UNL     1      16.077  52.362  49.749  1.00  0.00     0.171 C 
HETATM   17  C   UNL     1      14.725  52.818  50.267  1.00  0.00     0.034 C 
ENDBRANCH  15  16
ENDBRANCH  11  15
ENDBRANCH   7   9
ENDBRANCH   1   7
BRANCH   3  18
HETATM   18  C   UNL     1      24.225  49.230  48.841  1.00  0.00     0.059 A 
HETATM   19  C   UNL     1      25.107  48.388  49.546  1.00  0.00    -0.032 A 
HETATM   20  C   UNL     1      24.634  47.399  50.574  1.00  0.00     0.050 C 
HETATM   21  C   UNL     1      26.482  48.481  49.287  1.00  0.00     0.028 A 
HETATM   22  C   UNL     1      26.933  49.389  48.344  1.00  0.00     0.117 A 
HETATM   23  N   UNL     1      26.118  50.201  47.646  1.00  0.00    -0.271 NA
HETATM   24  C   UNL     1      24.789  50.104  47.910  1.00  0.00     0.146 A 
ENDBRANCH   3  18
TORSDOF 5
ENDMDL
MODEL 9
REMARK VINA RESULT:      -7.0      2.247      3.175
REMARK  5 active torsions:
REMARK  status: ('A' for Active; 'I' for Inactive)
REMARK    1  A    between atoms: C_2  and  O_3 
REMARK    2  A    between atoms: O_3  and  C_4 
REMARK    3  A    between atoms: C_6  and  C_7 
REMARK    4  A    between atoms: C_7  and  N_8 
REMARK       I    between atoms: N_8  and  C_9 
REMARK       I    between atoms: C_9  and  N_10 
REMARK    5  A    between atoms: N_10  and  C_11 
ROOT
HETATM    1  N   UNL     1      26.856  43.470  52.237  1.00  0.00    -0.335 N 
HETATM    2  C   UNL     1      26.037  43.594  51.157  1.00  0.00     0.321 C 
HETATM    3  N   UNL     1      24.866  44.265  51.358  1.00  0.00    -0.307 N 
HETATM    4  O   UNL     1      26.394  43.063  50.110  1.00  0.00    -0.247 OA
HETATM    5  H   UNL     1      27.700  42.978  51.970  1.00  0.00     0.165 HD
HETATM    6  H   UNL     1      24.588  44.376  52.317  1.00  0.00     0.170 HD
ENDROOT
BRANCH   1   7
HETATM    7  C   UNL     1      26.941  44.279  53.449  1.00  0.00     0.115 C 
HETATM    8  C   UNL     1      25.762  43.959  54.368  1.00  0.00     0.037 C 
BRANCH   7   9
HETATM    9  C   UNL     1      28.255  44.064  54.180  1.00  0.00    -0.033 A 
HETATM   10  C   UNL     1      28.827  45.066  54.985  1.00  0.00     0.046 A 
HETATM   11  C   UNL     1      30.056  44.876  55.625  1.00  0.00     0.069 A 
HETATM   12  C   UNL     1      30.739  43.675  55.451  1.00  0.00     0.037 A 
HETATM   13  C   UNL     1      30.190  42.670  54.650  1.00  0.00     0.003 A 
HETATM   14  C   UNL     1      28.958  42.862  54.020  1.00  0.00     0.009 A 
BRANCH  11  15
HETATM   15  O   UNL     1      30.475  45.941  56.375  1.00  0.00    -0.352 OA
BRANCH  15  16
HETATM   16  C   UNL     1      30.291  45.855  57.787  1.00  0.00     0.171 C 
HETATM   17  C   UNL     1      28.833  46.152  58.086  1.00  0.00     0.034 C 
ENDBRANCH  15  16
ENDBRANCH  11  15
ENDBRANCH   7   9
ENDBRANCH   1   7
BRANCH   3  18
HETATM   18  C   UNL     1      23.891  44.577  50.379  1.00  0.00     0.059 A 
HETATM   19  C   UNL     1      23.908  45.844  49.765  1.00  0.00    -0.032 A 
HETATM   20  C   UNL     1      24.916  46.902  50.116  1.00  0.00     0.050 C 
HETATM   21  C   UNL     1      22.938  46.137  48.794  1.00  0.00     0.028 A 
HETATM   22  C   UNL     1      22.001  45.174  48.462  1.00  0.00     0.117 A 
HETATM   23  N   UNL     1      21.963  43.951  49.022  1.00  0.00    -0.271 NA
HETATM   24  C   UNL     1      22.903  43.682  49.963  1.00  0.00     0.146 A 
ENDBRANCH   3  18
TORSDOF 5
ENDMDL
MODEL 10
REMARK VINA RESULT:      -6.8     15.726     17.456
REMARK  5 active torsions:
REMARK  status: ('A' for Active; 'I' for Inactive)
REMARK    1  A    between atoms: C_2  and  O_3 
REMARK    2  A    between atoms: O_3  and  C_4 
REMARK    3  A    between atoms: C_6  and  C_7 
REMARK    4  A    between atoms: C_7  and  N_8 
REMARK       I    between atoms: N_8  and  C_9 
REMARK       I    between atoms: C_9  and  N_10 
REMARK    5  A    between atoms: N_10  and  C_11 
ROOT
HETATM    1  N   UNL     1      36.115  43.905  64.470  1.00  0.00    -0.335 N 
HETATM    2  C   UNL     1      36.845  45.047  64.343  1.00  0.00     0.321 C 
HETATM    3  N   UNL     1      37.763  45.291  65.324  1.00  0.00    -0.307 N 
HETATM    4  O   UNL     1      36.595  45.778  63.389  1.00  0.00    -0.247 OA
HETATM    5  H   UNL     1      35.486  43.813  63.682  1.00  0.00     0.165 HD
HETATM    6  H   UNL     1      37.642  44.767  66.172  1.00  0.00     0.170 HD
ENDROOT
BRANCH   1   7
HETATM    7  C   UNL     1      36.411  42.676  65.199  1.00  0.00     0.115 C 
HETATM    8  C   UNL     1      35.123  41.885  65.424  1.00  0.00     0.037 C 
BRANCH   7   9
HETATM    9  C   UNL     1      37.437  41.822  64.474  1.00  0.00    -0.033 A 
HETATM   10  C   UNL     1      37.974  40.659  65.054  1.00  0.00     0.046 A 
HETATM   11  C   UNL     1      38.948  39.898  64.398  1.00  0.00     0.069 A 
HETATM   12  C   UNL     1      39.407  40.307  63.148  1.00  0.00     0.037 A 
HETATM   13  C   UNL     1      38.889  41.463  62.559  1.00  0.00     0.003 A 
HETATM   14  C   UNL     1      37.912  42.214  63.215  1.00  0.00     0.009 A 
BRANCH  11  15
HETATM   15  O   UNL     1      39.365  38.794  65.090  1.00  0.00    -0.352 OA
BRANCH  15  16
HETATM   16  C   UNL     1      40.707  38.797  65.572  1.00  0.00     0.171 C 
HETATM   17  C   UNL     1      40.681  38.368  67.028  1.00  0.00     0.034 C 
ENDBRANCH  15  16
ENDBRANCH  11  15
ENDBRANCH   7   9
ENDBRANCH   1   7
BRANCH   3  18
HETATM   18  C   UNL     1      38.678  46.371  65.374  1.00  0.00     0.059 A 
HETATM   19  C   UNL     1      39.920  46.257  64.719  1.00  0.00    -0.032 A 
HETATM   20  C   UNL     1      40.330  45.020  63.970  1.00  0.00     0.050 C 
HETATM   21  C   UNL     1      40.815  47.336  64.775  1.00  0.00     0.028 A 
HETATM   22  C   UNL     1      40.451  48.481  65.463  1.00  0.00     0.117 A 
HETATM   23  N   UNL     1      39.271  48.626  66.091  1.00  0.00    -0.271 NA
HETATM   24  C   UNL     1      38.415  47.573  66.034  1.00  0.00     0.146 A 
ENDBRANCH   3  18
TORSDOF 5
ENDMDL
