MODEL 1
REMARK VINA RESULT:      -8.5      0.000      0.000
REMARK  6 active torsions:
REMARK  status: ('A' for Active; 'I' for Inactive)
REMARK    1  A    between atoms: N_1  and  C_5 
REMARK    2  A    between atoms: C_5  and  C_6 
REMARK    3  A    between atoms: C_6  and  O_7 
REMARK    4  A    between atoms: C_6  and  C_8 
REMARK    5  A    between atoms: C_6  and  C_15 
REMARK    6  A    between atoms: C_18  and  C_21 
ROOT
HETATM    1  C   UNL     1      26.713  43.597  52.542  1.00  0.00     0.135 C 
ENDROOT
BRANCH   1   2
HETATM    2  C   UNL     1      26.762  42.343  51.604  1.00  0.00     0.277 C 
BRANCH   2   3
HETATM    3  N   UNL     1      25.361  41.953  51.222  1.00  0.00    -0.076 N 
HETATM    4  H   UNL     1      24.892  41.625  52.084  1.00  0.00     0.274 HD
HETATM    5  H   UNL     1      24.821  42.765  50.893  1.00  0.00     0.274 HD
HETATM    6  H   UNL     1      25.320  41.210  50.516  1.00  0.00     0.274 HD
ENDBRANCH   2   3
ENDBRANCH   1   2
BRANCH   1   7
HETATM    7  O   UNL     1      25.497  43.373  53.302  1.00  0.00    -0.378 OA
HETATM    8  H   UNL     1      24.872  44.095  53.093  1.00  0.00     0.211 HD
ENDBRANCH   1   7
BRANCH   1   9
HETATM    9  C   UNL     1      27.880  43.742  53.520  1.00  0.00    -0.018 A 
HETATM   10  C   UNL     1      27.982  44.795  54.445  1.00  0.00     0.012 A 
HETATM   11  C   UNL     1      29.080  44.888  55.310  1.00  0.00     0.024 A 
HETATM   12  C   UNL     1      30.090  43.931  55.265  1.00  0.00     0.034 A 
HETATM   13 CL   UNL     1      31.434  44.055  56.327  1.00  0.00    -0.084 Cl
HETATM   14  C   UNL     1      30.011  42.876  54.365  1.00  0.00     0.024 A 
HETATM   15  C   UNL     1      28.917  42.782  53.500  1.00  0.00     0.012 A 
ENDBRANCH   1   9
BRANCH   1  16
HETATM   16  C   UNL     1      26.532  44.839  51.655  1.00  0.00    -0.018 A 
HETATM   17  C   UNL     1      27.175  44.961  50.413  1.00  0.00     0.011 A 
HETATM   18  C   UNL     1      27.037  46.121  49.640  1.00  0.00     0.013 A 
HETATM   19  C   UNL     1      26.252  47.189  50.084  1.00  0.00    -0.023 A 
HETATM   20  C   UNL     1      25.588  47.065  51.309  1.00  0.00     0.013 A 
HETATM   21  C   UNL     1      25.721  45.906  52.083  1.00  0.00     0.011 A 
BRANCH  19  22
HETATM   22  C   UNL     1      26.126  48.388  49.275  1.00  0.00     0.010 A 
HETATM   23  C   UNL     1      27.112  49.252  48.742  1.00  0.00     0.152 A 
HETATM   24  N   UNL     1      26.590  50.278  48.068  1.00  0.00    -0.187 NA
HETATM   25  N   UNL     1      25.268  50.074  48.151  1.00  0.00    -0.289 N 
HETATM   26  H   UNL     1      24.649  50.739  47.697  1.00  0.00     0.188 HD
HETATM   27  C   UNL     1      24.936  48.959  48.870  1.00  0.00     0.123 A 
ENDBRANCH  19  22
ENDBRANCH   1  16
TORSDOF 6
ENDMDL
MODEL 2
REMARK VINA RESULT:      -7.8      2.048      2.799
REMARK  6 active torsions:
REMARK  status: ('A' for Active; 'I' for Inactive)
REMARK    1  A    between atoms: N_1  and  C_5 
REMARK    2  A    between atoms: C_5  and  C_6 
REMARK    3  A    between atoms: C_6  and  O_7 
REMARK    4  A    between atoms: C_6  and  C_8 
REMARK    5  A    between atoms: C_6  and  C_15 
REMARK    6  A    between atoms: C_18  and  C_21 
ROOT
HETATM    1  C   UNL     1      27.976  42.868  53.268  1.00  0.00     0.135 C 
ENDROOT
BRANCH   1   2
HETATM    2  C   UNL     1      28.860  42.048  52.268  1.00  0.00     0.277 C 
BRANCH   2   3
HETATM    3  N   UNL     1      28.597  40.580  52.462  1.00  0.00    -0.076 N 
HETATM    4  H   UNL     1      27.734  40.354  51.938  1.00  0.00     0.274 HD
HETATM    5  H   UNL     1      29.344  40.006  52.046  1.00  0.00     0.274 HD
HETATM    6  H   UNL     1      28.471  40.312  53.444  1.00  0.00     0.274 HD
ENDBRANCH   2   3
ENDBRANCH   1   2
BRANCH   1   7
HETATM    7  O   UNL     1      27.189  41.835  53.913  1.00  0.00    -0.378 OA
HETATM    8  H   UNL     1      26.388  42.252  54.287  1.00  0.00     0.211 HD
ENDBRANCH   1   7
BRANCH   1   9
HETATM    9  C   UNL     1      28.737  43.645  54.344  1.00  0.00    -0.018 A 
HETATM   10  C   UNL     1      29.978  43.231  54.859  1.00  0.00     0.012 A 
HETATM   11  C   UNL     1      30.627  43.974  55.853  1.00  0.00     0.024 A 
HETATM   12  C   UNL     1      30.048  45.140  56.347  1.00  0.00     0.034 A 
HETATM   13 CL   UNL     1      30.850  46.042  57.569  1.00  0.00    -0.084 Cl
HETATM   14  C   UNL     1      28.826  45.575  55.850  1.00  0.00     0.024 A 
HETATM   15  C   UNL     1      28.177  44.835  54.858  1.00  0.00     0.012 A 
ENDBRANCH   1   9
BRANCH   1  16
HETATM   16  C   UNL     1      27.046  43.770  52.441  1.00  0.00    -0.018 A 
HETATM   17  C   UNL     1      25.728  44.039  52.842  1.00  0.00     0.011 A 
HETATM   18  C   UNL     1      24.879  44.824  52.051  1.00  0.00     0.013 A 
HETATM   19  C   UNL     1      25.324  45.365  50.840  1.00  0.00    -0.023 A 
HETATM   20  C   UNL     1      26.644  45.122  50.446  1.00  0.00     0.013 A 
HETATM   21  C   UNL     1      27.496  44.340  51.235  1.00  0.00     0.011 A 
BRANCH  19  22
HETATM   22  C   UNL     1      24.429  46.170  50.029  1.00  0.00     0.010 A 
HETATM   23  C   UNL     1      24.254  47.573  49.959  1.00  0.00     0.152 A 
HETATM   24  N   UNL     1      23.298  47.933  49.101  1.00  0.00    -0.187 NA
HETATM   25  N   UNL     1      22.862  46.766  48.604  1.00  0.00    -0.289 N 
HETATM   26  H   UNL     1      22.120  46.787  47.911  1.00  0.00     0.188 HD
HETATM   27  C   UNL     1      23.500  45.680  49.133  1.00  0.00     0.123 A 
ENDBRANCH  19  22
ENDBRANCH   1  16
TORSDOF 6
ENDMDL
MODEL 3
REMARK VINA RESULT:      -7.7      3.818      7.091
REMARK  6 active torsions:
REMARK  status: ('A' for Active; 'I' for Inactive)
REMARK    1  A    between atoms: N_1  and  C_5 
REMARK    2  A    between atoms: C_5  and  C_6 
REMARK    3  A    between atoms: C_6  and  O_7 
REMARK    4  A    between atoms: C_6  and  C_8 
REMARK    5  A    between atoms: C_6  and  C_15 
REMARK    6  A    between atoms: C_18  and  C_21 
ROOT
HETATM    1  C   UNL     1      26.634  44.120  51.433  1.00  0.00     0.135 C 
ENDROOT
BRANCH   1   2
HETATM    2  C   UNL     1      25.314  43.447  51.945  1.00  0.00     0.277 C 
BRANCH   2   3
HETATM    3  N   UNL     1      24.939  42.323  51.019  1.00  0.00    -0.076 N 
HETATM    4  H   UNL     1      25.182  41.440  51.502  1.00  0.00     0.274 HD
HETATM    5  H   UNL     1      23.922  42.292  50.858  1.00  0.00     0.274 HD
HETATM    6  H   UNL     1      25.424  42.355  50.117  1.00  0.00     0.274 HD
ENDBRANCH   2   3
ENDBRANCH   1   2
BRANCH   1   7
HETATM    7  O   UNL     1      27.106  43.172  50.441  1.00  0.00    -0.378 OA
HETATM    8  H   UNL     1      28.080  43.124  50.507  1.00  0.00     0.211 HD
ENDBRANCH   1   7
BRANCH   1   9
HETATM    9  C   UNL     1      26.467  45.485  50.762  1.00  0.00    -0.018 A 
HETATM   10  C   UNL     1      27.417  46.031  49.882  1.00  0.00     0.012 A 
HETATM   11  C   UNL     1      27.220  47.292  49.305  1.00  0.00     0.024 A 
HETATM   12  C   UNL     1      26.073  48.025  49.597  1.00  0.00     0.034 A 
HETATM   13 CL   UNL     1      25.842  49.572  48.887  1.00  0.00    -0.084 Cl
HETATM   14  C   UNL     1      25.115  47.506  50.458  1.00  0.00     0.024 A 
HETATM   15  C   UNL     1      25.309  46.248  51.035  1.00  0.00     0.012 A 
ENDBRANCH   1   9
BRANCH   1  16
HETATM   16  C   UNL     1      27.626  44.160  52.606  1.00  0.00    -0.018 A 
HETATM   17  C   UNL     1      28.768  43.344  52.637  1.00  0.00     0.011 A 
HETATM   18  C   UNL     1      29.635  43.360  53.736  1.00  0.00     0.013 A 
HETATM   19  C   UNL     1      29.389  44.192  54.833  1.00  0.00    -0.023 A 
HETATM   20  C   UNL     1      28.266  45.026  54.798  1.00  0.00     0.013 A 
HETATM   21  C   UNL     1      27.399  45.015  53.700  1.00  0.00     0.011 A 
BRANCH  19  22
HETATM   22  C   UNL     1      30.294  44.190  55.968  1.00  0.00     0.010 A 
HETATM   23  C   UNL     1      31.249  43.233  56.388  1.00  0.00     0.152 A 
HETATM   24  N   UNL     1      31.872  43.585  57.514  1.00  0.00    -0.187 NA
HETATM   25  N   UNL     1      31.332  44.774  57.819  1.00  0.00    -0.289 N 
HETATM   26  H   UNL     1      31.659  45.251  58.653  1.00  0.00     0.188 HD
HETATM   27  C   UNL     1      30.375  45.177  56.929  1.00  0.00     0.123 A 
ENDBRANCH  19  22
ENDBRANCH   1  16
TORSDOF 6
ENDMDL
MODEL 4
REMARK VINA RESULT:      -7.4      6.789     10.355
REMARK  6 active torsions:
REMARK  status: ('A' for Active; 'I' for Inactive)
REMARK    1  A    between atoms: N_1  and  C_5 
REMARK    2  A    between atoms: C_5  and  C_6 
REMARK    3  A    between atoms: C_6  and  O_7 
REMARK    4  A    between atoms: C_6  and  C_8 
REMARK    5  A    between atoms: C_6  and  C_15 
REMARK    6  A    between atoms: C_18  and  C_21 
ROOT
HETATM    1  C   UNL     1      19.418  49.273  49.136  1.00  0.00     0.135 C 
ENDROOT
BRANCH   1   2
HETATM    2  C   UNL     1      19.054  49.552  50.634  1.00  0.00     0.277 C 
BRANCH   2   3
HETATM    3  N   UNL     1      18.743  48.251  51.320  1.00  0.00    -0.076 N 
HETATM    4  H   UNL     1      18.350  48.484  52.249  1.00  0.00     0.274 HD
HETATM    5  H   UNL     1      18.010  47.728  50.821  1.00  0.00     0.274 HD
HETATM    6  H   UNL     1      19.562  47.648  51.447  1.00  0.00     0.274 HD
ENDBRANCH   2   3
ENDBRANCH   1   2
BRANCH   1   7
HETATM    7  O   UNL     1      18.889  47.938  48.927  1.00  0.00    -0.378 OA
HETATM    8  H   UNL     1      18.779  47.803  47.965  1.00  0.00     0.211 HD
ENDBRANCH   1   7
BRANCH   1   9
HETATM    9  C   UNL     1      18.785  50.216  48.111  1.00  0.00    -0.018 A 
HETATM   10  C   UNL     1      17.969  51.304  48.468  1.00  0.00     0.012 A 
HETATM   11  C   UNL     1      17.403  52.129  47.488  1.00  0.00     0.024 A 
HETATM   12  C   UNL     1      17.644  51.882  46.139  1.00  0.00     0.034 A 
HETATM   13 CL   UNL     1      16.943  52.898  44.944  1.00  0.00    -0.084 Cl
HETATM   14  C   UNL     1      18.452  50.818  45.759  1.00  0.00     0.024 A 
HETATM   15  C   UNL     1      19.017  49.992  46.736  1.00  0.00     0.012 A 
ENDBRANCH   1   9
BRANCH   1  16
HETATM   16  C   UNL     1      20.951  49.231  49.026  1.00  0.00    -0.018 A 
HETATM   17  C   UNL     1      21.643  48.033  48.786  1.00  0.00     0.011 A 
HETATM   18  C   UNL     1      23.042  48.007  48.737  1.00  0.00     0.013 A 
HETATM   19  C   UNL     1      23.789  49.175  48.922  1.00  0.00    -0.023 A 
HETATM   20  C   UNL     1      23.105  50.376  49.136  1.00  0.00     0.013 A 
HETATM   21  C   UNL     1      21.707  50.407  49.183  1.00  0.00     0.011 A 
BRANCH  19  22
HETATM   22  C   UNL     1      25.239  49.128  48.875  1.00  0.00     0.010 A 
HETATM   23  C   UNL     1      26.160  48.304  49.564  1.00  0.00     0.152 A 
HETATM   24  N   UNL     1      27.430  48.590  49.271  1.00  0.00    -0.187 NA
HETATM   25  N   UNL     1      27.334  49.590  48.383  1.00  0.00    -0.289 N 
HETATM   26  H   UNL     1      28.191  49.980  48.004  1.00  0.00     0.188 HD
HETATM   27  C   UNL     1      26.043  49.956  48.119  1.00  0.00     0.123 A 
ENDBRANCH  19  22
ENDBRANCH   1  16
TORSDOF 6
ENDMDL
MODEL 5
REMARK VINA RESULT:      -7.3      2.256      2.941
REMARK  6 active torsions:
REMARK  status: ('A' for Active; 'I' for Inactive)
REMARK    1  A    between atoms: N_1  and  C_5 
REMARK    2  A    between atoms: C_5  and  C_6 
REMARK    3  A    between atoms: C_6  and  O_7 
REMARK    4  A    between atoms: C_6  and  C_8 
REMARK    5  A    between atoms: C_6  and  C_15 
REMARK    6  A    between atoms: C_18  and  C_21 
ROOT
HETATM    1  C   UNL     1      27.588  41.914  51.722  1.00  0.00     0.135 C 
ENDROOT
BRANCH   1   2
HETATM    2  C   UNL     1      28.372  41.217  50.559  1.00  0.00     0.277 C 
BRANCH   2   3
HETATM    3  N   UNL     1      28.634  39.782  50.927  1.00  0.00    -0.076 N 
HETATM    4  H   UNL     1      28.363  39.206  50.111  1.00  0.00     0.274 HD
HETATM    5  H   UNL     1      29.638  39.610  51.079  1.00  0.00     0.274 HD
HETATM    6  H   UNL     1      28.108  39.467  51.749  1.00  0.00     0.274 HD
ENDBRANCH   2   3
ENDBRANCH   1   2
BRANCH   1   7
HETATM    7  O   UNL     1      26.817  40.821  52.281  1.00  0.00    -0.378 OA
HETATM    8  H   UNL     1      26.265  40.442  51.568  1.00  0.00     0.211 HD
ENDBRANCH   1   7
BRANCH   1   9
HETATM    9  C   UNL     1      28.448  42.523  52.831  1.00  0.00    -0.018 A 
HETATM   10  C   UNL     1      29.840  42.341  52.913  1.00  0.00     0.012 A 
HETATM   11  C   UNL     1      30.578  42.911  53.958  1.00  0.00     0.024 A 
HETATM   12  C   UNL     1      29.940  43.671  54.934  1.00  0.00     0.034 A 
HETATM   13 CL   UNL     1      30.854  44.363  56.213  1.00  0.00    -0.084 Cl
HETATM   14  C   UNL     1      28.567  43.872  54.873  1.00  0.00     0.024 A 
HETATM   15  C   UNL     1      27.828  43.304  53.831  1.00  0.00     0.012 A 
ENDBRANCH   1   9
BRANCH   1  16
HETATM   16  C   UNL     1      26.630  42.939  51.093  1.00  0.00    -0.018 A 
HETATM   17  C   UNL     1      27.097  44.126  50.506  1.00  0.00     0.011 A 
HETATM   18  C   UNL     1      26.206  45.069  49.981  1.00  0.00     0.013 A 
HETATM   19  C   UNL     1      24.824  44.854  50.026  1.00  0.00    -0.023 A 
HETATM   20  C   UNL     1      24.353  43.663  50.587  1.00  0.00     0.013 A 
HETATM   21  C   UNL     1      25.241  42.715  51.109  1.00  0.00     0.011 A 
BRANCH  19  22
HETATM   22  C   UNL     1      23.914  45.847  49.484  1.00  0.00     0.010 A 
HETATM   23  C   UNL     1      22.746  45.699  48.699  1.00  0.00     0.152 A 
HETATM   24  N   UNL     1      22.193  46.868  48.369  1.00  0.00    -0.187 NA
HETATM   25  N   UNL     1      22.994  47.773  48.949  1.00  0.00    -0.289 N 
HETATM   26  H   UNL     1      22.767  48.756  48.839  1.00  0.00     0.188 HD
HETATM   27  C   UNL     1      24.044  47.214  49.623  1.00  0.00     0.123 A 
ENDBRANCH  19  22
ENDBRANCH   1  16
TORSDOF 6
ENDMDL
MODEL 6
REMARK VINA RESULT:      -7.2     11.639     12.993
REMARK  6 active torsions:
REMARK  status: ('A' for Active; 'I' for Inactive)
REMARK    1  A    between atoms: N_1  and  C_5 
REMARK    2  A    between atoms: C_5  and  C_6 
REMARK    3  A    between atoms: C_6  and  O_7 
REMARK    4  A    between atoms: C_6  and  C_8 
REMARK    5  A    between atoms: C_6  and  C_15 
REMARK    6  A    between atoms: C_18  and  C_21 
ROOT
HETATM    1  C   UNL     1      28.254  49.630  41.094  1.00  0.00     0.135 C 
ENDROOT
BRANCH   1   2
HETATM    2  C   UNL     1      27.648  50.776  40.214  1.00  0.00     0.277 C 
BRANCH   2   3
HETATM    3  N   UNL     1      26.207  50.463  39.916  1.00  0.00    -0.076 N 
HETATM    4  H   UNL     1      26.182  50.008  38.986  1.00  0.00     0.274 HD
HETATM    5  H   UNL     1      25.826  49.776  40.582  1.00  0.00     0.274 HD
HETATM    6  H   UNL     1      25.602  51.290  39.899  1.00  0.00     0.274 HD
ENDBRANCH   2   3
ENDBRANCH   1   2
BRANCH   1   7
HETATM    7  O   UNL     1      27.316  49.552  42.198  1.00  0.00    -0.378 OA
HETATM    8  H   UNL     1      27.816  49.665  43.031  1.00  0.00     0.211 HD
ENDBRANCH   1   7
BRANCH   1   9
HETATM    9  C   UNL     1      28.341  48.256  40.428  1.00  0.00    -0.018 A 
HETATM   10  C   UNL     1      27.773  47.095  40.982  1.00  0.00     0.012 A 
HETATM   11  C   UNL     1      27.892  45.858  40.337  1.00  0.00     0.024 A 
HETATM   12  C   UNL     1      28.579  45.761  39.130  1.00  0.00     0.034 A 
HETATM   13 CL   UNL     1      28.723  44.239  38.347  1.00  0.00    -0.084 Cl
HETATM   14  C   UNL     1      29.144  46.894  38.557  1.00  0.00     0.024 A 
HETATM   15  C   UNL     1      29.026  48.129  39.200  1.00  0.00     0.012 A 
ENDBRANCH   1   9
BRANCH   1  16
HETATM   16  C   UNL     1      29.615  50.114  41.622  1.00  0.00    -0.018 A 
HETATM   17  C   UNL     1      30.071  51.423  41.402  1.00  0.00     0.011 A 
HETATM   18  C   UNL     1      31.333  51.832  41.849  1.00  0.00     0.013 A 
HETATM   19  C   UNL     1      32.175  50.945  42.528  1.00  0.00    -0.023 A 
HETATM   20  C   UNL     1      31.718  49.646  42.773  1.00  0.00     0.013 A 
HETATM   21  C   UNL     1      30.455  49.235  42.331  1.00  0.00     0.011 A 
BRANCH  19  22
HETATM   22  C   UNL     1      33.485  51.382  42.977  1.00  0.00     0.010 A 
HETATM   23  C   UNL     1      34.754  51.286  42.359  1.00  0.00     0.152 A 
HETATM   24  N   UNL     1      35.736  51.784  43.113  1.00  0.00    -0.187 NA
HETATM   25  N   UNL     1      35.103  52.214  44.214  1.00  0.00    -0.289 N 
HETATM   26  H   UNL     1      35.657  52.645  44.948  1.00  0.00     0.188 HD
HETATM   27  C   UNL     1      33.755  51.989  44.187  1.00  0.00     0.123 A 
ENDBRANCH  19  22
ENDBRANCH   1  16
TORSDOF 6
ENDMDL
MODEL 7
REMARK VINA RESULT:      -7.2      7.327     10.283
REMARK  6 active torsions:
REMARK  status: ('A' for Active; 'I' for Inactive)
REMARK    1  A    between atoms: N_1  and  C_5 
REMARK    2  A    between atoms: C_5  and  C_6 
REMARK    3  A    between atoms: C_6  and  O_7 
REMARK    4  A    between atoms: C_6  and  C_8 
REMARK    5  A    between atoms: C_6  and  C_15 
REMARK    6  A    between atoms: C_18  and  C_21 
ROOT
HETATM    1  C   UNL     1      20.353  49.619  49.317  1.00  0.00     0.135 C 
ENDROOT
BRANCH   1   2
HETATM    2  C   UNL     1      19.788  48.159  49.383  1.00  0.00     0.277 C 
BRANCH   2   3
HETATM    3  N   UNL     1      19.041  47.974  50.675  1.00  0.00    -0.076 N 
HETATM    4  H   UNL     1      18.037  47.898  50.437  1.00  0.00     0.274 HD
HETATM    5  H   UNL     1      19.295  47.087  51.133  1.00  0.00     0.274 HD
HETATM    6  H   UNL     1      19.170  48.746  51.338  1.00  0.00     0.274 HD
ENDBRANCH   2   3
ENDBRANCH   1   2
BRANCH   1   7
HETATM    7  O   UNL     1      20.153  50.095  50.672  1.00  0.00    -0.378 OA
HETATM    8  H   UNL     1      20.636  50.940  50.771  1.00  0.00     0.211 HD
ENDBRANCH   1   7
BRANCH   1   9
HETATM    9  C   UNL     1      21.838  49.741  48.970  1.00  0.00    -0.018 A 
HETATM   10  C   UNL     1      22.403  50.896  48.402  1.00  0.00     0.012 A 
HETATM   11  C   UNL     1      23.767  50.951  48.092  1.00  0.00     0.024 A 
HETATM   12  C   UNL     1      24.588  49.855  48.345  1.00  0.00     0.034 A 
HETATM   13 CL   UNL     1      26.260  49.931  47.958  1.00  0.00    -0.084 Cl
HETATM   14  C   UNL     1      24.057  48.704  48.912  1.00  0.00     0.024 A 
HETATM   15  C   UNL     1      22.695  48.647  49.222  1.00  0.00     0.012 A 
ENDBRANCH   1   9
BRANCH   1  16
HETATM   16  C   UNL     1      19.459  50.425  48.361  1.00  0.00    -0.018 A 
HETATM   17  C   UNL     1      18.925  51.672  48.723  1.00  0.00     0.011 A 
HETATM   18  C   UNL     1      18.074  52.370  47.857  1.00  0.00     0.013 A 
HETATM   19  C   UNL     1      17.734  51.844  46.606  1.00  0.00    -0.023 A 
HETATM   20  C   UNL     1      18.282  50.614  46.229  1.00  0.00     0.013 A 
HETATM   21  C   UNL     1      19.136  49.915  47.090  1.00  0.00     0.011 A 
BRANCH  19  22
HETATM   22  C   UNL     1      16.844  52.577  45.725  1.00  0.00     0.010 A 
HETATM   23  C   UNL     1      17.089  53.216  44.486  1.00  0.00     0.152 A 
HETATM   24  N   UNL     1      16.006  53.818  43.991  1.00  0.00    -0.187 NA
HETATM   25  N   UNL     1      15.055  53.560  44.900  1.00  0.00    -0.289 N 
HETATM   26  H   UNL     1      14.121  53.920  44.735  1.00  0.00     0.188 HD
HETATM   27  C   UNL     1      15.508  52.827  45.963  1.00  0.00     0.123 A 
ENDBRANCH  19  22
ENDBRANCH   1  16
TORSDOF 6
ENDMDL
MODEL 8
REMARK VINA RESULT:      -6.8      4.766      7.058
REMARK  6 active torsions:
REMARK  status: ('A' for Active; 'I' for Inactive)
REMARK    1  A    between atoms: N_1  and  C_5 
REMARK    2  A    between atoms: C_5  and  C_6 
REMARK    3  A    between atoms: C_6  and  O_7 
REMARK    4  A    between atoms: C_6  and  C_8 
REMARK    5  A    between atoms: C_6  and  C_15 
REMARK    6  A    between atoms: C_18  and  C_21 
ROOT
HETATM    1  C   UNL     1      26.871  41.944  50.700  1.00  0.00     0.135 C 
ENDROOT
BRANCH   1   2
HETATM    2  C   UNL     1      26.402  40.497  51.074  1.00  0.00     0.277 C 
BRANCH   2   3
HETATM    3  N   UNL     1      27.072  39.507  50.162  1.00  0.00    -0.076 N 
HETATM    4  H   UNL     1      27.660  38.897  50.757  1.00  0.00     0.274 HD
HETATM    5  H   UNL     1      26.385  38.889  49.708  1.00  0.00     0.274 HD
HETATM    6  H   UNL     1      27.662  39.943  49.445  1.00  0.00     0.274 HD
ENDBRANCH   2   3
ENDBRANCH   1   2
BRANCH   1   7
HETATM    7  O   UNL     1      27.737  41.710  49.560  1.00  0.00    -0.378 OA
HETATM    8  H   UNL     1      27.344  40.994  49.023  1.00  0.00     0.211 HD
ENDBRANCH   1   7
BRANCH   1   9
HETATM    9  C   UNL     1      25.764  42.914  50.281  1.00  0.00    -0.018 A 
HETATM   10  C   UNL     1      24.411  42.729  50.617  1.00  0.00     0.012 A 
HETATM   11  C   UNL     1      23.436  43.642  50.196  1.00  0.00     0.024 A 
HETATM   12  C   UNL     1      23.795  44.751  49.436  1.00  0.00     0.034 A 
HETATM   13 CL   UNL     1      22.591  45.863  48.922  1.00  0.00    -0.084 Cl
HETATM   14  C   UNL     1      25.125  44.962  49.097  1.00  0.00     0.024 A 
HETATM   15  C   UNL     1      26.101  44.052  49.515  1.00  0.00     0.012 A 
ENDBRANCH   1   9
BRANCH   1  16
HETATM   16  C   UNL     1      27.710  42.483  51.870  1.00  0.00    -0.018 A 
HETATM   17  C   UNL     1      28.875  41.832  52.306  1.00  0.00     0.011 A 
HETATM   18  C   UNL     1      29.601  42.311  53.404  1.00  0.00     0.013 A 
HETATM   19  C   UNL     1      29.185  43.453  54.096  1.00  0.00    -0.023 A 
HETATM   20  C   UNL     1      28.038  44.121  53.652  1.00  0.00     0.013 A 
HETATM   21  C   UNL     1      27.313  43.647  52.553  1.00  0.00     0.011 A 
BRANCH  19  22
HETATM   22  C   UNL     1      29.944  43.931  55.237  1.00  0.00     0.010 A 
HETATM   23  C   UNL     1      30.997  43.328  55.966  1.00  0.00     0.152 A 
HETATM   24  N   UNL     1      31.420  44.082  56.982  1.00  0.00    -0.187 NA
HETATM   25  N   UNL     1      30.652  45.178  56.906  1.00  0.00    -0.289 N 
HETATM   26  H   UNL     1      30.797  45.915  57.590  1.00  0.00     0.188 HD
HETATM   27  C   UNL     1      29.746  45.134  55.883  1.00  0.00     0.123 A 
ENDBRANCH  19  22
ENDBRANCH   1  16
TORSDOF 6
ENDMDL
MODEL 9
REMARK VINA RESULT:      -6.7      7.948     10.720
REMARK  6 active torsions:
REMARK  status: ('A' for Active; 'I' for Inactive)
REMARK    1  A    between atoms: N_1  and  C_5 
REMARK    2  A    between atoms: C_5  and  C_6 
REMARK    3  A    between atoms: C_6  and  O_7 
REMARK    4  A    between atoms: C_6  and  C_8 
REMARK    5  A    between atoms: C_6  and  C_15 
REMARK    6  A    between atoms: C_18  and  C_21 
ROOT
HETATM    1  C   UNL     1      19.444  48.595  49.031  1.00  0.00     0.135 C 
ENDROOT
BRANCH   1   2
HETATM    2  C   UNL     1      18.806  47.535  48.071  1.00  0.00     0.277 C 
BRANCH   2   3
HETATM    3  N   UNL     1      18.685  46.221  48.792  1.00  0.00    -0.076 N 
HETATM    4  H   UNL     1      18.391  45.517  48.093  1.00  0.00     0.274 HD
HETATM    5  H   UNL     1      19.596  45.904  49.153  1.00  0.00     0.274 HD
HETATM    6  H   UNL     1      18.003  46.235  49.558  1.00  0.00     0.274 HD
ENDBRANCH   2   3
ENDBRANCH   1   2
BRANCH   1   7
HETATM    7  O   UNL     1      19.441  47.906  50.307  1.00  0.00    -0.378 OA
HETATM    8  H   UNL     1      18.915  47.088  50.209  1.00  0.00     0.211 HD
ENDBRANCH   1   7
BRANCH   1   9
HETATM    9  C   UNL     1      20.880  49.009  48.703  1.00  0.00    -0.018 A 
HETATM   10  C   UNL     1      21.199  50.173  47.981  1.00  0.00     0.012 A 
HETATM   11  C   UNL     1      22.531  50.499  47.697  1.00  0.00     0.024 A 
HETATM   12  C   UNL     1      23.563  49.670  48.129  1.00  0.00     0.034 A 
HETATM   13 CL   UNL     1      25.194  50.077  47.773  1.00  0.00    -0.084 Cl
HETATM   14  C   UNL     1      23.276  48.518  48.850  1.00  0.00     0.024 A 
HETATM   15  C   UNL     1      21.947  48.190  49.134  1.00  0.00     0.012 A 
ENDBRANCH   1   9
BRANCH   1  16
HETATM   16  C   UNL     1      18.489  49.797  49.104  1.00  0.00    -0.018 A 
HETATM   17  C   UNL     1      18.767  50.916  49.906  1.00  0.00     0.011 A 
HETATM   18  C   UNL     1      17.863  51.980  49.997  1.00  0.00     0.013 A 
HETATM   19  C   UNL     1      16.657  51.960  49.288  1.00  0.00    -0.023 A 
HETATM   20  C   UNL     1      16.384  50.860  48.468  1.00  0.00     0.013 A 
HETATM   21  C   UNL     1      17.288  49.796  48.371  1.00  0.00     0.011 A 
BRANCH  19  22
HETATM   22  C   UNL     1      15.727  53.069  49.400  1.00  0.00     0.010 A 
HETATM   23  C   UNL     1      15.491  53.975  50.461  1.00  0.00     0.152 A 
HETATM   24  N   UNL     1      14.519  54.848  50.190  1.00  0.00    -0.187 NA
HETATM   25  N   UNL     1      14.131  54.516  48.950  1.00  0.00    -0.289 N 
HETATM   26  H   UNL     1      13.388  55.056  48.518  1.00  0.00     0.188 HD
HETATM   27  C   UNL     1      14.818  53.452  48.435  1.00  0.00     0.123 A 
ENDBRANCH  19  22
ENDBRANCH   1  16
TORSDOF 6
ENDMDL
MODEL 10
REMARK VINA RESULT:      -6.6     16.218     17.951
REMARK  6 active torsions:
REMARK  status: ('A' for Active; 'I' for Inactive)
REMARK    1  A    between atoms: N_1  and  C_5 
REMARK    2  A    between atoms: C_5  and  C_6 
REMARK    3  A    between atoms: C_6  and  O_7 
REMARK    4  A    between atoms: C_6  and  C_8 
REMARK    5  A    between atoms: C_6  and  C_15 
REMARK    6  A    between atoms: C_18  and  C_21 
ROOT
HETATM    1  C   UNL     1      36.576  44.426  64.977  1.00  0.00     0.135 C 
ENDROOT
BRANCH   1   2
HETATM    2  C   UNL     1      37.401  45.609  65.589  1.00  0.00     0.277 C 
BRANCH   2   3
HETATM    3  N   UNL     1      38.170  46.296  64.494  1.00  0.00    -0.076 N 
HETATM    4  H   UNL     1      37.523  46.969  64.046  1.00  0.00     0.274 HD
HETATM    5  H   UNL     1      38.947  46.854  64.873  1.00  0.00     0.274 HD
HETATM    6  H   UNL     1      38.530  45.655  63.780  1.00  0.00     0.274 HD
ENDBRANCH   2   3
ENDBRANCH   1   2
BRANCH   1   7
HETATM    7  O   UNL     1      35.904  45.058  63.857  1.00  0.00    -0.378 OA
HETATM    8  H   UNL     1      36.572  45.550  63.340  1.00  0.00     0.211 HD
ENDBRANCH   1   7
BRANCH   1   9
HETATM    9  C   UNL     1      37.395  43.246  64.452  1.00  0.00    -0.018 A 
HETATM   10  C   UNL     1      37.564  42.975  63.083  1.00  0.00     0.012 A 
HETATM   11  C   UNL     1      38.315  41.872  62.656  1.00  0.00     0.024 A 
HETATM   12  C   UNL     1      38.908  41.025  63.588  1.00  0.00     0.034 A 
HETATM   13 CL   UNL     1      39.825  39.674  63.055  1.00  0.00    -0.084 Cl
HETATM   14  C   UNL     1      38.763  41.274  64.947  1.00  0.00     0.024 A 
HETATM   15  C   UNL     1      38.013  42.373  65.375  1.00  0.00     0.012 A 
ENDBRANCH   1   9
BRANCH   1  16
HETATM   16  C   UNL     1      35.529  43.997  66.017  1.00  0.00    -0.018 A 
HETATM   17  C   UNL     1      35.545  44.491  67.331  1.00  0.00     0.011 A 
HETATM   18  C   UNL     1      34.612  44.052  68.279  1.00  0.00     0.013 A 
HETATM   19  C   UNL     1      33.635  43.110  67.940  1.00  0.00    -0.023 A 
HETATM   20  C   UNL     1      33.597  42.632  66.626  1.00  0.00     0.013 A 
HETATM   21  C   UNL     1      34.526  43.071  65.676  1.00  0.00     0.011 A 
BRANCH  19  22
HETATM   22  C   UNL     1      32.680  42.660  68.936  1.00  0.00     0.010 A 
HETATM   23  C   UNL     1      32.794  41.677  69.949  1.00  0.00     0.152 A 
HETATM   24  N   UNL     1      31.671  41.529  70.654  1.00  0.00    -0.187 NA
HETATM   25  N   UNL     1      30.833  42.423  70.109  1.00  0.00    -0.289 N 
HETATM   26  H   UNL     1      29.896  42.499  70.492  1.00  0.00     0.188 HD
HETATM   27  C   UNL     1      31.386  43.120  69.071  1.00  0.00     0.123 A 
ENDBRANCH  19  22
ENDBRANCH   1  16
TORSDOF 6
ENDMDL
