MODEL 1
REMARK VINA RESULT:      -9.5      0.000      0.000
REMARK  7 active torsions:
REMARK  status: ('A' for Active; 'I' for Inactive)
REMARK    1  A    between atoms: C_2  and  O_3 
REMARK    2  A    between atoms: O_3  and  C_4 
REMARK    3  A    between atoms: C_5  and  N_6 
REMARK    4  A    between atoms: N_9  and  C_11 
REMARK    5  A    between atoms: C_11  and  C_12 
REMARK       I    between atoms: C_12  and  N_13 
REMARK    6  A    between atoms: N_13  and  C_14 
REMARK    7  A    between atoms: C_15  and  C_16 
ROOT
HETATM    1  C   UNL     1      27.535  43.297  52.234  1.00  0.00     0.275 C 
HETATM    2  C   UNL     1      27.651  42.228  51.154  1.00  0.00     0.050 C 
ENDROOT
BRANCH   1   3
HETATM    3  N   UNL     1      27.120  44.652  51.624  1.00  0.00    -0.056 N 
HETATM    4  C   UNL     1      26.983  44.668  50.095  1.00  0.00     0.255 C 
HETATM    5  C   UNL     1      26.784  46.120  49.610  1.00  0.00     0.150 C 
HETATM    6  N   UNL     1      25.612  46.727  50.267  1.00  0.00    -0.375 N 
HETATM    7  C   UNL     1      25.682  46.730  51.744  1.00  0.00     0.150 C 
HETATM    8  C   UNL     1      25.917  45.304  52.290  1.00  0.00     0.255 C 
HETATM    9  H   UNL     1      27.938  45.258  51.799  1.00  0.00     0.281 HD
BRANCH   6  10
HETATM   10  C   UNL     1      24.351  46.711  49.649  1.00  0.00     0.064 A 
HETATM   11  C   UNL     1      23.645  47.902  49.318  1.00  0.00     0.095 A 
HETATM   12  C   UNL     1      22.393  47.841  48.683  1.00  0.00     0.039 A 
HETATM   13  C   UNL     1      21.815  46.617  48.359  1.00  0.00     0.003 A 
HETATM   14  C   UNL     1      22.489  45.443  48.653  1.00  0.00     0.002 A 
HETATM   15  C   UNL     1      23.738  45.495  49.278  1.00  0.00     0.032 A 
BRANCH  11  16
HETATM   16  O   UNL     1      24.276  49.097  49.584  1.00  0.00    -0.349 OA
BRANCH  16  17
HETATM   17  C   UNL     1      24.575  49.955  48.483  1.00  0.00     0.171 C 
HETATM   18  C   UNL     1      26.049  49.800  48.156  1.00  0.00     0.034 C 
ENDBRANCH  16  17
ENDBRANCH  11  16
ENDBRANCH   6  10
ENDBRANCH   1   3
BRANCH   1  19
HETATM   19  C   UNL     1      28.840  43.473  53.053  1.00  0.00     0.253 C 
HETATM   20  N   UNL     1      28.705  44.162  54.237  1.00  0.00    -0.325 N 
HETATM   21  H   UNL     1      27.881  44.738  54.375  1.00  0.00     0.169 HD
HETATM   22  O   UNL     1      29.887  43.030  52.581  1.00  0.00    -0.271 OA
BRANCH  20  23
HETATM   23  C   UNL     1      29.650  44.225  55.296  1.00  0.00     0.045 A 
HETATM   24  C   UNL     1      29.540  45.274  56.244  1.00  0.00     0.001 A 
HETATM   25  C   UNL     1      30.412  45.284  57.349  1.00  0.00     0.014 A 
HETATM   26  C   UNL     1      31.374  44.288  57.517  1.00  0.00     0.001 A 
HETATM   27  C   UNL     1      31.485  43.272  56.577  1.00  0.00     0.002 A 
HETATM   28  C   UNL     1      30.630  43.239  55.472  1.00  0.00     0.030 A 
BRANCH  24  29
HETATM   29  C   UNL     1      28.575  46.378  56.100  1.00  0.00    -0.024 A 
HETATM   30  C   UNL     1      28.363  46.995  54.858  1.00  0.00     0.012 A 
HETATM   31  C   UNL     1      27.444  48.039  54.729  1.00  0.00     0.001 A 
HETATM   32  C   UNL     1      26.726  48.479  55.839  1.00  0.00     0.000 A 
HETATM   33  C   UNL     1      26.921  47.874  57.079  1.00  0.00     0.001 A 
HETATM   34  C   UNL     1      27.838  46.829  57.207  1.00  0.00     0.012 A 
ENDBRANCH  24  29
ENDBRANCH  20  23
ENDBRANCH   1  19
TORSDOF 7
ENDMDL
MODEL 2
REMARK VINA RESULT:      -9.2      2.039      8.497
REMARK  7 active torsions:
REMARK  status: ('A' for Active; 'I' for Inactive)
REMARK    1  A    between atoms: C_2  and  O_3 
REMARK    2  A    between atoms: O_3  and  C_4 
REMARK    3  A    between atoms: C_5  and  N_6 
REMARK    4  A    between atoms: N_9  and  C_11 
REMARK    5  A    between atoms: C_11  and  C_12 
REMARK       I    between atoms: C_12  and  N_13 
REMARK    6  A    between atoms: N_13  and  C_14 
REMARK    7  A    between atoms: C_15  and  C_16 
ROOT
HETATM    1  C   UNL     1      23.584  44.372  48.910  1.00  0.00     0.275 C 
HETATM    2  C   UNL     1      22.956  43.065  49.380  1.00  0.00     0.050 C 
ENDROOT
BRANCH   1   3
HETATM    3  N   UNL     1      24.747  44.787  49.834  1.00  0.00    -0.056 N 
HETATM    4  C   UNL     1      24.514  44.544  51.332  1.00  0.00     0.255 C 
HETATM    5  C   UNL     1      25.650  45.202  52.144  1.00  0.00     0.150 C 
HETATM    6  N   UNL     1      26.961  44.687  51.708  1.00  0.00    -0.375 N 
HETATM    7  C   UNL     1      27.238  44.882  50.269  1.00  0.00     0.150 C 
HETATM    8  C   UNL     1      26.113  44.275  49.401  1.00  0.00     0.255 C 
HETATM    9  H   UNL     1      24.763  45.817  49.756  1.00  0.00     0.281 HD
BRANCH   6  10
HETATM   10  C   UNL     1      27.570  43.611  52.375  1.00  0.00     0.064 A 
HETATM   11  C   UNL     1      28.419  43.792  53.504  1.00  0.00     0.095 A 
HETATM   12  C   UNL     1      28.994  42.686  54.153  1.00  0.00     0.039 A 
HETATM   13  C   UNL     1      28.746  41.389  53.712  1.00  0.00     0.003 A 
HETATM   14  C   UNL     1      27.908  41.185  52.627  1.00  0.00     0.002 A 
HETATM   15  C   UNL     1      27.327  42.278  51.980  1.00  0.00     0.032 A 
BRANCH  11  16
HETATM   16  O   UNL     1      28.585  45.080  53.961  1.00  0.00    -0.349 OA
BRANCH  16  17
HETATM   17  C   UNL     1      28.238  45.359  55.316  1.00  0.00     0.171 C 
HETATM   18  C   UNL     1      29.491  45.832  56.031  1.00  0.00     0.034 C 
ENDBRANCH  16  17
ENDBRANCH  11  16
ENDBRANCH   6  10
ENDBRANCH   1   3
BRANCH   1  19
HETATM   19  C   UNL     1      22.560  45.532  48.809  1.00  0.00     0.253 C 
HETATM   20  N   UNL     1      23.060  46.785  49.076  1.00  0.00    -0.325 N 
HETATM   21  H   UNL     1      23.940  46.863  49.577  1.00  0.00     0.169 HD
HETATM   22  O   UNL     1      21.390  45.254  48.542  1.00  0.00    -0.271 OA
BRANCH  20  23
HETATM   23  C   UNL     1      22.435  48.029  48.792  1.00  0.00     0.045 A 
HETATM   24  C   UNL     1      23.252  49.168  48.580  1.00  0.00     0.001 A 
HETATM   25  C   UNL     1      22.643  50.379  48.201  1.00  0.00     0.014 A 
HETATM   26  C   UNL     1      21.261  50.470  48.037  1.00  0.00     0.001 A 
HETATM   27  C   UNL     1      20.466  49.354  48.260  1.00  0.00     0.002 A 
HETATM   28  C   UNL     1      21.047  48.140  48.635  1.00  0.00     0.030 A 
BRANCH  24  29
HETATM   29  C   UNL     1      24.711  49.148  48.779  1.00  0.00    -0.024 A 
HETATM   30  C   UNL     1      25.310  48.224  49.649  1.00  0.00     0.012 A 
HETATM   31  C   UNL     1      26.695  48.209  49.830  1.00  0.00     0.001 A 
HETATM   32  C   UNL     1      27.499  49.118  49.144  1.00  0.00     0.000 A 
HETATM   33  C   UNL     1      26.921  50.039  48.273  1.00  0.00     0.001 A 
HETATM   34  C   UNL     1      25.537  50.052  48.091  1.00  0.00     0.012 A 
ENDBRANCH  24  29
ENDBRANCH  20  23
ENDBRANCH   1  19
TORSDOF 7
ENDMDL
MODEL 3
REMARK VINA RESULT:      -9.0      2.166      8.214
REMARK  7 active torsions:
REMARK  status: ('A' for Active; 'I' for Inactive)
REMARK    1  A    between atoms: C_2  and  O_3 
REMARK    2  A    between atoms: O_3  and  C_4 
REMARK    3  A    between atoms: C_5  and  N_6 
REMARK    4  A    between atoms: N_9  and  C_11 
REMARK    5  A    between atoms: C_11  and  C_12 
REMARK       I    between atoms: C_12  and  N_13 
REMARK    6  A    between atoms: N_13  and  C_14 
REMARK    7  A    between atoms: C_15  and  C_16 
ROOT
HETATM    1  C   UNL     1      23.616  44.263  48.028  1.00  0.00     0.275 C 
HETATM    2  C   UNL     1      22.884  43.072  47.423  1.00  0.00     0.050 C 
ENDROOT
BRANCH   1   3
HETATM    3  N   UNL     1      24.542  43.813  49.178  1.00  0.00    -0.056 N 
HETATM    4  C   UNL     1      25.885  44.550  49.265  1.00  0.00     0.255 C 
HETATM    5  C   UNL     1      26.787  43.856  50.307  1.00  0.00     0.150 C 
HETATM    6  N   UNL     1      26.114  43.797  51.617  1.00  0.00    -0.375 N 
HETATM    7  C   UNL     1      24.807  43.107  51.593  1.00  0.00     0.150 C 
HETATM    8  C   UNL     1      23.867  43.735  50.540  1.00  0.00     0.255 C 
HETATM    9  H   UNL     1      24.811  42.852  48.910  1.00  0.00     0.281 HD
BRANCH   6  10
HETATM   10  C   UNL     1      26.338  44.787  52.588  1.00  0.00     0.064 A 
HETATM   11  C   UNL     1      27.258  44.612  53.661  1.00  0.00     0.095 A 
HETATM   12  C   UNL     1      27.466  45.636  54.601  1.00  0.00     0.039 A 
HETATM   13  C   UNL     1      26.783  46.845  54.505  1.00  0.00     0.003 A 
HETATM   14  C   UNL     1      25.897  47.047  53.459  1.00  0.00     0.002 A 
HETATM   15  C   UNL     1      25.688  46.038  52.516  1.00  0.00     0.032 A 
BRANCH  11  16
HETATM   16  O   UNL     1      27.973  43.435  53.686  1.00  0.00    -0.349 OA
BRANCH  16  17
HETATM   17  C   UNL     1      29.312  43.455  53.193  1.00  0.00     0.171 C 
HETATM   18  C   UNL     1      30.242  43.161  54.356  1.00  0.00     0.034 C 
ENDBRANCH  16  17
ENDBRANCH  11  16
ENDBRANCH   6  10
ENDBRANCH   1   3
BRANCH   1  19
HETATM   19  C   UNL     1      22.655  45.369  48.536  1.00  0.00     0.253 C 
HETATM   20  N   UNL     1      23.199  46.630  48.619  1.00  0.00    -0.325 N 
HETATM   21  H   UNL     1      24.209  46.727  48.625  1.00  0.00     0.169 HD
HETATM   22  O   UNL     1      21.513  45.044  48.859  1.00  0.00    -0.271 OA
BRANCH  20  23
HETATM   23  C   UNL     1      22.492  47.853  48.777  1.00  0.00     0.045 A 
HETATM   24  C   UNL     1      23.231  49.060  48.861  1.00  0.00     0.001 A 
HETATM   25  C   UNL     1      22.531  50.280  48.918  1.00  0.00     0.014 A 
HETATM   26  C   UNL     1      21.137  50.314  48.898  1.00  0.00     0.001 A 
HETATM   27  C   UNL     1      20.420  49.126  48.830  1.00  0.00     0.002 A 
HETATM   28  C   UNL     1      21.091  47.903  48.770  1.00  0.00     0.030 A 
BRANCH  24  29
HETATM   29  C   UNL     1      24.701  49.089  48.931  1.00  0.00    -0.024 A 
HETATM   30  C   UNL     1      25.406  48.169  49.721  1.00  0.00     0.012 A 
HETATM   31  C   UNL     1      26.801  48.200  49.780  1.00  0.00     0.001 A 
HETATM   32  C   UNL     1      27.510  49.152  49.049  1.00  0.00     0.000 A 
HETATM   33  C   UNL     1      26.826  50.071  48.255  1.00  0.00     0.001 A 
HETATM   34  C   UNL     1      25.431  50.037  48.195  1.00  0.00     0.012 A 
ENDBRANCH  24  29
ENDBRANCH  20  23
ENDBRANCH   1  19
TORSDOF 7
ENDMDL
MODEL 4
REMARK VINA RESULT:      -9.0      2.083      9.690
REMARK  7 active torsions:
REMARK  status: ('A' for Active; 'I' for Inactive)
REMARK    1  A    between atoms: C_2  and  O_3 
REMARK    2  A    between atoms: O_3  and  C_4 
REMARK    3  A    between atoms: C_5  and  N_6 
REMARK    4  A    between atoms: N_9  and  C_11 
REMARK    5  A    between atoms: C_11  and  C_12 
REMARK       I    between atoms: C_12  and  N_13 
REMARK    6  A    between atoms: N_13  and  C_14 
REMARK    7  A    between atoms: C_15  and  C_16 
ROOT
HETATM    1  C   UNL     1      24.470  46.061  49.718  1.00  0.00     0.275 C 
HETATM    2  C   UNL     1      23.488  44.982  49.279  1.00  0.00     0.050 C 
ENDROOT
BRANCH   1   3
HETATM    3  N   UNL     1      24.952  45.810  51.162  1.00  0.00    -0.056 N 
HETATM    4  C   UNL     1      25.023  44.336  51.583  1.00  0.00     0.255 C 
HETATM    5  C   UNL     1      25.303  44.246  53.098  1.00  0.00     0.150 C 
HETATM    6  N   UNL     1      26.542  44.967  53.438  1.00  0.00    -0.375 N 
HETATM    7  C   UNL     1      26.537  46.393  53.046  1.00  0.00     0.150 C 
HETATM    8  C   UNL     1      26.226  46.552  51.541  1.00  0.00     0.255 C 
HETATM    9  H   UNL     1      24.187  46.192  51.743  1.00  0.00     0.281 HD
BRANCH   6  10
HETATM   10  C   UNL     1      27.770  44.292  53.519  1.00  0.00     0.064 A 
HETATM   11  C   UNL     1      28.672  44.468  54.607  1.00  0.00     0.095 A 
HETATM   12  C   UNL     1      29.884  43.758  54.657  1.00  0.00     0.039 A 
HETATM   13  C   UNL     1      30.230  42.863  53.649  1.00  0.00     0.003 A 
HETATM   14  C   UNL     1      29.362  42.658  52.589  1.00  0.00     0.002 A 
HETATM   15  C   UNL     1      28.152  43.356  52.534  1.00  0.00     0.032 A 
BRANCH  11  16
HETATM   16  O   UNL     1      28.267  45.304  55.625  1.00  0.00    -0.349 OA
BRANCH  16  17
HETATM   17  C   UNL     1      29.272  46.012  56.349  1.00  0.00     0.171 C 
HETATM   18  C   UNL     1      28.842  46.077  57.803  1.00  0.00     0.034 C 
ENDBRANCH  16  17
ENDBRANCH  11  16
ENDBRANCH   6  10
ENDBRANCH   1   3
BRANCH   1  19
HETATM   19  C   UNL     1      23.884  47.493  49.606  1.00  0.00     0.253 C 
HETATM   20  N   UNL     1      23.096  47.722  48.501  1.00  0.00    -0.325 N 
HETATM   21  H   UNL     1      23.163  47.086  47.713  1.00  0.00     0.169 HD
HETATM   22  O   UNL     1      24.188  48.315  50.469  1.00  0.00    -0.271 OA
BRANCH  20  23
HETATM   23  C   UNL     1      22.224  48.824  48.293  1.00  0.00     0.045 A 
HETATM   24  C   UNL     1      20.883  48.568  47.911  1.00  0.00     0.001 A 
HETATM   25  C   UNL     1      19.990  49.650  47.801  1.00  0.00     0.014 A 
HETATM   26  C   UNL     1      20.406  50.956  48.055  1.00  0.00     0.001 A 
HETATM   27  C   UNL     1      21.725  51.202  48.415  1.00  0.00     0.002 A 
HETATM   28  C   UNL     1      22.630  50.144  48.533  1.00  0.00     0.030 A 
BRANCH  24  29
HETATM   29  C   UNL     1      20.393  47.217  47.587  1.00  0.00    -0.024 A 
HETATM   30  C   UNL     1      19.750  46.430  48.553  1.00  0.00     0.012 A 
HETATM   31  C   UNL     1      19.285  45.151  48.237  1.00  0.00     0.001 A 
HETATM   32  C   UNL     1      19.458  44.643  46.950  1.00  0.00     0.000 A 
HETATM   33  C   UNL     1      20.091  45.414  45.977  1.00  0.00     0.001 A 
HETATM   34  C   UNL     1      20.553  46.693  46.293  1.00  0.00     0.012 A 
ENDBRANCH  24  29
ENDBRANCH  20  23
ENDBRANCH   1  19
TORSDOF 7
ENDMDL
MODEL 5
REMARK VINA RESULT:      -8.9      3.805      6.978
REMARK  7 active torsions:
REMARK  status: ('A' for Active; 'I' for Inactive)
REMARK    1  A    between atoms: C_2  and  O_3 
REMARK    2  A    between atoms: O_3  and  C_4 
REMARK    3  A    between atoms: C_5  and  N_6 
REMARK    4  A    between atoms: N_9  and  C_11 
REMARK    5  A    between atoms: C_11  and  C_12 
REMARK       I    between atoms: C_12  and  N_13 
REMARK    6  A    between atoms: N_13  and  C_14 
REMARK    7  A    between atoms: C_15  and  C_16 
ROOT
HETATM    1  C   UNL     1      24.988  44.547  50.126  1.00  0.00     0.275 C 
HETATM    2  C   UNL     1      23.717  45.203  49.599  1.00  0.00     0.050 C 
ENDROOT
BRANCH   1   3
HETATM    3  N   UNL     1      24.991  43.035  49.823  1.00  0.00    -0.056 N 
HETATM    4  C   UNL     1      24.448  42.641  48.443  1.00  0.00     0.255 C 
HETATM    5  C   UNL     1      24.305  41.106  48.364  1.00  0.00     0.150 C 
HETATM    6  N   UNL     1      25.595  40.452  48.646  1.00  0.00    -0.375 N 
HETATM    7  C   UNL     1      26.175  40.802  49.960  1.00  0.00     0.150 C 
HETATM    8  C   UNL     1      26.310  42.334  50.115  1.00  0.00     0.255 C 
HETATM    9  H   UNL     1      24.287  42.655  50.477  1.00  0.00     0.281 HD
BRANCH   6  10
HETATM   10  C   UNL     1      26.459  40.082  47.603  1.00  0.00     0.064 A 
HETATM   11  C   UNL     1      26.543  38.746  47.116  1.00  0.00     0.095 A 
HETATM   12  C   UNL     1      27.409  38.422  46.056  1.00  0.00     0.039 A 
HETATM   13  C   UNL     1      28.200  39.397  45.456  1.00  0.00     0.003 A 
HETATM   14  C   UNL     1      28.123  40.708  45.898  1.00  0.00     0.002 A 
HETATM   15  C   UNL     1      27.261  41.040  46.947  1.00  0.00     0.032 A 
BRANCH  11  16
HETATM   16  O   UNL     1      25.695  37.820  47.680  1.00  0.00    -0.349 OA
BRANCH  16  17
HETATM   17  C   UNL     1      26.268  36.633  48.226  1.00  0.00     0.171 C 
HETATM   18  C   UNL     1      26.933  36.997  49.541  1.00  0.00     0.034 C 
ENDBRANCH  16  17
ENDBRANCH  11  16
ENDBRANCH   6  10
ENDBRANCH   1   3
BRANCH   1  19
HETATM   19  C   UNL     1      25.201  44.775  51.645  1.00  0.00     0.253 C 
HETATM   20  N   UNL     1      26.397  45.359  51.991  1.00  0.00    -0.325 N 
HETATM   21  H   UNL     1      27.158  45.349  51.320  1.00  0.00     0.169 HD
HETATM   22  O   UNL     1      24.324  44.392  52.419  1.00  0.00    -0.271 OA
BRANCH  20  23
HETATM   23  C   UNL     1      26.733  45.929  53.249  1.00  0.00     0.045 A 
HETATM   24  C   UNL     1      27.654  45.244  54.082  1.00  0.00     0.001 A 
HETATM   25  C   UNL     1      28.064  45.853  55.283  1.00  0.00     0.014 A 
HETATM   26  C   UNL     1      27.577  47.104  55.660  1.00  0.00     0.001 A 
HETATM   27  C   UNL     1      26.665  47.762  54.846  1.00  0.00     0.002 A 
HETATM   28  C   UNL     1      26.243  47.180  53.648  1.00  0.00     0.030 A 
BRANCH  24  29
HETATM   29  C   UNL     1      28.171  43.903  53.762  1.00  0.00    -0.024 A 
HETATM   30  C   UNL     1      29.469  43.729  53.260  1.00  0.00     0.012 A 
HETATM   31  C   UNL     1      29.953  42.453  52.962  1.00  0.00     0.001 A 
HETATM   32  C   UNL     1      29.146  41.335  53.161  1.00  0.00     0.000 A 
HETATM   33  C   UNL     1      27.855  41.489  53.663  1.00  0.00     0.001 A 
HETATM   34  C   UNL     1      27.372  42.765  53.963  1.00  0.00     0.012 A 
ENDBRANCH  24  29
ENDBRANCH  20  23
ENDBRANCH   1  19
TORSDOF 7
ENDMDL
MODEL 6
REMARK VINA RESULT:      -8.8      2.281      9.205
REMARK  7 active torsions:
REMARK  status: ('A' for Active; 'I' for Inactive)
REMARK    1  A    between atoms: C_2  and  O_3 
REMARK    2  A    between atoms: O_3  and  C_4 
REMARK    3  A    between atoms: C_5  and  N_6 
REMARK    4  A    between atoms: N_9  and  C_11 
REMARK    5  A    between atoms: C_11  and  C_12 
REMARK       I    between atoms: C_12  and  N_13 
REMARK    6  A    between atoms: N_13  and  C_14 
REMARK    7  A    between atoms: C_15  and  C_16 
ROOT
HETATM    1  C   UNL     1      24.252  44.788  49.341  1.00  0.00     0.275 C 
HETATM    2  C   UNL     1      24.766  43.471  48.772  1.00  0.00     0.050 C 
ENDROOT
BRANCH   1   3
HETATM    3  N   UNL     1      24.802  45.024  50.762  1.00  0.00    -0.056 N 
HETATM    4  C   UNL     1      24.913  43.770  51.640  1.00  0.00     0.255 C 
HETATM    5  C   UNL     1      25.261  44.182  53.086  1.00  0.00     0.150 C 
HETATM    6  N   UNL     1      26.504  44.975  53.113  1.00  0.00    -0.375 N 
HETATM    7  C   UNL     1      26.460  46.192  52.275  1.00  0.00     0.150 C 
HETATM    8  C   UNL     1      26.080  45.849  50.818  1.00  0.00     0.255 C 
HETATM    9  H   UNL     1      24.058  45.575  51.222  1.00  0.00     0.281 HD
BRANCH   6  10
HETATM   10  C   UNL     1      27.744  44.362  53.352  1.00  0.00     0.064 A 
HETATM   11  C   UNL     1      28.449  44.516  54.580  1.00  0.00     0.095 A 
HETATM   12  C   UNL     1      29.681  43.870  54.785  1.00  0.00     0.039 A 
HETATM   13  C   UNL     1      30.239  43.064  53.798  1.00  0.00     0.003 A 
HETATM   14  C   UNL     1      29.564  42.882  52.602  1.00  0.00     0.002 A 
HETATM   15  C   UNL     1      28.336  43.515  52.391  1.00  0.00     0.032 A 
BRANCH  11  16
HETATM   16  O   UNL     1      27.837  45.259  55.564  1.00  0.00    -0.349 OA
BRANCH  16  17
HETATM   17  C   UNL     1      28.537  46.389  56.083  1.00  0.00     0.171 C 
HETATM   18  C   UNL     1      28.825  46.126  57.551  1.00  0.00     0.034 C 
ENDBRANCH  16  17
ENDBRANCH  11  16
ENDBRANCH   6  10
ENDBRANCH   1   3
BRANCH   1  19
HETATM   19  C   UNL     1      22.704  44.873  49.360  1.00  0.00     0.253 C 
HETATM   20  N   UNL     1      22.174  46.071  48.939  1.00  0.00    -0.325 N 
HETATM   21  H   UNL     1      22.775  46.889  48.914  1.00  0.00     0.169 HD
HETATM   22  O   UNL     1      22.072  43.902  49.778  1.00  0.00    -0.271 OA
BRANCH  20  23
HETATM   23  C   UNL     1      20.820  46.328  48.594  1.00  0.00     0.045 A 
HETATM   24  C   UNL     1      20.423  47.666  48.344  1.00  0.00     0.001 A 
HETATM   25  C   UNL     1      19.108  47.913  47.905  1.00  0.00     0.014 A 
HETATM   26  C   UNL     1      18.202  46.870  47.721  1.00  0.00     0.001 A 
HETATM   27  C   UNL     1      18.593  45.563  47.982  1.00  0.00     0.002 A 
HETATM   28  C   UNL     1      19.893  45.292  48.416  1.00  0.00     0.030 A 
BRANCH  24  29
HETATM   29  C   UNL     1      21.319  48.815  48.561  1.00  0.00    -0.024 A 
HETATM   30  C   UNL     1      21.107  49.706  49.623  1.00  0.00     0.012 A 
HETATM   31  C   UNL     1      21.964  50.791  49.825  1.00  0.00     0.001 A 
HETATM   32  C   UNL     1      23.042  50.999  48.967  1.00  0.00     0.000 A 
HETATM   33  C   UNL     1      23.269  50.121  47.909  1.00  0.00     0.001 A 
HETATM   34  C   UNL     1      22.415  49.034  47.710  1.00  0.00     0.012 A 
ENDBRANCH  24  29
ENDBRANCH  20  23
ENDBRANCH   1  19
TORSDOF 7
ENDMDL
MODEL 7
REMARK VINA RESULT:      -8.8      4.643      8.447
REMARK  7 active torsions:
REMARK  status: ('A' for Active; 'I' for Inactive)
REMARK    1  A    between atoms: C_2  and  O_3 
REMARK    2  A    between atoms: O_3  and  C_4 
REMARK    3  A    between atoms: C_5  and  N_6 
REMARK    4  A    between atoms: N_9  and  C_11 
REMARK    5  A    between atoms: C_11  and  C_12 
REMARK       I    between atoms: C_12  and  N_13 
REMARK    6  A    between atoms: N_13  and  C_14 
REMARK    7  A    between atoms: C_15  and  C_16 
ROOT
HETATM    1  C   UNL     1      21.105  46.493  49.082  1.00  0.00     0.275 C 
HETATM    2  C   UNL     1      20.816  45.293  48.188  1.00  0.00     0.050 C 
ENDROOT
BRANCH   1   3
HETATM    3  N   UNL     1      19.840  47.354  49.272  1.00  0.00    -0.056 N 
HETATM    4  C   UNL     1      20.092  48.856  49.463  1.00  0.00     0.255 C 
HETATM    5  C   UNL     1      18.773  49.554  49.858  1.00  0.00     0.150 C 
HETATM    6  N   UNL     1      17.732  49.303  48.845  1.00  0.00    -0.375 N 
HETATM    7  C   UNL     1      17.453  47.870  48.610  1.00  0.00     0.150 C 
HETATM    8  C   UNL     1      18.745  47.106  48.244  1.00  0.00     0.255 C 
HETATM    9  H   UNL     1      19.476  47.052  50.191  1.00  0.00     0.281 HD
BRANCH   6  10
HETATM   10  C   UNL     1      17.504  50.216  47.804  1.00  0.00     0.064 A 
HETATM   11  C   UNL     1      16.483  51.208  47.865  1.00  0.00     0.095 A 
HETATM   12  C   UNL     1      16.301  52.115  46.807  1.00  0.00     0.039 A 
HETATM   13  C   UNL     1      17.113  52.070  45.678  1.00  0.00     0.003 A 
HETATM   14  C   UNL     1      18.126  51.128  45.602  1.00  0.00     0.002 A 
HETATM   15  C   UNL     1      18.319  50.225  46.652  1.00  0.00     0.032 A 
BRANCH  11  16
HETATM   16  O   UNL     1      15.745  51.275  49.026  1.00  0.00    -0.349 OA
BRANCH  16  17
HETATM   17  C   UNL     1      15.928  52.410  49.870  1.00  0.00     0.171 C 
HETATM   18  C   UNL     1      14.555  52.928  50.260  1.00  0.00     0.034 C 
ENDBRANCH  16  17
ENDBRANCH  11  16
ENDBRANCH   6  10
ENDBRANCH   1   3
BRANCH   1  19
HETATM   19  C   UNL     1      22.263  47.377  48.550  1.00  0.00     0.253 C 
HETATM   20  N   UNL     1      23.138  47.840  49.506  1.00  0.00    -0.325 N 
HETATM   21  H   UNL     1      22.848  47.830  50.479  1.00  0.00     0.169 HD
HETATM   22  O   UNL     1      22.297  47.630  47.346  1.00  0.00    -0.271 OA
BRANCH  20  23
HETATM   23  C   UNL     1      24.415  48.421  49.281  1.00  0.00     0.045 A 
HETATM   24  C   UNL     1      25.553  47.810  49.866  1.00  0.00     0.001 A 
HETATM   25  C   UNL     1      26.829  48.323  49.564  1.00  0.00     0.014 A 
HETATM   26  C   UNL     1      26.982  49.415  48.710  1.00  0.00     0.001 A 
HETATM   27  C   UNL     1      25.862  50.017  48.152  1.00  0.00     0.002 A 
HETATM   28  C   UNL     1      24.586  49.525  48.435  1.00  0.00     0.030 A 
BRANCH  24  29
HETATM   29  C   UNL     1      25.454  46.683  50.808  1.00  0.00    -0.024 A 
HETATM   30  C   UNL     1      25.250  45.373  50.350  1.00  0.00     0.012 A 
HETATM   31  C   UNL     1      25.160  44.309  51.251  1.00  0.00     0.001 A 
HETATM   32  C   UNL     1      25.274  44.541  52.620  1.00  0.00     0.000 A 
HETATM   33  C   UNL     1      25.481  45.835  53.092  1.00  0.00     0.001 A 
HETATM   34  C   UNL     1      25.573  46.898  52.192  1.00  0.00     0.012 A 
ENDBRANCH  24  29
ENDBRANCH  20  23
ENDBRANCH   1  19
TORSDOF 7
ENDMDL
MODEL 8
REMARK VINA RESULT:      -8.8      2.909      9.942
REMARK  7 active torsions:
REMARK  status: ('A' for Active; 'I' for Inactive)
REMARK    1  A    between atoms: C_2  and  O_3 
REMARK    2  A    between atoms: O_3  and  C_4 
REMARK    3  A    between atoms: C_5  and  N_6 
REMARK    4  A    between atoms: N_9  and  C_11 
REMARK    5  A    between atoms: C_11  and  C_12 
REMARK       I    between atoms: C_12  and  N_13 
REMARK    6  A    between atoms: N_13  and  C_14 
REMARK    7  A    between atoms: C_15  and  C_16 
ROOT
HETATM    1  C   UNL     1      23.224  47.843  49.171  1.00  0.00     0.275 C 
HETATM    2  C   UNL     1      23.777  49.127  48.564  1.00  0.00     0.050 C 
ENDROOT
BRANCH   1   3
HETATM    3  N   UNL     1      24.351  46.816  49.404  1.00  0.00    -0.056 N 
HETATM    4  C   UNL     1      25.686  47.404  49.881  1.00  0.00     0.255 C 
HETATM    5  C   UNL     1      26.770  46.305  49.859  1.00  0.00     0.150 C 
HETATM    6  N   UNL     1      26.358  45.155  50.683  1.00  0.00    -0.375 N 
HETATM    7  C   UNL     1      25.070  44.553  50.276  1.00  0.00     0.150 C 
HETATM    8  C   UNL     1      23.947  45.613  50.244  1.00  0.00     0.255 C 
HETATM    9  H   UNL     1      24.565  46.471  48.453  1.00  0.00     0.281 HD
BRANCH   6  10
HETATM   10  C   UNL     1      26.761  45.047  52.024  1.00  0.00     0.064 A 
HETATM   11  C   UNL     1      27.538  43.954  52.504  1.00  0.00     0.095 A 
HETATM   12  C   UNL     1      27.937  43.895  53.851  1.00  0.00     0.039 A 
HETATM   13  C   UNL     1      27.586  44.901  54.745  1.00  0.00     0.003 A 
HETATM   14  C   UNL     1      26.848  45.985  54.299  1.00  0.00     0.002 A 
HETATM   15  C   UNL     1      26.452  46.056  52.961  1.00  0.00     0.032 A 
BRANCH  11  16
HETATM   16  O   UNL     1      27.931  43.013  51.579  1.00  0.00    -0.349 OA
BRANCH  16  17
HETATM   17  C   UNL     1      27.442  41.681  51.731  1.00  0.00     0.171 C 
HETATM   18  C   UNL     1      28.635  40.766  51.943  1.00  0.00     0.034 C 
ENDBRANCH  16  17
ENDBRANCH  11  16
ENDBRANCH   6  10
ENDBRANCH   1   3
BRANCH   1  19
HETATM   19  C   UNL     1      22.105  47.202  48.310  1.00  0.00     0.253 C 
HETATM   20  N   UNL     1      20.890  47.052  48.940  1.00  0.00    -0.325 N 
HETATM   21  H   UNL     1      20.858  47.092  49.954  1.00  0.00     0.169 HD
HETATM   22  O   UNL     1      22.382  46.845  47.166  1.00  0.00    -0.271 OA
BRANCH  20  23
HETATM   23  C   UNL     1      19.643  46.764  48.324  1.00  0.00     0.045 A 
HETATM   24  C   UNL     1      18.766  47.838  48.027  1.00  0.00     0.001 A 
HETATM   25  C   UNL     1      17.575  47.567  47.328  1.00  0.00     0.014 A 
HETATM   26  C   UNL     1      17.249  46.270  46.935  1.00  0.00     0.001 A 
HETATM   27  C   UNL     1      18.105  45.221  47.242  1.00  0.00     0.002 A 
HETATM   28  C   UNL     1      19.295  45.464  47.933  1.00  0.00     0.030 A 
BRANCH  24  29
HETATM   29  C   UNL     1      19.032  49.222  48.453  1.00  0.00    -0.024 A 
HETATM   30  C   UNL     1      18.450  49.745  49.617  1.00  0.00     0.012 A 
HETATM   31  C   UNL     1      18.710  51.058  50.016  1.00  0.00     0.001 A 
HETATM   32  C   UNL     1      19.555  51.865  49.256  1.00  0.00     0.000 A 
HETATM   33  C   UNL     1      20.145  51.360  48.100  1.00  0.00     0.001 A 
HETATM   34  C   UNL     1      19.887  50.047  47.702  1.00  0.00     0.012 A 
ENDBRANCH  24  29
ENDBRANCH  20  23
ENDBRANCH   1  19
TORSDOF 7
ENDMDL
MODEL 9
REMARK VINA RESULT:      -8.7      3.764      6.335
REMARK  7 active torsions:
REMARK  status: ('A' for Active; 'I' for Inactive)
REMARK    1  A    between atoms: C_2  and  O_3 
REMARK    2  A    between atoms: O_3  and  C_4 
REMARK    3  A    between atoms: C_5  and  N_6 
REMARK    4  A    between atoms: N_9  and  C_11 
REMARK    5  A    between atoms: C_11  and  C_12 
REMARK       I    between atoms: C_12  and  N_13 
REMARK    6  A    between atoms: N_13  and  C_14 
REMARK    7  A    between atoms: C_15  and  C_16 
ROOT
HETATM    1  C   UNL     1      27.194  42.946  51.906  1.00  0.00     0.275 C 
HETATM    2  C   UNL     1      25.801  43.527  52.115  1.00  0.00     0.050 C 
ENDROOT
BRANCH   1   3
HETATM    3  N   UNL     1      27.118  41.587  51.179  1.00  0.00    -0.056 N 
HETATM    4  C   UNL     1      26.051  41.488  50.081  1.00  0.00     0.255 C 
HETATM    5  C   UNL     1      25.940  40.026  49.599  1.00  0.00     0.150 C 
HETATM    6  N   UNL     1      27.248  39.536  49.130  1.00  0.00    -0.375 N 
HETATM    7  C   UNL     1      28.321  39.616  50.144  1.00  0.00     0.150 C 
HETATM    8  C   UNL     1      28.459  41.054  50.693  1.00  0.00     0.255 C 
HETATM    9  H   UNL     1      26.774  40.941  51.909  1.00  0.00     0.281 HD
BRANCH   6  10
HETATM   10  C   UNL     1      27.595  39.597  47.771  1.00  0.00     0.064 A 
HETATM   11  C   UNL     1      27.843  38.431  46.991  1.00  0.00     0.095 A 
HETATM   12  C   UNL     1      28.171  38.537  45.628  1.00  0.00     0.039 A 
HETATM   13  C   UNL     1      28.257  39.779  45.007  1.00  0.00     0.003 A 
HETATM   14  C   UNL     1      28.001  40.928  45.739  1.00  0.00     0.002 A 
HETATM   15  C   UNL     1      27.669  40.833  47.093  1.00  0.00     0.032 A 
BRANCH  11  16
HETATM   16  O   UNL     1      27.678  37.215  47.615  1.00  0.00    -0.349 OA
BRANCH  16  17
HETATM   17  C   UNL     1      26.834  36.250  46.987  1.00  0.00     0.171 C 
HETATM   18  C   UNL     1      25.401  36.555  47.383  1.00  0.00     0.034 C 
ENDBRANCH  16  17
ENDBRANCH  11  16
ENDBRANCH   6  10
ENDBRANCH   1   3
BRANCH   1  19
HETATM   19  C   UNL     1      27.987  42.786  53.229  1.00  0.00     0.253 C 
HETATM   20  N   UNL     1      28.998  43.699  53.424  1.00  0.00    -0.325 N 
HETATM   21  H   UNL     1      29.350  44.216  52.624  1.00  0.00     0.169 HD
HETATM   22  O   UNL     1      27.691  41.854  53.976  1.00  0.00    -0.271 OA
BRANCH  20  23
HETATM   23  C   UNL     1      29.685  43.960  54.640  1.00  0.00     0.045 A 
HETATM   24  C   UNL     1      29.226  45.017  55.466  1.00  0.00     0.001 A 
HETATM   25  C   UNL     1      29.841  45.216  56.717  1.00  0.00     0.014 A 
HETATM   26  C   UNL     1      30.886  44.397  57.144  1.00  0.00     0.001 A 
HETATM   27  C   UNL     1      31.339  43.373  56.323  1.00  0.00     0.002 A 
HETATM   28  C   UNL     1      30.744  43.154  55.078  1.00  0.00     0.030 A 
BRANCH  24  29
HETATM   29  C   UNL     1      28.157  45.943  55.054  1.00  0.00    -0.024 A 
HETATM   30  C   UNL     1      26.854  45.482  54.817  1.00  0.00     0.012 A 
HETATM   31  C   UNL     1      25.844  46.366  54.430  1.00  0.00     0.001 A 
HETATM   32  C   UNL     1      26.126  47.722  54.273  1.00  0.00     0.000 A 
HETATM   33  C   UNL     1      27.414  48.197  54.509  1.00  0.00     0.001 A 
HETATM   34  C   UNL     1      28.422  47.314  54.899  1.00  0.00     0.012 A 
ENDBRANCH  24  29
ENDBRANCH  20  23
ENDBRANCH   1  19
TORSDOF 7
ENDMDL
MODEL 10
REMARK VINA RESULT:      -8.7      1.935      9.098
REMARK  7 active torsions:
REMARK  status: ('A' for Active; 'I' for Inactive)
REMARK    1  A    between atoms: C_2  and  O_3 
REMARK    2  A    between atoms: O_3  and  C_4 
REMARK    3  A    between atoms: C_5  and  N_6 
REMARK    4  A    between atoms: N_9  and  C_11 
REMARK    5  A    between atoms: C_11  and  C_12 
REMARK       I    between atoms: C_12  and  N_13 
REMARK    6  A    between atoms: N_13  and  C_14 
REMARK    7  A    between atoms: C_15  and  C_16 
ROOT
HETATM    1  C   UNL     1      25.160  47.042  50.866  1.00  0.00     0.275 C 
HETATM    2  C   UNL     1      26.494  47.691  50.519  1.00  0.00     0.050 C 
ENDROOT
BRANCH   1   3
HETATM    3  N   UNL     1      25.325  46.031  52.019  1.00  0.00    -0.056 N 
HETATM    4  C   UNL     1      26.152  44.782  51.684  1.00  0.00     0.255 C 
HETATM    5  C   UNL     1      26.048  43.768  52.843  1.00  0.00     0.150 C 
HETATM    6  N   UNL     1      26.485  44.384  54.109  1.00  0.00    -0.375 N 
HETATM    7  C   UNL     1      25.730  45.600  54.479  1.00  0.00     0.150 C 
HETATM    8  C   UNL     1      25.766  46.644  53.341  1.00  0.00     0.255 C 
HETATM    9  H   UNL     1      24.370  45.659  52.154  1.00  0.00     0.281 HD
BRANCH   6  10
HETATM   10  C   UNL     1      27.808  44.245  54.559  1.00  0.00     0.064 A 
HETATM   11  C   UNL     1      28.558  43.049  54.374  1.00  0.00     0.095 A 
HETATM   12  C   UNL     1      29.886  42.958  54.825  1.00  0.00     0.039 A 
HETATM   13  C   UNL     1      30.501  44.034  55.459  1.00  0.00     0.003 A 
HETATM   14  C   UNL     1      29.799  45.215  55.634  1.00  0.00     0.002 A 
HETATM   15  C   UNL     1      28.481  45.317  55.184  1.00  0.00     0.032 A 
BRANCH  11  16
HETATM   16  O   UNL     1      27.947  42.029  53.678  1.00  0.00    -0.349 OA
BRANCH  16  17
HETATM   17  C   UNL     1      28.779  41.098  52.987  1.00  0.00     0.171 C 
HETATM   18  C   UNL     1      28.251  40.960  51.571  1.00  0.00     0.034 C 
ENDBRANCH  16  17
ENDBRANCH  11  16
ENDBRANCH   6  10
ENDBRANCH   1   3
BRANCH   1  19
HETATM   19  C   UNL     1      24.494  46.344  49.652  1.00  0.00     0.253 C 
HETATM   20  N   UNL     1      23.119  46.385  49.630  1.00  0.00    -0.325 N 
HETATM   21  H   UNL     1      22.623  46.596  50.491  1.00  0.00     0.169 HD
HETATM   22  O   UNL     1      25.221  45.782  48.833  1.00  0.00    -0.271 OA
BRANCH  20  23
HETATM   23  C   UNL     1      22.276  46.083  48.527  1.00  0.00     0.045 A 
HETATM   24  C   UNL     1      21.756  47.153  47.755  1.00  0.00     0.001 A 
HETATM   25  C   UNL     1      21.003  46.855  46.604  1.00  0.00     0.014 A 
HETATM   26  C   UNL     1      20.762  45.536  46.221  1.00  0.00     0.001 A 
HETATM   27  C   UNL     1      21.263  44.493  46.990  1.00  0.00     0.002 A 
HETATM   28  C   UNL     1      22.015  44.763  48.136  1.00  0.00     0.030 A 
BRANCH  24  29
HETATM   29  C   UNL     1      21.938  48.565  48.130  1.00  0.00    -0.024 A 
HETATM   30  C   UNL     1      23.098  49.266  47.768  1.00  0.00     0.012 A 
HETATM   31  C   UNL     1      23.262  50.607  48.124  1.00  0.00     0.001 A 
HETATM   32  C   UNL     1      22.268  51.264  48.848  1.00  0.00     0.000 A 
HETATM   33  C   UNL     1      21.108  50.584  49.212  1.00  0.00     0.001 A 
HETATM   34  C   UNL     1      20.943  49.245  48.854  1.00  0.00     0.012 A 
ENDBRANCH  24  29
ENDBRANCH  20  23
ENDBRANCH   1  19
TORSDOF 7
ENDMDL
