MODEL 1
REMARK VINA RESULT:      -9.3      0.000      0.000
REMARK  3 active torsions:
REMARK  status: ('A' for Active; 'I' for Inactive)
REMARK    1  A    between atoms: C_2  and  C_3 
REMARK    2  A    between atoms: C_8  and  C_9 
REMARK    3  A    between atoms: C_9  and  N_10 
ROOT
HETATM    1  C   UNL     1      28.683  42.155  52.615  1.00  0.00     0.096 A 
HETATM    2  N   UNL     1      29.103  40.883  52.640  1.00  0.00    -0.174 NA
HETATM    3  N   UNL     1      28.686  40.346  51.493  1.00  0.00    -0.288 N 
HETATM    4  H   UNL     1      28.946  39.383  51.291  1.00  0.00     0.188 HD
HETATM    5  C   UNL     1      27.935  41.204  50.744  1.00  0.00     0.120 A 
HETATM    6  C   UNL     1      27.888  42.397  51.445  1.00  0.00     0.016 A 
ENDROOT
BRANCH   6   7
HETATM    7  C   UNL     1      27.190  43.650  51.057  1.00  0.00     0.277 C 
BRANCH   7   8
HETATM    8  N   UNL     1      25.681  43.568  51.152  1.00  0.00    -0.067 N 
HETATM    9  H   UNL     1      25.519  42.625  51.525  1.00  0.00     0.280 HD
HETATM   10  C   UNL     1      25.040  44.498  52.154  1.00  0.00     0.242 C 
HETATM   11  C   UNL     1      24.837  45.925  51.634  1.00  0.00     0.041 C 
HETATM   12  C   UNL     1      24.292  45.952  50.205  1.00  0.00     0.128 C 
HETATM   13  C   UNL     1      26.032  46.868  51.858  1.00  0.00     0.011 C 
HETATM   14  O   UNL     1      24.257  47.277  49.703  1.00  0.00    -0.385 OA
HETATM   15  C   UNL     1      24.969  44.985  49.239  1.00  0.00     0.060 C 
HETATM   16  C   UNL     1      25.488  47.992  49.648  1.00  0.00     0.168 C 
HETATM   17  C   UNL     1      26.578  47.487  50.582  1.00  0.00     0.027 C 
HETATM   18  C   UNL     1      24.988  43.584  49.815  1.00  0.00     0.237 C 
ENDBRANCH   7   8
ENDBRANCH   6   7
BRANCH   1  19
HETATM   19  C   UNL     1      29.023  43.064  53.712  1.00  0.00    -0.002 A 
HETATM   20  C   UNL     1      28.454  44.347  53.758  1.00  0.00     0.017 A 
HETATM   21  C   UNL     1      28.786  45.240  54.782  1.00  0.00     0.040 A 
HETATM   22  C   UNL     1      29.692  44.857  55.766  1.00  0.00     0.102 A 
HETATM   23  C   UNL     1      30.271  43.587  55.724  1.00  0.00     0.103 A 
HETATM   24  O   UNL     1      29.971  45.775  56.743  1.00  0.00    -0.346 OA
HETATM   25  C   UNL     1      29.911  42.682  54.725  1.00  0.00     0.053 A 
HETATM   26  O   UNL     1      31.206  43.154  56.630  1.00  0.00    -0.346 OA
HETATM   27  C   UNL     1      31.724  44.241  57.411  1.00  0.00     0.202 C 
HETATM   28  C   UNL     1      30.605  45.161  57.872  1.00  0.00     0.202 C 
ENDBRANCH   1  19
TORSDOF 3
ENDMDL
MODEL 2
REMARK VINA RESULT:      -8.9      3.873      8.937
REMARK  3 active torsions:
REMARK  status: ('A' for Active; 'I' for Inactive)
REMARK    1  A    between atoms: C_2  and  C_3 
REMARK    2  A    between atoms: C_8  and  C_9 
REMARK    3  A    between atoms: C_9  and  N_10 
ROOT
HETATM    1  C   UNL     1      25.474  49.385  48.709  1.00  0.00     0.096 A 
HETATM    2  N   UNL     1      26.237  50.217  47.988  1.00  0.00    -0.174 NA
HETATM    3  N   UNL     1      27.494  49.831  48.209  1.00  0.00    -0.288 N 
HETATM    4  H   UNL     1      28.240  50.312  47.710  1.00  0.00     0.188 HD
HETATM    5  C   UNL     1      27.589  48.817  49.117  1.00  0.00     0.120 A 
HETATM    6  C   UNL     1      26.293  48.503  49.489  1.00  0.00     0.016 A 
ENDROOT
BRANCH   6   7
HETATM    7  C   UNL     1      25.854  47.466  50.460  1.00  0.00     0.277 C 
BRANCH   7   8
HETATM    8  N   UNL     1      25.931  46.052  49.926  1.00  0.00    -0.067 N 
HETATM    9  H   UNL     1      26.164  46.186  48.935  1.00  0.00     0.280 HD
HETATM   10  C   UNL     1      27.053  45.207  50.480  1.00  0.00     0.242 C 
HETATM   11  C   UNL     1      26.743  44.578  51.842  1.00  0.00     0.041 C 
HETATM   12  C   UNL     1      25.331  43.993  51.905  1.00  0.00     0.128 C 
HETATM   13  C   UNL     1      27.105  45.454  53.054  1.00  0.00     0.011 C 
HETATM   14  O   UNL     1      25.023  43.555  53.217  1.00  0.00    -0.385 OA
HETATM   15  C   UNL     1      24.238  44.886  51.322  1.00  0.00     0.060 C 
HETATM   16  C   UNL     1      25.076  44.522  54.262  1.00  0.00     0.168 C 
HETATM   17  C   UNL     1      25.933  45.747  53.975  1.00  0.00     0.027 C 
HETATM   18  C   UNL     1      24.607  45.333  49.923  1.00  0.00     0.237 C 
ENDBRANCH   7   8
ENDBRANCH   6   7
BRANCH   1  19
HETATM   19  C   UNL     1      24.014  49.492  48.653  1.00  0.00    -0.002 A 
HETATM   20  C   UNL     1      23.404  50.756  48.682  1.00  0.00     0.017 A 
HETATM   21  C   UNL     1      22.011  50.878  48.659  1.00  0.00     0.040 A 
HETATM   22  C   UNL     1      21.217  49.736  48.609  1.00  0.00     0.102 A 
HETATM   23  C   UNL     1      21.814  48.474  48.590  1.00  0.00     0.103 A 
HETATM   24  O   UNL     1      19.862  49.925  48.582  1.00  0.00    -0.346 OA
HETATM   25  C   UNL     1      23.203  48.352  48.575  1.00  0.00     0.053 A 
HETATM   26  O   UNL     1      21.099  47.302  48.589  1.00  0.00    -0.346 OA
HETATM   27  C   UNL     1      19.719  47.528  48.911  1.00  0.00     0.202 C 
HETATM   28  C   UNL     1      19.177  48.737  48.165  1.00  0.00     0.202 C 
ENDBRANCH   1  19
TORSDOF 3
ENDMDL
MODEL 3
REMARK VINA RESULT:      -8.9     13.014     14.689
REMARK  3 active torsions:
REMARK  status: ('A' for Active; 'I' for Inactive)
REMARK    1  A    between atoms: C_2  and  C_3 
REMARK    2  A    between atoms: C_8  and  C_9 
REMARK    3  A    between atoms: C_9  and  N_10 
ROOT
HETATM    1  C   UNL     1      32.200  48.753  40.742  1.00  0.00     0.096 A 
HETATM    2  N   UNL     1      33.033  47.888  41.334  1.00  0.00    -0.174 NA
HETATM    3  N   UNL     1      34.076  48.614  41.738  1.00  0.00    -0.288 N 
HETATM    4  H   UNL     1      34.814  48.147  42.262  1.00  0.00     0.188 HD
HETATM    5  C   UNL     1      33.992  49.923  41.362  1.00  0.00     0.120 A 
HETATM    6  C   UNL     1      32.790  50.060  40.689  1.00  0.00     0.016 A 
ENDROOT
BRANCH   6   7
HETATM    7  C   UNL     1      32.230  51.291  40.073  1.00  0.00     0.277 C 
BRANCH   7   8
HETATM    8  N   UNL     1      31.880  52.374  41.072  1.00  0.00    -0.067 N 
HETATM    9  H   UNL     1      32.796  52.754  41.339  1.00  0.00     0.280 HD
HETATM   10  C   UNL     1      31.117  53.552  40.515  1.00  0.00     0.242 C 
HETATM   11  C   UNL     1      29.609  53.310  40.388  1.00  0.00     0.041 C 
HETATM   12  C   UNL     1      29.025  52.617  41.620  1.00  0.00     0.128 C 
HETATM   13  C   UNL     1      29.168  52.679  39.056  1.00  0.00     0.011 C 
HETATM   14  O   UNL     1      27.666  52.275  41.410  1.00  0.00    -0.385 OA
HETATM   15  C   UNL     1      29.843  51.440  42.146  1.00  0.00     0.060 C 
HETATM   16  C   UNL     1      27.366  51.412  40.317  1.00  0.00     0.168 C 
HETATM   17  C   UNL     1      28.413  51.370  39.212  1.00  0.00     0.027 C 
HETATM   18  C   UNL     1      31.287  51.847  42.352  1.00  0.00     0.237 C 
ENDBRANCH   7   8
ENDBRANCH   6   7
BRANCH   1  19
HETATM   19  C   UNL     1      30.908  48.294  40.224  1.00  0.00    -0.002 A 
HETATM   20  C   UNL     1      30.791  47.914  38.878  1.00  0.00     0.017 A 
HETATM   21  C   UNL     1      29.561  47.500  38.357  1.00  0.00     0.040 A 
HETATM   22  C   UNL     1      28.438  47.465  39.179  1.00  0.00     0.102 A 
HETATM   23  C   UNL     1      28.543  47.852  40.517  1.00  0.00     0.103 A 
HETATM   24  O   UNL     1      27.266  47.046  38.609  1.00  0.00    -0.346 OA
HETATM   25  C   UNL     1      29.777  48.228  41.047  1.00  0.00     0.053 A 
HETATM   26  O   UNL     1      27.473  47.890  41.376  1.00  0.00    -0.346 OA
HETATM   27  C   UNL     1      26.227  47.786  40.670  1.00  0.00     0.202 C 
HETATM   28  C   UNL     1      26.295  46.703  39.606  1.00  0.00     0.202 C 
ENDBRANCH   1  19
TORSDOF 3
ENDMDL
MODEL 4
REMARK VINA RESULT:      -8.9      1.256      2.102
REMARK  3 active torsions:
REMARK  status: ('A' for Active; 'I' for Inactive)
REMARK    1  A    between atoms: C_2  and  C_3 
REMARK    2  A    between atoms: C_8  and  C_9 
REMARK    3  A    between atoms: C_9  and  N_10 
ROOT
HETATM    1  C   UNL     1      28.825  42.147  53.036  1.00  0.00     0.096 A 
HETATM    2  N   UNL     1      28.797  40.810  53.112  1.00  0.00    -0.174 NA
HETATM    3  N   UNL     1      28.309  40.395  51.942  1.00  0.00    -0.288 N 
HETATM    4  H   UNL     1      28.249  39.393  51.774  1.00  0.00     0.188 HD
HETATM    5  C   UNL     1      27.939  41.422  51.124  1.00  0.00     0.120 A 
HETATM    6  C   UNL     1      28.239  42.590  51.803  1.00  0.00     0.016 A 
ENDROOT
BRANCH   6   7
HETATM    7  C   UNL     1      28.023  43.988  51.344  1.00  0.00     0.277 C 
BRANCH   7   8
HETATM    8  N   UNL     1      26.783  44.171  50.495  1.00  0.00    -0.067 N 
HETATM    9  H   UNL     1      26.856  43.416  49.804  1.00  0.00     0.280 HD
HETATM   10  C   UNL     1      25.471  43.929  51.200  1.00  0.00     0.242 C 
HETATM   11  C   UNL     1      24.975  45.126  52.019  1.00  0.00     0.041 C 
HETATM   12  C   UNL     1      25.133  46.449  51.268  1.00  0.00     0.128 C 
HETATM   13  C   UNL     1      25.489  45.172  53.469  1.00  0.00     0.011 C 
HETATM   14  O   UNL     1      24.807  47.546  52.105  1.00  0.00    -0.385 OA
HETATM   15  C   UNL     1      26.475  46.636  50.566  1.00  0.00     0.060 C 
HETATM   16  C   UNL     1      25.558  47.704  53.305  1.00  0.00     0.168 C 
HETATM   17  C   UNL     1      26.243  46.444  53.817  1.00  0.00     0.027 C 
HETATM   18  C   UNL     1      26.786  45.443  49.687  1.00  0.00     0.237 C 
ENDBRANCH   7   8
ENDBRANCH   6   7
BRANCH   1  19
HETATM   19  C   UNL     1      29.366  42.936  54.145  1.00  0.00    -0.002 A 
HETATM   20  C   UNL     1      30.629  42.623  54.674  1.00  0.00     0.017 A 
HETATM   21  C   UNL     1      31.152  43.346  55.750  1.00  0.00     0.040 A 
HETATM   22  C   UNL     1      30.414  44.386  56.309  1.00  0.00     0.102 A 
HETATM   23  C   UNL     1      29.153  44.698  55.797  1.00  0.00     0.103 A 
HETATM   24  O   UNL     1      30.984  45.057  57.357  1.00  0.00    -0.346 OA
HETATM   25  C   UNL     1      28.647  44.003  54.698  1.00  0.00     0.053 A 
HETATM   26  O   UNL     1      28.347  45.676  56.323  1.00  0.00    -0.346 OA
HETATM   27  C   UNL     1      28.815  46.109  57.609  1.00  0.00     0.202 C 
HETATM   28  C   UNL     1      30.323  46.305  57.600  1.00  0.00     0.202 C 
ENDBRANCH   1  19
TORSDOF 3
ENDMDL
MODEL 5
REMARK VINA RESULT:      -8.8      5.367      8.514
REMARK  3 active torsions:
REMARK  status: ('A' for Active; 'I' for Inactive)
REMARK    1  A    between atoms: C_2  and  C_3 
REMARK    2  A    between atoms: C_8  and  C_9 
REMARK    3  A    between atoms: C_9  and  N_10 
ROOT
HETATM    1  C   UNL     1      23.731  48.714  48.761  1.00  0.00     0.096 A 
HETATM    2  N   UNL     1      24.796  49.438  48.389  1.00  0.00    -0.174 NA
HETATM    3  N   UNL     1      24.300  50.552  47.850  1.00  0.00    -0.288 N 
HETATM    4  H   UNL     1      24.954  51.269  47.541  1.00  0.00     0.188 HD
HETATM    5  C   UNL     1      22.937  50.553  47.784  1.00  0.00     0.120 A 
HETATM    6  C   UNL     1      22.518  49.361  48.351  1.00  0.00     0.016 A 
ENDROOT
BRANCH   6   7
HETATM    7  C   UNL     1      21.123  48.877  48.517  1.00  0.00     0.277 C 
BRANCH   7   8
HETATM    8  N   UNL     1      20.555  49.099  49.903  1.00  0.00    -0.067 N 
HETATM    9  H   UNL     1      21.216  48.602  50.511  1.00  0.00     0.280 HD
HETATM   10  C   UNL     1      20.574  50.527  50.392  1.00  0.00     0.242 C 
HETATM   11  C   UNL     1      19.406  51.375  49.878  1.00  0.00     0.041 C 
HETATM   12  C   UNL     1      18.072  50.630  49.946  1.00  0.00     0.128 C 
HETATM   13  C   UNL     1      19.659  52.070  48.529  1.00  0.00     0.011 C 
HETATM   14  O   UNL     1      17.041  51.382  49.328  1.00  0.00    -0.385 OA
HETATM   15  C   UNL     1      18.114  49.188  49.448  1.00  0.00     0.060 C 
HETATM   16  C   UNL     1      17.210  51.725  47.956  1.00  0.00     0.168 C 
HETATM   17  C   UNL     1      18.647  51.715  47.452  1.00  0.00     0.027 C 
HETATM   18  C   UNL     1      19.229  48.422  50.129  1.00  0.00     0.237 C 
ENDBRANCH   7   8
ENDBRANCH   6   7
BRANCH   1  19
HETATM   19  C   UNL     1      23.916  47.434  49.449  1.00  0.00    -0.002 A 
HETATM   20  C   UNL     1      23.270  46.283  48.969  1.00  0.00     0.017 A 
HETATM   21  C   UNL     1      23.411  45.058  49.628  1.00  0.00     0.040 A 
HETATM   22  C   UNL     1      24.196  44.975  50.774  1.00  0.00     0.102 A 
HETATM   23  C   UNL     1      24.834  46.116  51.265  1.00  0.00     0.103 A 
HETATM   24  O   UNL     1      24.297  43.746  51.368  1.00  0.00    -0.346 OA
HETATM   25  C   UNL     1      24.726  47.330  50.587  1.00  0.00     0.053 A 
HETATM   26  O   UNL     1      25.585  46.124  52.414  1.00  0.00    -0.346 OA
HETATM   27  C   UNL     1      25.383  44.929  53.183  1.00  0.00     0.202 C 
HETATM   28  C   UNL     1      25.393  43.700  52.290  1.00  0.00     0.202 C 
ENDBRANCH   1  19
TORSDOF 3
ENDMDL
MODEL 6
REMARK VINA RESULT:      -8.7      1.197      1.846
REMARK  3 active torsions:
REMARK  status: ('A' for Active; 'I' for Inactive)
REMARK    1  A    between atoms: C_2  and  C_3 
REMARK    2  A    between atoms: C_8  and  C_9 
REMARK    3  A    between atoms: C_9  and  N_10 
ROOT
HETATM    1  C   UNL     1      28.411  41.592  51.741  1.00  0.00     0.096 A 
HETATM    2  N   UNL     1      28.797  40.310  51.755  1.00  0.00    -0.174 NA
HETATM    3  N   UNL     1      28.286  39.770  50.648  1.00  0.00    -0.288 N 
HETATM    4  H   UNL     1      28.505  38.797  50.442  1.00  0.00     0.188 HD
HETATM    5  C   UNL     1      27.508  40.639  49.941  1.00  0.00     0.120 A 
HETATM    6  C   UNL     1      27.543  41.841  50.626  1.00  0.00     0.016 A 
ENDROOT
BRANCH   6   7
HETATM    7  C   UNL     1      26.852  43.109  50.270  1.00  0.00     0.277 C 
BRANCH   7   8
HETATM    8  N   UNL     1      25.350  43.064  50.454  1.00  0.00    -0.067 N 
HETATM    9  H   UNL     1      25.169  42.076  50.670  1.00  0.00     0.280 HD
HETATM   10  C   UNL     1      24.817  43.826  51.643  1.00  0.00     0.242 C 
HETATM   11  C   UNL     1      24.648  45.328  51.392  1.00  0.00     0.041 C 
HETATM   12  C   UNL     1      24.017  45.624  50.031  1.00  0.00     0.128 C 
HETATM   13  C   UNL     1      25.897  46.176  51.692  1.00  0.00     0.011 C 
HETATM   14  O   UNL     1      24.012  47.016  49.767  1.00  0.00    -0.385 OA
HETATM   15  C   UNL     1      24.587  44.817  48.867  1.00  0.00     0.060 C 
HETATM   16  C   UNL     1      25.269  47.687  49.751  1.00  0.00     0.168 C 
HETATM   17  C   UNL     1      26.391  46.988  50.506  1.00  0.00     0.027 C 
HETATM   18  C   UNL     1      24.577  43.337  49.191  1.00  0.00     0.237 C 
ENDBRANCH   7   8
ENDBRANCH   6   7
BRANCH   1  19
HETATM   19  C   UNL     1      28.851  42.505  52.799  1.00  0.00    -0.002 A 
HETATM   20  C   UNL     1      30.114  42.335  53.388  1.00  0.00     0.017 A 
HETATM   21  C   UNL     1      30.541  43.177  54.419  1.00  0.00     0.040 A 
HETATM   22  C   UNL     1      29.707  44.196  54.871  1.00  0.00     0.102 A 
HETATM   23  C   UNL     1      28.445  44.367  54.298  1.00  0.00     0.103 A 
HETATM   24  O   UNL     1      30.186  44.988  55.878  1.00  0.00    -0.346 OA
HETATM   25  C   UNL     1      28.033  43.551  53.244  1.00  0.00     0.053 A 
HETATM   26  O   UNL     1      27.548  45.316  54.720  1.00  0.00    -0.346 OA
HETATM   27  C   UNL     1      27.936  45.882  55.981  1.00  0.00     0.202 C 
HETATM   28  C   UNL     1      29.423  46.195  56.001  1.00  0.00     0.202 C 
ENDBRANCH   1  19
TORSDOF 3
ENDMDL
MODEL 7
REMARK VINA RESULT:      -8.5     12.777     15.325
REMARK  3 active torsions:
REMARK  status: ('A' for Active; 'I' for Inactive)
REMARK    1  A    between atoms: C_2  and  C_3 
REMARK    2  A    between atoms: C_8  and  C_9 
REMARK    3  A    between atoms: C_9  and  N_10 
ROOT
HETATM    1  C   UNL     1      28.967  51.179  39.023  1.00  0.00     0.096 A 
HETATM    2  N   UNL     1      28.518  51.780  37.914  1.00  0.00    -0.174 NA
HETATM    3  N   UNL     1      28.713  53.085  38.109  1.00  0.00    -0.288 N 
HETATM    4  H   UNL     1      28.478  53.725  37.353  1.00  0.00     0.188 HD
HETATM    5  C   UNL     1      29.207  53.371  39.348  1.00  0.00     0.120 A 
HETATM    6  C   UNL     1      29.373  52.157  39.992  1.00  0.00     0.016 A 
ENDROOT
BRANCH   6   7
HETATM    7  C   UNL     1      29.880  51.923  41.370  1.00  0.00     0.277 C 
BRANCH   7   8
HETATM    8  N   UNL     1      31.284  52.439  41.605  1.00  0.00    -0.067 N 
HETATM    9  H   UNL     1      31.145  53.448  41.736  1.00  0.00     0.280 HD
HETATM   10  C   UNL     1      31.946  51.968  42.877  1.00  0.00     0.242 C 
HETATM   11  C   UNL     1      32.575  50.574  42.770  1.00  0.00     0.041 C 
HETATM   12  C   UNL     1      33.350  50.384  41.466  1.00  0.00     0.128 C 
HETATM   13  C   UNL     1      31.623  49.411  43.100  1.00  0.00     0.011 C 
HETATM   14  O   UNL     1      33.791  49.044  41.331  1.00  0.00    -0.385 OA
HETATM   15  C   UNL     1      32.638  50.887  40.213  1.00  0.00     0.060 C 
HETATM   16  C   UNL     1      32.798  48.022  41.329  1.00  0.00     0.168 C 
HETATM   17  C   UNL     1      31.473  48.399  41.976  1.00  0.00     0.027 C 
HETATM   18  C   UNL     1      32.181  52.319  40.401  1.00  0.00     0.237 C 
ENDBRANCH   7   8
ENDBRANCH   6   7
BRANCH   1  19
HETATM   19  C   UNL     1      28.956  49.718  39.125  1.00  0.00    -0.002 A 
HETATM   20  C   UNL     1      30.044  48.975  38.641  1.00  0.00     0.017 A 
HETATM   21  C   UNL     1      30.040  47.579  38.703  1.00  0.00     0.040 A 
HETATM   22  C   UNL     1      28.945  46.913  39.248  1.00  0.00     0.102 A 
HETATM   23  C   UNL     1      27.853  47.643  39.722  1.00  0.00     0.103 A 
HETATM   24  O   UNL     1      29.006  45.546  39.284  1.00  0.00    -0.346 OA
HETATM   25  C   UNL     1      27.873  49.037  39.696  1.00  0.00     0.053 A 
HETATM   26  O   UNL     1      26.720  47.059  40.228  1.00  0.00    -0.346 OA
HETATM   27  C   UNL     1      26.673  45.655  39.931  1.00  0.00     0.202 C 
HETATM   28  C   UNL     1      28.025  45.004  40.176  1.00  0.00     0.202 C 
ENDBRANCH   1  19
TORSDOF 3
ENDMDL
MODEL 8
REMARK VINA RESULT:      -8.5      2.401      4.343
REMARK  3 active torsions:
REMARK  status: ('A' for Active; 'I' for Inactive)
REMARK    1  A    between atoms: C_2  and  C_3 
REMARK    2  A    between atoms: C_8  and  C_9 
REMARK    3  A    between atoms: C_9  and  N_10 
ROOT
HETATM    1  C   UNL     1      27.161  46.198  54.141  1.00  0.00     0.096 A 
HETATM    2  N   UNL     1      26.973  47.466  54.532  1.00  0.00    -0.174 NA
HETATM    3  N   UNL     1      25.886  47.884  53.882  1.00  0.00    -0.288 N 
HETATM    4  H   UNL     1      25.540  48.821  54.078  1.00  0.00     0.188 HD
HETATM    5  C   UNL     1      25.394  46.955  53.012  1.00  0.00     0.120 A 
HETATM    6  C   UNL     1      26.206  45.840  53.131  1.00  0.00     0.016 A 
ENDROOT
BRANCH   6   7
HETATM    7  C   UNL     1      26.096  44.555  52.392  1.00  0.00     0.277 C 
BRANCH   7   8
HETATM    8  N   UNL     1      25.736  44.715  50.930  1.00  0.00    -0.067 N 
HETATM    9  H   UNL     1      25.640  45.731  50.821  1.00  0.00     0.280 HD
HETATM   10  C   UNL     1      26.812  44.317  49.949  1.00  0.00     0.242 C 
HETATM   11  C   UNL     1      26.875  42.811  49.673  1.00  0.00     0.041 C 
HETATM   12  C   UNL     1      25.488  42.196  49.478  1.00  0.00     0.128 C 
HETATM   13  C   UNL     1      27.774  42.017  50.637  1.00  0.00     0.011 C 
HETATM   14  O   UNL     1      25.570  40.785  49.375  1.00  0.00    -0.385 OA
HETATM   15  C   UNL     1      24.438  42.641  50.493  1.00  0.00     0.060 C 
HETATM   16  C   UNL     1      26.143  40.078  50.471  1.00  0.00     0.168 C 
HETATM   17  C   UNL     1      27.054  40.899  51.373  1.00  0.00     0.027 C 
HETATM   18  C   UNL     1      24.385  44.153  50.574  1.00  0.00     0.237 C 
ENDBRANCH   7   8
ENDBRANCH   6   7
BRANCH   1  19
HETATM   19  C   UNL     1      28.252  45.406  54.712  1.00  0.00    -0.002 A 
HETATM   20  C   UNL     1      28.596  44.173  54.134  1.00  0.00     0.017 A 
HETATM   21  C   UNL     1      29.616  43.388  54.681  1.00  0.00     0.040 A 
HETATM   22  C   UNL     1      30.298  43.829  55.811  1.00  0.00     0.102 A 
HETATM   23  C   UNL     1      29.956  45.049  56.399  1.00  0.00     0.103 A 
HETATM   24  O   UNL     1      31.289  43.017  56.293  1.00  0.00    -0.346 OA
HETATM   25  C   UNL     1      28.966  45.850  55.832  1.00  0.00     0.053 A 
HETATM   26  O   UNL     1      30.549  45.528  57.540  1.00  0.00    -0.346 OA
HETATM   27  C   UNL     1      31.317  44.511  58.201  1.00  0.00     0.202 C 
HETATM   28  C   UNL     1      32.145  43.720  57.202  1.00  0.00     0.202 C 
ENDBRANCH   1  19
TORSDOF 3
ENDMDL
MODEL 9
REMARK VINA RESULT:      -8.1      2.553      4.775
REMARK  3 active torsions:
REMARK  status: ('A' for Active; 'I' for Inactive)
REMARK    1  A    between atoms: C_2  and  C_3 
REMARK    2  A    between atoms: C_8  and  C_9 
REMARK    3  A    between atoms: C_9  and  N_10 
ROOT
HETATM    1  C   UNL     1      26.166  45.023  52.522  1.00  0.00     0.096 A 
HETATM    2  N   UNL     1      25.083  45.809  52.455  1.00  0.00    -0.174 NA
HETATM    3  N   UNL     1      24.351  45.326  51.449  1.00  0.00    -0.288 N 
HETATM    4  H   UNL     1      23.450  45.758  51.259  1.00  0.00     0.188 HD
HETATM    5  C   UNL     1      24.957  44.291  50.799  1.00  0.00     0.120 A 
HETATM    6  C   UNL     1      26.157  44.068  51.452  1.00  0.00     0.016 A 
ENDROOT
BRANCH   6   7
HETATM    7  C   UNL     1      27.191  43.049  51.127  1.00  0.00     0.277 C 
BRANCH   7   8
HETATM    8  N   UNL     1      26.903  41.677  51.700  1.00  0.00    -0.067 N 
HETATM    9  H   UNL     1      26.502  41.886  52.622  1.00  0.00     0.280 HD
HETATM   10  C   UNL     1      25.838  40.883  50.983  1.00  0.00     0.242 C 
HETATM   11  C   UNL     1      26.345  40.154  49.734  1.00  0.00     0.041 C 
HETATM   12  C   UNL     1      27.692  39.468  49.965  1.00  0.00     0.128 C 
HETATM   13  C   UNL     1      26.285  40.980  48.437  1.00  0.00     0.011 C 
HETATM   14  O   UNL     1      28.201  38.933  48.756  1.00  0.00    -0.385 OA
HETATM   15  C   UNL     1      28.726  40.314  50.704  1.00  0.00     0.060 C 
HETATM   16  C   UNL     1      28.421  39.837  47.677  1.00  0.00     0.168 C 
HETATM   17  C   UNL     1      27.627  41.135  47.742  1.00  0.00     0.027 C 
HETATM   18  C   UNL     1      28.142  40.869  51.986  1.00  0.00     0.237 C 
ENDBRANCH   7   8
ENDBRANCH   6   7
BRANCH   1  19
HETATM   19  C   UNL     1      27.168  45.240  53.567  1.00  0.00    -0.002 A 
HETATM   20  C   UNL     1      27.268  46.495  54.190  1.00  0.00     0.017 A 
HETATM   21  C   UNL     1      28.236  46.731  55.170  1.00  0.00     0.040 A 
HETATM   22  C   UNL     1      29.116  45.715  55.533  1.00  0.00     0.102 A 
HETATM   23  C   UNL     1      29.032  44.467  54.911  1.00  0.00     0.103 A 
HETATM   24  O   UNL     1      30.037  46.009  56.502  1.00  0.00    -0.346 OA
HETATM   25  C   UNL     1      28.041  44.219  53.961  1.00  0.00     0.053 A 
HETATM   26  O   UNL     1      29.892  43.432  55.180  1.00  0.00    -0.346 OA
HETATM   27  C   UNL     1      31.036  43.878  55.923  1.00  0.00     0.202 C 
HETATM   28  C   UNL     1      30.623  44.818  57.043  1.00  0.00     0.202 C 
ENDBRANCH   1  19
TORSDOF 3
ENDMDL
MODEL 10
REMARK VINA RESULT:      -8.0      6.814     10.047
REMARK  3 active torsions:
REMARK  status: ('A' for Active; 'I' for Inactive)
REMARK    1  A    between atoms: C_2  and  C_3 
REMARK    2  A    between atoms: C_8  and  C_9 
REMARK    3  A    between atoms: C_9  and  N_10 
ROOT
HETATM    1  C   UNL     1      21.478  47.846  48.885  1.00  0.00     0.096 A 
HETATM    2  N   UNL     1      21.353  46.514  48.816  1.00  0.00    -0.174 NA
HETATM    3  N   UNL     1      20.051  46.268  48.974  1.00  0.00    -0.288 N 
HETATM    4  H   UNL     1      19.732  45.304  48.906  1.00  0.00     0.188 HD
HETATM    5  C   UNL     1      19.322  47.394  49.224  1.00  0.00     0.120 A 
HETATM    6  C   UNL     1      20.215  48.452  49.195  1.00  0.00     0.016 A 
ENDROOT
BRANCH   6   7
HETATM    7  C   UNL     1      19.921  49.893  49.413  1.00  0.00     0.277 C 
BRANCH   7   8
HETATM    8  N   UNL     1      20.136  50.757  48.188  1.00  0.00    -0.067 N 
HETATM    9  H   UNL     1      21.148  50.691  48.028  1.00  0.00     0.280 HD
HETATM   10  C   UNL     1      19.505  50.248  46.915  1.00  0.00     0.242 C 
HETATM   11  C   UNL     1      18.017  50.588  46.780  1.00  0.00     0.041 C 
HETATM   12  C   UNL     1      17.711  52.031  47.184  1.00  0.00     0.128 C 
HETATM   13  C   UNL     1      17.062  49.555  47.402  1.00  0.00     0.011 C 
HETATM   14  O   UNL     1      16.314  52.268  47.192  1.00  0.00    -0.385 OA
HETATM   15  C   UNL     1      18.383  52.495  48.474  1.00  0.00     0.060 C 
HETATM   16  C   UNL     1      15.514  51.460  48.050  1.00  0.00     0.168 C 
HETATM   17  C   UNL     1      16.133  50.130  48.458  1.00  0.00     0.027 C 
HETATM   18  C   UNL     1      19.872  52.220  48.426  1.00  0.00     0.237 C 
ENDBRANCH   7   8
ENDBRANCH   6   7
BRANCH   1  19
HETATM   19  C   UNL     1      22.788  48.473  48.692  1.00  0.00    -0.002 A 
HETATM   20  C   UNL     1      22.910  49.595  47.857  1.00  0.00     0.017 A 
HETATM   21  C   UNL     1      24.155  50.190  47.638  1.00  0.00     0.040 A 
HETATM   22  C   UNL     1      25.290  49.667  48.250  1.00  0.00     0.102 A 
HETATM   23  C   UNL     1      25.181  48.545  49.075  1.00  0.00     0.103 A 
HETATM   24  O   UNL     1      26.478  50.299  47.999  1.00  0.00    -0.346 OA
HETATM   25  C   UNL     1      23.933  47.973  49.325  1.00  0.00     0.053 A 
HETATM   26  O   UNL     1      26.258  47.943  49.675  1.00  0.00    -0.346 OA
HETATM   27  C   UNL     1      27.498  48.407  49.119  1.00  0.00     0.202 C 
HETATM   28  C   UNL     1      27.483  49.918  48.946  1.00  0.00     0.202 C 
ENDBRANCH   1  19
TORSDOF 3
ENDMDL
