MODEL 1
REMARK VINA RESULT:      -9.0      0.000      0.000
REMARK  5 active torsions:
REMARK  status: ('A' for Active; 'I' for Inactive)
REMARK    1  A    between atoms: C_8  and  C_9 
REMARK    2  A    between atoms: N_10  and  N_11 
REMARK       I    between atoms: N_11  and  C_12 
REMARK    3  A    between atoms: C_12  and  C_13 
REMARK    4  A    between atoms: C_13  and  O_14 
REMARK    5  A    between atoms: O_14  and  C_15 
ROOT
HETATM    1  N   UNL     1      26.179  46.412  52.111  1.00  0.00    -0.246 N 
HETATM    2  C   UNL     1      25.530  45.226  52.431  1.00  0.00     0.261 C 
HETATM    3  O   UNL     1      24.388  44.910  52.099  1.00  0.00    -0.269 OA
HETATM    4  H   UNL     1      27.191  46.427  52.239  1.00  0.00     0.192 HD
ENDROOT
BRANCH   1   5
HETATM    5  N   UNL     1      25.697  47.420  51.310  1.00  0.00    -0.184 NA
HETATM    6  C   UNL     1      26.112  47.498  50.086  1.00  0.00     0.152 C 
BRANCH   6   7
HETATM    7  C   UNL     1      25.636  48.569  49.233  1.00  0.00     0.011 A 
HETATM    8  C   UNL     1      24.269  48.890  48.944  1.00  0.00     0.004 A 
HETATM    9  C   UNL     1      23.027  48.336  49.322  1.00  0.00     0.014 A 
HETATM   10  C   UNL     1      24.269  49.996  48.092  1.00  0.00     0.043 A 
HETATM   11  C   UNL     1      21.842  48.906  48.845  1.00  0.00     0.001 A 
HETATM   12  C   UNL     1      21.877  50.014  48.002  1.00  0.00     0.002 A 
HETATM   13  C   UNL     1      23.093  50.581  47.608  1.00  0.00     0.030 A 
HETATM   14  N   UNL     1      25.584  50.333  47.869  1.00  0.00    -0.364 N 
HETATM   15  H   UNL     1      25.888  51.100  47.285  1.00  0.00     0.165 HD
HETATM   16  C   UNL     1      26.414  49.480  48.544  1.00  0.00     0.102 A 
ENDBRANCH   6   7
ENDBRANCH   1   5
BRANCH   2  17
HETATM   17  C   UNL     1      26.352  44.322  53.348  1.00  0.00     0.280 C 
BRANCH  17  18
HETATM   18  O   UNL     1      27.719  44.268  52.959  1.00  0.00    -0.340 OA
BRANCH  18  19
HETATM   19  C   UNL     1      28.643  44.195  53.972  1.00  0.00     0.091 A 
HETATM   20  C   UNL     1      29.481  43.068  53.993  1.00  0.00     0.068 A 
HETATM   21 CL   UNL     1      29.333  41.823  52.803  1.00  0.00    -0.081 Cl
HETATM   22  C   UNL     1      30.454  42.916  54.984  1.00  0.00     0.046 A 
HETATM   23  C   UNL     1      30.600  43.899  55.957  1.00  0.00     0.012 A 
HETATM   24 BR   UNL     1      31.914  43.706  57.302  1.00  0.00    -0.051 Br
HETATM   25  C   UNL     1      29.786  45.031  55.944  1.00  0.00     0.022 A 
HETATM   26  C   UNL     1      28.811  45.179  54.953  1.00  0.00     0.040 A 
ENDBRANCH  18  19
ENDBRANCH  17  18
ENDBRANCH   2  17
TORSDOF 5
ENDMDL
MODEL 2
REMARK VINA RESULT:      -8.8      4.827      9.748
REMARK  5 active torsions:
REMARK  status: ('A' for Active; 'I' for Inactive)
REMARK    1  A    between atoms: C_8  and  C_9 
REMARK    2  A    between atoms: N_10  and  N_11 
REMARK       I    between atoms: N_11  and  C_12 
REMARK    3  A    between atoms: C_12  and  C_13 
REMARK    4  A    between atoms: C_13  and  O_14 
REMARK    5  A    between atoms: O_14  and  C_15 
ROOT
HETATM    1  N   UNL     1      24.608  46.807  51.151  1.00  0.00    -0.246 N 
HETATM    2  C   UNL     1      24.492  47.538  49.976  1.00  0.00     0.261 C 
HETATM    3  O   UNL     1      25.159  48.523  49.662  1.00  0.00    -0.269 OA
HETATM    4  H   UNL     1      24.172  45.886  51.162  1.00  0.00     0.192 HD
ENDROOT
BRANCH   1   5
HETATM    5  N   UNL     1      25.532  47.004  52.151  1.00  0.00    -0.184 NA
HETATM    6  C   UNL     1      25.886  45.996  52.882  1.00  0.00     0.152 C 
BRANCH   6   7
HETATM    7  C   UNL     1      26.839  46.187  53.958  1.00  0.00     0.011 A 
HETATM    8  C   UNL     1      27.929  45.322  54.299  1.00  0.00     0.004 A 
HETATM    9  C   UNL     1      28.412  44.098  53.788  1.00  0.00     0.014 A 
HETATM   10  C   UNL     1      28.593  45.894  55.386  1.00  0.00     0.043 A 
HETATM   11  C   UNL     1      29.532  43.499  54.373  1.00  0.00     0.001 A 
HETATM   12  C   UNL     1      30.175  44.099  55.452  1.00  0.00     0.002 A 
HETATM   13  C   UNL     1      29.717  45.309  55.981  1.00  0.00     0.030 A 
HETATM   14  N   UNL     1      27.930  47.059  55.696  1.00  0.00    -0.364 N 
HETATM   15  H   UNL     1      28.190  47.684  56.447  1.00  0.00     0.165 HD
HETATM   16  C   UNL     1      26.872  47.243  54.849  1.00  0.00     0.102 A 
ENDBRANCH   6   7
ENDBRANCH   1   5
BRANCH   2  17
HETATM   17  C   UNL     1      23.354  47.053  49.080  1.00  0.00     0.280 C 
BRANCH  17  18
HETATM   18  O   UNL     1      22.970  48.035  48.125  1.00  0.00    -0.340 OA
BRANCH  18  19
HETATM   19  C   UNL     1      21.938  48.869  48.484  1.00  0.00     0.091 A 
HETATM   20  C   UNL     1      22.154  50.250  48.342  1.00  0.00     0.068 A 
HETATM   21 CL   UNL     1      23.663  50.863  47.761  1.00  0.00    -0.081 Cl
HETATM   22  C   UNL     1      21.157  51.170  48.677  1.00  0.00     0.046 A 
HETATM   23  C   UNL     1      19.931  50.710  49.147  1.00  0.00     0.012 A 
HETATM   24 BR   UNL     1      18.574  51.944  49.601  1.00  0.00    -0.051 Br
HETATM   25  C   UNL     1      19.695  49.343  49.281  1.00  0.00     0.022 A 
HETATM   26  C   UNL     1      20.695  48.424  48.949  1.00  0.00     0.040 A 
ENDBRANCH  18  19
ENDBRANCH  17  18
ENDBRANCH   2  17
TORSDOF 5
ENDMDL
MODEL 3
REMARK VINA RESULT:      -8.6      1.759      2.066
REMARK  5 active torsions:
REMARK  status: ('A' for Active; 'I' for Inactive)
REMARK    1  A    between atoms: C_8  and  C_9 
REMARK    2  A    between atoms: N_10  and  N_11 
REMARK       I    between atoms: N_11  and  C_12 
REMARK    3  A    between atoms: C_12  and  C_13 
REMARK    4  A    between atoms: C_13  and  O_14 
REMARK    5  A    between atoms: O_14  and  C_15 
ROOT
HETATM    1  N   UNL     1      25.859  44.909  50.751  1.00  0.00    -0.246 N 
HETATM    2  C   UNL     1      26.621  43.791  50.437  1.00  0.00     0.261 C 
HETATM    3  O   UNL     1      27.160  43.558  49.355  1.00  0.00    -0.269 OA
HETATM    4  H   UNL     1      25.691  45.084  51.741  1.00  0.00     0.192 HD
ENDROOT
BRANCH   1   5
HETATM    5  N   UNL     1      25.621  45.993  49.939  1.00  0.00    -0.184 NA
HETATM    6  C   UNL     1      26.177  47.126  50.230  1.00  0.00     0.152 C 
BRANCH   6   7
HETATM    7  C   UNL     1      25.919  48.287  49.402  1.00  0.00     0.011 A 
HETATM    8  C   UNL     1      24.638  48.851  49.093  1.00  0.00     0.004 A 
HETATM    9  C   UNL     1      23.308  48.513  49.426  1.00  0.00     0.014 A 
HETATM   10  C   UNL     1      24.854  49.964  48.278  1.00  0.00     0.043 A 
HETATM   11  C   UNL     1      22.254  49.294  48.941  1.00  0.00     0.001 A 
HETATM   12  C   UNL     1      22.505  50.402  48.136  1.00  0.00     0.002 A 
HETATM   13  C   UNL     1      23.811  50.758  47.788  1.00  0.00     0.030 A 
HETATM   14  N   UNL     1      26.213  50.071  48.095  1.00  0.00    -0.364 N 
HETATM   15  H   UNL     1      26.663  50.789  47.544  1.00  0.00     0.165 HD
HETATM   16  C   UNL     1      26.863  49.067  48.761  1.00  0.00     0.102 A 
ENDBRANCH   6   7
ENDBRANCH   1   5
BRANCH   2  17
HETATM   17  C   UNL     1      26.680  42.769  51.571  1.00  0.00     0.280 C 
BRANCH  17  18
HETATM   18  O   UNL     1      26.492  43.374  52.844  1.00  0.00    -0.340 OA
BRANCH  18  19
HETATM   19  C   UNL     1      27.609  43.503  53.633  1.00  0.00     0.091 A 
HETATM   20  C   UNL     1      27.779  44.727  54.303  1.00  0.00     0.068 A 
HETATM   21 CL   UNL     1      26.639  46.013  54.117  1.00  0.00    -0.081 Cl
HETATM   22  C   UNL     1      28.884  44.943  55.132  1.00  0.00     0.046 A 
HETATM   23  C   UNL     1      29.820  43.929  55.303  1.00  0.00     0.012 A 
HETATM   24 BR   UNL     1      31.317  44.208  56.423  1.00  0.00    -0.051 Br
HETATM   25  C   UNL     1      29.660  42.704  54.657  1.00  0.00     0.022 A 
HETATM   26  C   UNL     1      28.556  42.491  53.825  1.00  0.00     0.040 A 
ENDBRANCH  18  19
ENDBRANCH  17  18
ENDBRANCH   2  17
TORSDOF 5
ENDMDL
MODEL 4
REMARK VINA RESULT:      -8.5      3.931      9.309
REMARK  5 active torsions:
REMARK  status: ('A' for Active; 'I' for Inactive)
REMARK    1  A    between atoms: C_8  and  C_9 
REMARK    2  A    between atoms: N_10  and  N_11 
REMARK       I    between atoms: N_11  and  C_12 
REMARK    3  A    between atoms: C_12  and  C_13 
REMARK    4  A    between atoms: C_13  and  O_14 
REMARK    5  A    between atoms: O_14  and  C_15 
ROOT
HETATM    1  N   UNL     1      26.315  45.730  52.505  1.00  0.00    -0.246 N 
HETATM    2  C   UNL     1      25.197  44.923  52.341  1.00  0.00     0.261 C 
HETATM    3  O   UNL     1      24.635  44.271  53.220  1.00  0.00    -0.269 OA
HETATM    4  H   UNL     1      26.514  46.393  51.757  1.00  0.00     0.192 HD
ENDROOT
BRANCH   1   5
HETATM    5  N   UNL     1      26.960  46.006  53.688  1.00  0.00    -0.184 NA
HETATM    6  C   UNL     1      27.841  45.167  54.130  1.00  0.00     0.152 C 
BRANCH   6   7
HETATM    7  C   UNL     1      28.514  45.426  55.388  1.00  0.00     0.011 A 
HETATM    8  C   UNL     1      29.645  44.721  55.916  1.00  0.00     0.004 A 
HETATM    9  C   UNL     1      30.419  43.629  55.469  1.00  0.00     0.014 A 
HETATM   10  C   UNL     1      29.972  45.309  57.139  1.00  0.00     0.043 A 
HETATM   11  C   UNL     1      31.485  43.172  56.251  1.00  0.00     0.001 A 
HETATM   12  C   UNL     1      31.788  43.785  57.464  1.00  0.00     0.002 A 
HETATM   13  C   UNL     1      31.037  44.866  57.932  1.00  0.00     0.030 A 
HETATM   14  N   UNL     1      29.073  46.329  57.349  1.00  0.00    -0.364 N 
HETATM   15  H   UNL     1      29.069  46.931  58.162  1.00  0.00     0.165 HD
HETATM   16  C   UNL     1      28.190  46.406  56.307  1.00  0.00     0.102 A 
ENDBRANCH   6   7
ENDBRANCH   1   5
BRANCH   2  17
HETATM   17  C   UNL     1      24.734  44.831  50.888  1.00  0.00     0.280 C 
BRANCH  17  18
HETATM   18  O   UNL     1      25.396  45.775  50.055  1.00  0.00    -0.340 OA
BRANCH  18  19
HETATM   19  C   UNL     1      24.628  46.799  49.558  1.00  0.00     0.091 A 
HETATM   20  C   UNL     1      25.235  48.062  49.459  1.00  0.00     0.068 A 
HETATM   21 CL   UNL     1      26.869  48.311  49.967  1.00  0.00    -0.081 Cl
HETATM   22  C   UNL     1      24.529  49.160  48.958  1.00  0.00     0.046 A 
HETATM   23  C   UNL     1      23.212  48.994  48.541  1.00  0.00     0.012 A 
HETATM   24 BR   UNL     1      22.248  50.470  47.859  1.00  0.00    -0.051 Br
HETATM   25  C   UNL     1      22.599  47.745  48.618  1.00  0.00     0.022 A 
HETATM   26  C   UNL     1      23.306  46.649  49.124  1.00  0.00     0.040 A 
ENDBRANCH  18  19
ENDBRANCH  17  18
ENDBRANCH   2  17
TORSDOF 5
ENDMDL
MODEL 5
REMARK VINA RESULT:      -8.2      2.200      2.734
REMARK  5 active torsions:
REMARK  status: ('A' for Active; 'I' for Inactive)
REMARK    1  A    between atoms: C_8  and  C_9 
REMARK    2  A    between atoms: N_10  and  N_11 
REMARK       I    between atoms: N_11  and  C_12 
REMARK    3  A    between atoms: C_12  and  C_13 
REMARK    4  A    between atoms: C_13  and  O_14 
REMARK    5  A    between atoms: O_14  and  C_15 
ROOT
HETATM    1  N   UNL     1      25.584  45.401  50.270  1.00  0.00    -0.246 N 
HETATM    2  C   UNL     1      25.531  44.854  51.545  1.00  0.00     0.261 C 
HETATM    3  O   UNL     1      24.517  44.674  52.218  1.00  0.00    -0.269 OA
HETATM    4  H   UNL     1      26.448  45.258  49.747  1.00  0.00     0.192 HD
ENDROOT
BRANCH   1   5
HETATM    5  N   UNL     1      24.513  45.780  49.495  1.00  0.00    -0.184 NA
HETATM    6  C   UNL     1      24.043  46.980  49.623  1.00  0.00     0.152 C 
BRANCH   6   7
HETATM    7  C   UNL     1      22.898  47.391  48.834  1.00  0.00     0.011 A 
HETATM    8  C   UNL     1      22.344  48.710  48.752  1.00  0.00     0.004 A 
HETATM    9  C   UNL     1      22.658  49.948  49.352  1.00  0.00     0.014 A 
HETATM   10  C   UNL     1      21.262  48.656  47.871  1.00  0.00     0.043 A 
HETATM   11  C   UNL     1      21.891  51.078  49.048  1.00  0.00     0.001 A 
HETATM   12  C   UNL     1      20.823  50.991  48.160  1.00  0.00     0.002 A 
HETATM   13  C   UNL     1      20.486  49.777  47.554  1.00  0.00     0.030 A 
HETATM   14  N   UNL     1      21.160  47.355  47.437  1.00  0.00    -0.364 N 
HETATM   15  H   UNL     1      20.460  47.020  46.788  1.00  0.00     0.165 HD
HETATM   16  C   UNL     1      22.133  46.584  48.013  1.00  0.00     0.102 A 
ENDBRANCH   6   7
ENDBRANCH   1   5
BRANCH   2  17
HETATM   17  C   UNL     1      26.912  44.546  52.122  1.00  0.00     0.280 C 
BRANCH  17  18
HETATM   18  O   UNL     1      27.138  45.221  53.354  1.00  0.00    -0.340 OA
BRANCH  18  19
HETATM   19  C   UNL     1      28.181  44.763  54.122  1.00  0.00     0.091 A 
HETATM   20  C   UNL     1      28.723  45.657  55.060  1.00  0.00     0.068 A 
HETATM   21 CL   UNL     1      28.113  47.266  55.218  1.00  0.00    -0.081 Cl
HETATM   22  C   UNL     1      29.783  45.273  55.888  1.00  0.00     0.046 A 
HETATM   23  C   UNL     1      30.298  43.985  55.786  1.00  0.00     0.012 A 
HETATM   24 BR   UNL     1      31.729  43.452  56.900  1.00  0.00    -0.051 Br
HETATM   25  C   UNL     1      29.763  43.080  54.870  1.00  0.00     0.022 A 
HETATM   26  C   UNL     1      28.706  43.468  54.041  1.00  0.00     0.040 A 
ENDBRANCH  18  19
ENDBRANCH  17  18
ENDBRANCH   2  17
TORSDOF 5
ENDMDL
MODEL 6
REMARK VINA RESULT:      -8.1      6.628      9.346
REMARK  5 active torsions:
REMARK  status: ('A' for Active; 'I' for Inactive)
REMARK    1  A    between atoms: C_8  and  C_9 
REMARK    2  A    between atoms: N_10  and  N_11 
REMARK       I    between atoms: N_11  and  C_12 
REMARK    3  A    between atoms: C_12  and  C_13 
REMARK    4  A    between atoms: C_13  and  O_14 
REMARK    5  A    between atoms: O_14  and  C_15 
ROOT
HETATM    1  N   UNL     1      27.768  42.721  52.417  1.00  0.00    -0.246 N 
HETATM    2  C   UNL     1      28.240  41.489  51.984  1.00  0.00     0.261 C 
HETATM    3  O   UNL     1      28.976  40.729  52.612  1.00  0.00    -0.269 OA
HETATM    4  H   UNL     1      26.980  43.116  51.903  1.00  0.00     0.192 HD
ENDROOT
BRANCH   1   5
HETATM    5  N   UNL     1      27.976  43.291  53.651  1.00  0.00    -0.184 NA
HETATM    6  C   UNL     1      28.509  44.469  53.714  1.00  0.00     0.152 C 
BRANCH   6   7
HETATM    7  C   UNL     1      28.761  45.077  55.006  1.00  0.00     0.011 A 
HETATM    8  C   UNL     1      29.789  44.714  55.937  1.00  0.00     0.004 A 
HETATM    9  C   UNL     1      30.805  43.734  55.948  1.00  0.00     0.014 A 
HETATM   10  C   UNL     1      29.674  45.563  57.039  1.00  0.00     0.043 A 
HETATM   11  C   UNL     1      31.665  43.644  57.048  1.00  0.00     0.001 A 
HETATM   12  C   UNL     1      31.528  44.510  58.128  1.00  0.00     0.002 A 
HETATM   13  C   UNL     1      30.529  45.488  58.146  1.00  0.00     0.030 A 
HETATM   14  N   UNL     1      28.617  46.406  56.790  1.00  0.00    -0.364 N 
HETATM   15  H   UNL     1      28.300  47.131  57.421  1.00  0.00     0.165 HD
HETATM   16  C   UNL     1      28.057  46.121  55.575  1.00  0.00     0.102 A 
ENDBRANCH   6   7
ENDBRANCH   1   5
BRANCH   2  17
HETATM   17  C   UNL     1      27.823  41.159  50.552  1.00  0.00     0.280 C 
BRANCH  17  18
HETATM   18  O   UNL     1      27.451  39.793  50.405  1.00  0.00    -0.340 OA
BRANCH  18  19
HETATM   19  C   UNL     1      27.698  39.218  49.182  1.00  0.00     0.091 A 
HETATM   20  C   UNL     1      28.829  38.391  49.083  1.00  0.00     0.068 A 
HETATM   21 CL   UNL     1      29.870  38.133  50.439  1.00  0.00    -0.081 Cl
HETATM   22  C   UNL     1      29.152  37.760  47.878  1.00  0.00     0.046 A 
HETATM   23  C   UNL     1      28.336  37.947  46.767  1.00  0.00     0.012 A 
HETATM   24 BR   UNL     1      28.760  37.097  45.133  1.00  0.00    -0.051 Br
HETATM   25  C   UNL     1      27.202  38.753  46.852  1.00  0.00     0.022 A 
HETATM   26  C   UNL     1      26.883  39.386  48.057  1.00  0.00     0.040 A 
ENDBRANCH  18  19
ENDBRANCH  17  18
ENDBRANCH   2  17
TORSDOF 5
ENDMDL
MODEL 7
REMARK VINA RESULT:      -8.1      4.592      9.624
REMARK  5 active torsions:
REMARK  status: ('A' for Active; 'I' for Inactive)
REMARK    1  A    between atoms: C_8  and  C_9 
REMARK    2  A    between atoms: N_10  and  N_11 
REMARK       I    between atoms: N_11  and  C_12 
REMARK    3  A    between atoms: C_12  and  C_13 
REMARK    4  A    between atoms: C_13  and  O_14 
REMARK    5  A    between atoms: O_14  and  C_15 
ROOT
HETATM    1  N   UNL     1      25.447  45.755  50.951  1.00  0.00    -0.246 N 
HETATM    2  C   UNL     1      24.825  45.441  49.749  1.00  0.00     0.261 C 
HETATM    3  O   UNL     1      25.201  44.600  48.934  1.00  0.00    -0.269 OA
HETATM    4  H   UNL     1      24.894  46.282  51.627  1.00  0.00     0.192 HD
ENDROOT
BRANCH   1   5
HETATM    5  N   UNL     1      26.554  45.140  51.487  1.00  0.00    -0.184 NA
HETATM    6  C   UNL     1      26.388  44.241  52.404  1.00  0.00     0.152 C 
BRANCH   6   7
HETATM    7  C   UNL     1      27.544  43.600  52.999  1.00  0.00     0.011 A 
HETATM    8  C   UNL     1      28.400  44.146  54.010  1.00  0.00     0.004 A 
HETATM    9  C   UNL     1      28.442  45.373  54.706  1.00  0.00     0.014 A 
HETATM   10  C   UNL     1      29.374  43.188  54.297  1.00  0.00     0.043 A 
HETATM   11  C   UNL     1      29.443  45.594  55.658  1.00  0.00     0.001 A 
HETATM   12  C   UNL     1      30.396  44.615  55.925  1.00  0.00     0.002 A 
HETATM   13  C   UNL     1      30.381  43.391  55.249  1.00  0.00     0.030 A 
HETATM   14  N   UNL     1      29.123  42.103  53.489  1.00  0.00    -0.364 N 
HETATM   15  H   UNL     1      29.673  41.255  53.481  1.00  0.00     0.165 HD
HETATM   16  C   UNL     1      28.030  42.341  52.702  1.00  0.00     0.102 A 
ENDBRANCH   6   7
ENDBRANCH   1   5
BRANCH   2  17
HETATM   17  C   UNL     1      23.614  46.324  49.454  1.00  0.00     0.280 C 
BRANCH  17  18
HETATM   18  O   UNL     1      23.992  47.588  48.923  1.00  0.00    -0.340 OA
BRANCH  18  19
HETATM   19  C   UNL     1      23.003  48.538  48.838  1.00  0.00     0.091 A 
HETATM   20  C   UNL     1      23.380  49.814  48.386  1.00  0.00     0.068 A 
HETATM   21 CL   UNL     1      25.023  50.168  47.979  1.00  0.00    -0.081 Cl
HETATM   22  C   UNL     1      22.438  50.838  48.262  1.00  0.00     0.046 A 
HETATM   23  C   UNL     1      21.107  50.587  48.581  1.00  0.00     0.012 A 
HETATM   24 BR   UNL     1      19.823  51.964  48.416  1.00  0.00    -0.051 Br
HETATM   25  C   UNL     1      20.713  49.323  49.018  1.00  0.00     0.022 A 
HETATM   26  C   UNL     1      21.658  48.301  49.144  1.00  0.00     0.040 A 
ENDBRANCH  18  19
ENDBRANCH  17  18
ENDBRANCH   2  17
TORSDOF 5
ENDMDL
MODEL 8
REMARK VINA RESULT:      -7.9      2.743      3.959
REMARK  5 active torsions:
REMARK  status: ('A' for Active; 'I' for Inactive)
REMARK    1  A    between atoms: C_8  and  C_9 
REMARK    2  A    between atoms: N_10  and  N_11 
REMARK       I    between atoms: N_11  and  C_12 
REMARK    3  A    between atoms: C_12  and  C_13 
REMARK    4  A    between atoms: C_13  and  O_14 
REMARK    5  A    between atoms: O_14  and  C_15 
ROOT
HETATM    1  N   UNL     1      23.840  47.822  50.075  1.00  0.00    -0.246 N 
HETATM    2  C   UNL     1      24.475  46.654  50.478  1.00  0.00     0.261 C 
HETATM    3  O   UNL     1      24.149  45.507  50.177  1.00  0.00    -0.269 OA
HETATM    4  H   UNL     1      24.361  48.690  50.194  1.00  0.00     0.192 HD
ENDROOT
BRANCH   1   5
HETATM    5  N   UNL     1      22.774  47.918  49.211  1.00  0.00    -0.184 NA
HETATM    6  C   UNL     1      22.147  49.047  49.116  1.00  0.00     0.152 C 
BRANCH   6   7
HETATM    7  C   UNL     1      21.005  49.163  48.231  1.00  0.00     0.011 A 
HETATM    8  C   UNL     1      20.148  50.302  48.084  1.00  0.00     0.004 A 
HETATM    9  C   UNL     1      20.092  51.576  48.689  1.00  0.00     0.014 A 
HETATM   10  C   UNL     1      19.190  49.984  47.119  1.00  0.00     0.043 A 
HETATM   11  C   UNL     1      19.094  52.479  48.307  1.00  0.00     0.001 A 
HETATM   12  C   UNL     1      18.158  52.133  47.337  1.00  0.00     0.002 A 
HETATM   13  C   UNL     1      18.187  50.877  46.723  1.00  0.00     0.030 A 
HETATM   14  N   UNL     1      19.452  48.701  46.698  1.00  0.00    -0.364 N 
HETATM   15  H   UNL     1      18.914  48.206  46.000  1.00  0.00     0.165 HD
HETATM   16  C   UNL     1      20.536  48.196  47.362  1.00  0.00     0.102 A 
ENDBRANCH   6   7
ENDBRANCH   1   5
BRANCH   2  17
HETATM   17  C   UNL     1      25.629  46.905  51.447  1.00  0.00     0.280 C 
BRANCH  17  18
HETATM   18  O   UNL     1      25.393  46.318  52.721  1.00  0.00    -0.340 OA
BRANCH  18  19
HETATM   19  C   UNL     1      26.481  46.196  53.551  1.00  0.00     0.091 A 
HETATM   20  C   UNL     1      27.077  44.927  53.641  1.00  0.00     0.068 A 
HETATM   21 CL   UNL     1      26.447  43.580  52.759  1.00  0.00    -0.081 Cl
HETATM   22  C   UNL     1      28.192  44.714  54.456  1.00  0.00     0.046 A 
HETATM   23  C   UNL     1      28.724  45.777  55.180  1.00  0.00     0.012 A 
HETATM   24 BR   UNL     1      30.233  45.502  56.284  1.00  0.00    -0.051 Br
HETATM   25  C   UNL     1      28.154  47.045  55.092  1.00  0.00     0.022 A 
HETATM   26  C   UNL     1      27.036  47.255  54.278  1.00  0.00     0.040 A 
ENDBRANCH  18  19
ENDBRANCH  17  18
ENDBRANCH   2  17
TORSDOF 5
ENDMDL
MODEL 9
REMARK VINA RESULT:      -7.7      6.742      9.565
REMARK  5 active torsions:
REMARK  status: ('A' for Active; 'I' for Inactive)
REMARK    1  A    between atoms: C_8  and  C_9 
REMARK    2  A    between atoms: N_10  and  N_11 
REMARK       I    between atoms: N_11  and  C_12 
REMARK    3  A    between atoms: C_12  and  C_13 
REMARK    4  A    between atoms: C_13  and  O_14 
REMARK    5  A    between atoms: O_14  and  C_15 
ROOT
HETATM    1  N   UNL     1      29.187  41.213  52.331  1.00  0.00    -0.246 N 
HETATM    2  C   UNL     1      28.141  40.871  51.484  1.00  0.00     0.261 C 
HETATM    3  O   UNL     1      26.965  41.213  51.606  1.00  0.00    -0.269 OA
HETATM    4  H   UNL     1      30.131  41.069  51.972  1.00  0.00     0.192 HD
ENDROOT
BRANCH   1   5
HETATM    5  N   UNL     1      29.121  42.051  53.419  1.00  0.00    -0.184 NA
HETATM    6  C   UNL     1      29.307  43.320  53.244  1.00  0.00     0.152 C 
BRANCH   6   7
HETATM    7  C   UNL     1      29.266  44.217  54.382  1.00  0.00     0.011 A 
HETATM    8  C   UNL     1      30.094  44.155  55.550  1.00  0.00     0.004 A 
HETATM    9  C   UNL     1      31.121  43.289  55.984  1.00  0.00     0.014 A 
HETATM   10  C   UNL     1      29.725  45.214  56.382  1.00  0.00     0.043 A 
HETATM   11  C   UNL     1      31.741  43.515  57.217  1.00  0.00     0.001 A 
HETATM   12  C   UNL     1      31.354  44.585  58.020  1.00  0.00     0.002 A 
HETATM   13  C   UNL     1      30.337  45.456  57.618  1.00  0.00     0.030 A 
HETATM   14  N   UNL     1      28.711  45.891  55.746  1.00  0.00    -0.364 N 
HETATM   15  H   UNL     1      28.246  46.709  56.118  1.00  0.00     0.165 HD
HETATM   16  C   UNL     1      28.423  45.299  54.547  1.00  0.00     0.102 A 
ENDBRANCH   6   7
ENDBRANCH   1   5
BRANCH   2  17
HETATM   17  C   UNL     1      28.561  39.915  50.369  1.00  0.00     0.280 C 
BRANCH  17  18
HETATM   18  O   UNL     1      27.448  39.236  49.800  1.00  0.00    -0.340 OA
BRANCH  18  19
HETATM   19  C   UNL     1      27.102  39.591  48.520  1.00  0.00     0.091 A 
HETATM   20  C   UNL     1      27.750  38.916  47.472  1.00  0.00     0.068 A 
HETATM   21 CL   UNL     1      28.945  37.708  47.791  1.00  0.00    -0.081 Cl
HETATM   22  C   UNL     1      27.454  39.210  46.138  1.00  0.00     0.046 A 
HETATM   23  C   UNL     1      26.498  40.177  45.846  1.00  0.00     0.012 A 
HETATM   24 BR   UNL     1      26.087  40.581  44.046  1.00  0.00    -0.051 Br
HETATM   25  C   UNL     1      25.835  40.847  46.872  1.00  0.00     0.022 A 
HETATM   26  C   UNL     1      26.135  40.554  48.206  1.00  0.00     0.040 A 
ENDBRANCH  18  19
ENDBRANCH  17  18
ENDBRANCH   2  17
TORSDOF 5
ENDMDL
MODEL 10
REMARK VINA RESULT:      -7.7      5.179      8.292
REMARK  5 active torsions:
REMARK  status: ('A' for Active; 'I' for Inactive)
REMARK    1  A    between atoms: C_8  and  C_9 
REMARK    2  A    between atoms: N_10  and  N_11 
REMARK       I    between atoms: N_11  and  C_12 
REMARK    3  A    between atoms: C_12  and  C_13 
REMARK    4  A    between atoms: C_13  and  O_14 
REMARK    5  A    between atoms: O_14  and  C_15 
ROOT
HETATM    1  N   UNL     1      25.217  43.336  52.046  1.00  0.00    -0.246 N 
HETATM    2  C   UNL     1      24.481  43.864  50.992  1.00  0.00     0.261 C 
HETATM    3  O   UNL     1      24.210  45.051  50.816  1.00  0.00    -0.269 OA
HETATM    4  H   UNL     1      25.568  42.386  51.927  1.00  0.00     0.192 HD
ENDROOT
BRANCH   1   5
HETATM    5  N   UNL     1      25.835  44.045  53.049  1.00  0.00    -0.184 NA
HETATM    6  C   UNL     1      27.115  44.229  52.986  1.00  0.00     0.152 C 
BRANCH   6   7
HETATM    7  C   UNL     1      27.790  44.951  54.047  1.00  0.00     0.011 A 
HETATM    8  C   UNL     1      28.941  44.515  54.782  1.00  0.00     0.004 A 
HETATM    9  C   UNL     1      29.738  43.350  54.761  1.00  0.00     0.014 A 
HETATM   10  C   UNL     1      29.262  45.522  55.694  1.00  0.00     0.043 A 
HETATM   11  C   UNL     1      30.820  43.238  55.641  1.00  0.00     0.001 A 
HETATM   12  C   UNL     1      31.117  44.263  56.534  1.00  0.00     0.002 A 
HETATM   13  C   UNL     1      30.343  45.426  56.579  1.00  0.00     0.030 A 
HETATM   14  N   UNL     1      28.341  46.529  55.524  1.00  0.00    -0.364 N 
HETATM   15  H   UNL     1      28.328  47.389  56.054  1.00  0.00     0.165 HD
HETATM   16  C   UNL     1      27.449  46.195  54.541  1.00  0.00     0.102 A 
ENDBRANCH   6   7
ENDBRANCH   1   5
BRANCH   2  17
HETATM   17  C   UNL     1      23.930  42.793  50.052  1.00  0.00     0.280 C 
BRANCH  17  18
HETATM   18  O   UNL     1      24.615  42.772  48.806  1.00  0.00    -0.340 OA
BRANCH  18  19
HETATM   19  C   UNL     1      25.549  41.779  48.636  1.00  0.00     0.091 A 
HETATM   20  C   UNL     1      25.124  40.606  47.990  1.00  0.00     0.068 A 
HETATM   21 CL   UNL     1      23.490  40.422  47.455  1.00  0.00    -0.081 Cl
HETATM   22  C   UNL     1      26.010  39.548  47.769  1.00  0.00     0.046 A 
HETATM   23  C   UNL     1      27.332  39.663  48.187  1.00  0.00     0.012 A 
HETATM   24 BR   UNL     1      28.540  38.240  47.892  1.00  0.00    -0.051 Br
HETATM   25  C   UNL     1      27.774  40.825  48.817  1.00  0.00     0.022 A 
HETATM   26  C   UNL     1      26.885  41.881  49.040  1.00  0.00     0.040 A 
ENDBRANCH  18  19
ENDBRANCH  17  18
ENDBRANCH   2  17
TORSDOF 5
ENDMDL
