MODEL 1
REMARK VINA RESULT:     -11.4      0.000      0.000
REMARK  6 active torsions:
REMARK  status: ('A' for Active; 'I' for Inactive)
REMARK    1  A    between atoms: C_4  and  C_5 
REMARK    2  A    between atoms: C_5  and  N_6 
REMARK       I    between atoms: N_6  and  C_7 
REMARK    3  A    between atoms: C_7  and  C_8 
REMARK    4  A    between atoms: C_9  and  N_10 
REMARK    5  A    between atoms: N_11  and  N_12 
REMARK    6  A    between atoms: C_13  and  C_14 
ROOT
HETATM    1  C   UNL     1      26.166  46.246  50.701  1.00  0.00     0.104 C 
HETATM    2  C   UNL     1      25.730  46.433  52.008  1.00  0.00     0.123 C 
HETATM    3  N   UNL     1      26.276  45.393  52.760  1.00  0.00    -0.202 N 
HETATM    4  C   UNL     1      26.441  44.325  51.901  1.00  0.00     0.183 A 
HETATM    5  C   UNL     1      26.469  44.858  50.610  1.00  0.00     0.124 A 
HETATM    6  N   UNL     1      26.789  44.079  49.545  1.00  0.00    -0.242 NA
HETATM    7  C   UNL     1      26.982  42.780  49.832  1.00  0.00     0.086 A 
HETATM    8  C   UNL     1      26.907  42.262  51.153  1.00  0.00     0.088 A 
HETATM    9  N   UNL     1      26.671  43.033  52.226  1.00  0.00    -0.225 NA
HETATM   10  C   UNL     1      27.257  41.906  48.788  1.00  0.00     0.034 A 
HETATM   11  C   UNL     1      27.435  40.539  49.005  1.00  0.00     0.002 A 
HETATM   12  C   UNL     1      27.340  40.032  50.292  1.00  0.00     0.002 A 
HETATM   13  C   UNL     1      27.083  40.899  51.354  1.00  0.00     0.034 A 
ENDROOT
BRANCH   3  14
HETATM   14  N   UNL     1      26.684  45.451  54.075  1.00  0.00    -0.176 NA
HETATM   15  C   UNL     1      27.952  45.705  54.167  1.00  0.00     0.153 C 
BRANCH  15  16
HETATM   16  C   UNL     1      28.652  45.768  55.425  1.00  0.00     0.011 A 
HETATM   17  C   UNL     1      29.723  44.906  55.823  1.00  0.00     0.004 A 
HETATM   18  C   UNL     1      30.031  45.213  57.147  1.00  0.00     0.043 A 
HETATM   19  C   UNL     1      30.447  43.874  55.183  1.00  0.00     0.014 A 
HETATM   20  C   UNL     1      31.014  44.525  57.870  1.00  0.00     0.030 A 
HETATM   21  N   UNL     1      29.205  46.249  57.524  1.00  0.00    -0.364 N 
HETATM   22  C   UNL     1      31.711  43.506  57.217  1.00  0.00     0.002 A 
HETATM   23  C   UNL     1      31.439  43.187  55.889  1.00  0.00     0.001 A 
HETATM   24  H   UNL     1      29.197  46.670  58.443  1.00  0.00     0.165 HD
HETATM   25  C   UNL     1      28.383  46.605  56.488  1.00  0.00     0.102 A 
ENDBRANCH  15  16
ENDBRANCH   3  14
BRANCH   2  26
HETATM   26  N   UNL     1      25.059  47.473  52.596  1.00  0.00    -0.286 NA
HETATM   27  H   UNL     1      25.189  48.394  52.168  1.00  0.00     0.125 HD
HETATM   28  H   UNL     1      24.059  47.323  52.767  1.00  0.00     0.125 HD
ENDBRANCH   2  26
BRANCH   1  29
HETATM   29  C   UNL     1      26.283  47.296  49.693  1.00  0.00     0.257 C 
HETATM   30  N   UNL     1      25.084  47.949  49.480  1.00  0.00    -0.352 N 
HETATM   31  H   UNL     1      24.351  47.717  50.137  1.00  0.00     0.163 HD
HETATM   32  O   UNL     1      27.334  47.633  49.164  1.00  0.00    -0.267 OA
BRANCH  30  33
HETATM   33  C   UNL     1      24.982  49.230  48.827  1.00  0.00     0.161 C 
BRANCH  33  34
HETATM   34  C   UNL     1      23.557  49.672  48.559  1.00  0.00    -0.041 A 
HETATM   35  C   UNL     1      23.093  50.989  48.731  1.00  0.00     0.009 A 
HETATM   36  C   UNL     1      21.767  51.331  48.450  1.00  0.00     0.001 A 
HETATM   37  C   UNL     1      20.882  50.366  47.982  1.00  0.00     0.000 A 
HETATM   38  C   UNL     1      21.324  49.060  47.785  1.00  0.00     0.001 A 
HETATM   39  C   UNL     1      22.650  48.718  48.067  1.00  0.00     0.009 A 
ENDBRANCH  33  34
ENDBRANCH  30  33
ENDBRANCH   1  29
TORSDOF 6
ENDMDL
MODEL 2
REMARK VINA RESULT:     -11.2      2.014      8.493
REMARK  6 active torsions:
REMARK  status: ('A' for Active; 'I' for Inactive)
REMARK    1  A    between atoms: C_4  and  C_5 
REMARK    2  A    between atoms: C_5  and  N_6 
REMARK       I    between atoms: N_6  and  C_7 
REMARK    3  A    between atoms: C_7  and  C_8 
REMARK    4  A    between atoms: C_9  and  N_10 
REMARK    5  A    between atoms: N_11  and  N_12 
REMARK    6  A    between atoms: C_13  and  C_14 
ROOT
HETATM    1  C   UNL     1      26.567  42.847  51.779  1.00  0.00     0.104 C 
HETATM    2  C   UNL     1      25.535  43.774  51.683  1.00  0.00     0.123 C 
HETATM    3  N   UNL     1      26.056  44.992  52.118  1.00  0.00    -0.202 N 
HETATM    4  C   UNL     1      27.058  44.697  53.020  1.00  0.00     0.183 A 
HETATM    5  C   UNL     1      27.454  43.385  52.754  1.00  0.00     0.124 A 
HETATM    6  N   UNL     1      28.545  42.852  53.363  1.00  0.00    -0.242 NA
HETATM    7  C   UNL     1      29.130  43.649  54.274  1.00  0.00     0.086 A 
HETATM    8  C   UNL     1      28.677  44.968  54.550  1.00  0.00     0.088 A 
HETATM    9  N   UNL     1      27.650  45.536  53.899  1.00  0.00    -0.225 NA
HETATM   10  C   UNL     1      30.218  43.156  54.983  1.00  0.00     0.034 A 
HETATM   11  C   UNL     1      30.855  43.914  55.967  1.00  0.00     0.002 A 
HETATM   12  C   UNL     1      30.398  45.192  56.250  1.00  0.00     0.002 A 
HETATM   13  C   UNL     1      29.318  45.708  55.535  1.00  0.00     0.034 A 
ENDROOT
BRANCH   3  14
HETATM   14  N   UNL     1      25.720  46.245  51.655  1.00  0.00    -0.176 NA
HETATM   15  C   UNL     1      26.278  46.492  50.511  1.00  0.00     0.153 C 
BRANCH  15  16
HETATM   16  C   UNL     1      26.141  47.752  49.825  1.00  0.00     0.011 A 
HETATM   17  C   UNL     1      24.913  48.306  49.342  1.00  0.00     0.004 A 
HETATM   18  C   UNL     1      25.230  49.462  48.632  1.00  0.00     0.043 A 
HETATM   19  C   UNL     1      23.557  47.916  49.425  1.00  0.00     0.014 A 
HETATM   20  C   UNL     1      24.261  50.238  47.983  1.00  0.00     0.030 A 
HETATM   21  N   UNL     1      26.596  49.625  48.715  1.00  0.00    -0.364 N 
HETATM   22  C   UNL     1      22.929  49.828  48.077  1.00  0.00     0.002 A 
HETATM   23  C   UNL     1      22.577  48.688  48.793  1.00  0.00     0.001 A 
HETATM   24  H   UNL     1      27.111  50.377  48.279  1.00  0.00     0.165 HD
HETATM   25  C   UNL     1      27.153  48.610  49.448  1.00  0.00     0.102 A 
ENDBRANCH  15  16
ENDBRANCH   3  14
BRANCH   2  26
HETATM   26  N   UNL     1      24.286  43.680  51.127  1.00  0.00    -0.286 NA
HETATM   27  H   UNL     1      24.242  43.727  50.105  1.00  0.00     0.125 HD
HETATM   28  H   UNL     1      23.708  42.897  51.449  1.00  0.00     0.125 HD
ENDBRANCH   2  26
BRANCH   1  29
HETATM   29  C   UNL     1      26.669  41.616  51.001  1.00  0.00     0.257 C 
HETATM   30  N   UNL     1      27.972  41.333  50.643  1.00  0.00    -0.352 N 
HETATM   31  H   UNL     1      28.670  41.918  51.081  1.00  0.00     0.163 HD
HETATM   32  O   UNL     1      25.731  40.864  50.770  1.00  0.00    -0.267 OA
BRANCH  30  33
HETATM   33  C   UNL     1      28.409  40.034  50.196  1.00  0.00     0.161 C 
BRANCH  33  34
HETATM   34  C   UNL     1      28.254  39.812  48.704  1.00  0.00    -0.041 A 
HETATM   35  C   UNL     1      28.124  40.847  47.761  1.00  0.00     0.009 A 
HETATM   36  C   UNL     1      27.999  40.571  46.396  1.00  0.00     0.001 A 
HETATM   37  C   UNL     1      28.013  39.255  45.947  1.00  0.00     0.000 A 
HETATM   38  C   UNL     1      28.160  38.215  46.861  1.00  0.00     0.001 A 
HETATM   39  C   UNL     1      28.284  38.491  48.226  1.00  0.00     0.009 A 
ENDBRANCH  33  34
ENDBRANCH  30  33
ENDBRANCH   1  29
TORSDOF 6
ENDMDL
MODEL 3
REMARK VINA RESULT:     -11.2      1.897      2.692
REMARK  6 active torsions:
REMARK  status: ('A' for Active; 'I' for Inactive)
REMARK    1  A    between atoms: C_4  and  C_5 
REMARK    2  A    between atoms: C_5  and  N_6 
REMARK       I    between atoms: N_6  and  C_7 
REMARK    3  A    between atoms: C_7  and  C_8 
REMARK    4  A    between atoms: C_9  and  N_10 
REMARK    5  A    between atoms: N_11  and  N_12 
REMARK    6  A    between atoms: C_13  and  C_14 
ROOT
HETATM    1  C   UNL     1      25.399  43.965  50.689  1.00  0.00     0.104 C 
HETATM    2  C   UNL     1      25.311  43.915  52.076  1.00  0.00     0.123 C 
HETATM    3  N   UNL     1      26.458  43.261  52.522  1.00  0.00    -0.202 N 
HETATM    4  C   UNL     1      26.848  42.406  51.511  1.00  0.00     0.183 A 
HETATM    5  C   UNL     1      26.267  42.892  50.338  1.00  0.00     0.124 A 
HETATM    6  N   UNL     1      26.597  42.365  49.131  1.00  0.00    -0.242 NA
HETATM    7  C   UNL     1      27.435  41.316  49.181  1.00  0.00     0.086 A 
HETATM    8  C   UNL     1      27.978  40.820  50.397  1.00  0.00     0.088 A 
HETATM    9  N   UNL     1      27.724  41.380  51.590  1.00  0.00    -0.225 NA
HETATM   10  C   UNL     1      27.777  40.684  47.992  1.00  0.00     0.034 A 
HETATM   11  C   UNL     1      28.615  39.569  47.970  1.00  0.00     0.002 A 
HETATM   12  C   UNL     1      29.127  39.073  49.159  1.00  0.00     0.002 A 
HETATM   13  C   UNL     1      28.808  39.706  50.360  1.00  0.00     0.034 A 
ENDROOT
BRANCH   3  14
HETATM   14  N   UNL     1      27.142  43.501  53.694  1.00  0.00    -0.176 NA
HETATM   15  C   UNL     1      27.605  44.712  53.732  1.00  0.00     0.153 C 
BRANCH  15  16
HETATM   16  C   UNL     1      28.406  45.214  54.819  1.00  0.00     0.011 A 
HETATM   17  C   UNL     1      29.519  44.537  55.413  1.00  0.00     0.004 A 
HETATM   18  C   UNL     1      29.931  45.298  56.505  1.00  0.00     0.043 A 
HETATM   19  C   UNL     1      30.201  43.331  55.134  1.00  0.00     0.014 A 
HETATM   20  C   UNL     1      30.980  44.902  57.345  1.00  0.00     0.030 A 
HETATM   21  N   UNL     1      29.125  46.414  56.548  1.00  0.00    -0.364 N 
HETATM   22  C   UNL     1      31.635  43.704  57.050  1.00  0.00     0.002 A 
HETATM   23  C   UNL     1      31.259  42.930  55.956  1.00  0.00     0.001 A 
HETATM   24  H   UNL     1      29.188  47.139  57.248  1.00  0.00     0.165 HD
HETATM   25  C   UNL     1      28.215  46.384  55.525  1.00  0.00     0.102 A 
ENDBRANCH  15  16
ENDBRANCH   3  14
BRANCH   2  26
HETATM   26  N   UNL     1      24.431  44.505  52.946  1.00  0.00    -0.286 NA
HETATM   27  H   UNL     1      24.030  43.895  53.664  1.00  0.00     0.125 HD
HETATM   28  H   UNL     1      24.750  45.375  53.387  1.00  0.00     0.125 HD
ENDBRANCH   2  26
BRANCH   1  29
HETATM   29  C   UNL     1      24.735  44.947  49.837  1.00  0.00     0.257 C 
HETATM   30  N   UNL     1      24.362  46.077  50.538  1.00  0.00    -0.352 N 
HETATM   31  H   UNL     1      24.721  46.130  51.482  1.00  0.00     0.163 HD
HETATM   32  O   UNL     1      24.605  44.835  48.625  1.00  0.00    -0.267 OA
BRANCH  30  33
HETATM   33  C   UNL     1      24.023  47.328  49.907  1.00  0.00     0.161 C 
BRANCH  33  34
HETATM   34  C   UNL     1      25.226  48.158  49.501  1.00  0.00    -0.041 A 
HETATM   35  C   UNL     1      26.553  47.848  49.848  1.00  0.00     0.009 A 
HETATM   36  C   UNL     1      27.618  48.651  49.427  1.00  0.00     0.001 A 
HETATM   37  C   UNL     1      27.376  49.773  48.643  1.00  0.00     0.000 A 
HETATM   38  C   UNL     1      26.072  50.089  48.271  1.00  0.00     0.001 A 
HETATM   39  C   UNL     1      25.008  49.287  48.693  1.00  0.00     0.009 A 
ENDBRANCH  33  34
ENDBRANCH  30  33
ENDBRANCH   1  29
TORSDOF 6
ENDMDL
MODEL 4
REMARK VINA RESULT:     -11.0      2.438      3.228
REMARK  6 active torsions:
REMARK  status: ('A' for Active; 'I' for Inactive)
REMARK    1  A    between atoms: C_4  and  C_5 
REMARK    2  A    between atoms: C_5  and  N_6 
REMARK       I    between atoms: N_6  and  C_7 
REMARK    3  A    between atoms: C_7  and  C_8 
REMARK    4  A    between atoms: C_9  and  N_10 
REMARK    5  A    between atoms: N_11  and  N_12 
REMARK    6  A    between atoms: C_13  and  C_14 
ROOT
HETATM    1  C   UNL     1      24.800  46.797  50.165  1.00  0.00     0.104 C 
HETATM    2  C   UNL     1      25.039  46.510  51.505  1.00  0.00     0.123 C 
HETATM    3  N   UNL     1      25.240  45.133  51.585  1.00  0.00    -0.202 N 
HETATM    4  C   UNL     1      24.525  44.565  50.550  1.00  0.00     0.183 A 
HETATM    5  C   UNL     1      24.324  45.576  49.608  1.00  0.00     0.124 A 
HETATM    6  N   UNL     1      23.795  45.294  48.390  1.00  0.00    -0.242 NA
HETATM    7  C   UNL     1      23.417  44.015  48.219  1.00  0.00     0.086 A 
HETATM    8  C   UNL     1      23.599  43.018  49.216  1.00  0.00     0.088 A 
HETATM    9  N   UNL     1      24.193  43.264  50.393  1.00  0.00    -0.225 NA
HETATM   10  C   UNL     1      22.813  43.658  47.020  1.00  0.00     0.034 A 
HETATM   11  C   UNL     1      22.365  42.357  46.786  1.00  0.00     0.002 A 
HETATM   12  C   UNL     1      22.524  41.390  47.767  1.00  0.00     0.002 A 
HETATM   13  C   UNL     1      23.144  41.728  48.969  1.00  0.00     0.034 A 
ENDROOT
BRANCH   3  14
HETATM   14  N   UNL     1      26.082  44.472  52.452  1.00  0.00    -0.176 NA
HETATM   15  C   UNL     1      27.270  44.340  51.951  1.00  0.00     0.153 C 
BRANCH  15  16
HETATM   16  C   UNL     1      28.334  43.638  52.623  1.00  0.00     0.011 A 
HETATM   17  C   UNL     1      28.957  44.046  53.845  1.00  0.00     0.004 A 
HETATM   18  C   UNL     1      30.015  43.171  54.083  1.00  0.00     0.043 A 
HETATM   19  C   UNL     1      28.732  45.099  54.762  1.00  0.00     0.014 A 
HETATM   20  C   UNL     1      30.872  43.307  55.183  1.00  0.00     0.030 A 
HETATM   21  N   UNL     1      30.009  42.243  53.066  1.00  0.00    -0.364 N 
HETATM   22  C   UNL     1      30.630  44.358  56.072  1.00  0.00     0.002 A 
HETATM   23  C   UNL     1      29.571  45.239  55.871  1.00  0.00     0.001 A 
HETATM   24  H   UNL     1      30.676  41.490  52.972  1.00  0.00     0.165 HD
HETATM   25  C   UNL     1      28.987  42.503  52.190  1.00  0.00     0.102 A 
ENDBRANCH  15  16
ENDBRANCH   3  14
BRANCH   2  26
HETATM   26  N   UNL     1      25.241  47.334  52.582  1.00  0.00    -0.286 NA
HETATM   27  H   UNL     1      25.043  46.930  53.502  1.00  0.00     0.125 HD
HETATM   28  H   UNL     1      26.146  47.815  52.616  1.00  0.00     0.125 HD
ENDBRANCH   2  26
BRANCH   1  29
HETATM   29  C   UNL     1      25.029  48.090  49.526  1.00  0.00     0.257 C 
HETATM   30  N   UNL     1      23.956  48.484  48.751  1.00  0.00    -0.352 N 
HETATM   31  H   UNL     1      23.128  47.913  48.848  1.00  0.00     0.163 HD
HETATM   32  O   UNL     1      26.010  48.794  49.723  1.00  0.00    -0.267 OA
BRANCH  30  33
HETATM   33  C   UNL     1      23.755  49.840  48.304  1.00  0.00     0.161 C 
BRANCH  33  34
HETATM   34  C   UNL     1      22.373  50.388  48.607  1.00  0.00    -0.041 A 
HETATM   35  C   UNL     1      21.381  50.607  47.635  1.00  0.00     0.009 A 
HETATM   36  C   UNL     1      20.121  51.103  47.986  1.00  0.00     0.001 A 
HETATM   37  C   UNL     1      19.827  51.378  49.317  1.00  0.00     0.000 A 
HETATM   38  C   UNL     1      20.788  51.150  50.298  1.00  0.00     0.001 A 
HETATM   39  C   UNL     1      22.047  50.656  49.947  1.00  0.00     0.009 A 
ENDBRANCH  33  34
ENDBRANCH  30  33
ENDBRANCH   1  29
TORSDOF 6
ENDMDL
MODEL 5
REMARK VINA RESULT:     -10.8      1.288      2.069
REMARK  6 active torsions:
REMARK  status: ('A' for Active; 'I' for Inactive)
REMARK    1  A    between atoms: C_4  and  C_5 
REMARK    2  A    between atoms: C_5  and  N_6 
REMARK       I    between atoms: N_6  and  C_7 
REMARK    3  A    between atoms: C_7  and  C_8 
REMARK    4  A    between atoms: C_9  and  N_10 
REMARK    5  A    between atoms: N_11  and  N_12 
REMARK    6  A    between atoms: C_13  and  C_14 
ROOT
HETATM    1  C   UNL     1      26.727  45.118  50.478  1.00  0.00     0.104 C 
HETATM    2  C   UNL     1      26.471  45.136  51.845  1.00  0.00     0.123 C 
HETATM    3  N   UNL     1      26.975  43.941  52.357  1.00  0.00    -0.202 N 
HETATM    4  C   UNL     1      26.912  43.013  51.337  1.00  0.00     0.183 A 
HETATM    5  C   UNL     1      26.853  43.739  50.146  1.00  0.00     0.124 A 
HETATM    6  N   UNL     1      26.954  43.113  48.945  1.00  0.00    -0.242 NA
HETATM    7  C   UNL     1      27.025  41.772  49.011  1.00  0.00     0.086 A 
HETATM    8  C   UNL     1      27.043  41.060  50.241  1.00  0.00     0.088 A 
HETATM    9  N   UNL     1      27.025  41.669  51.436  1.00  0.00    -0.225 NA
HETATM   10  C   UNL     1      27.072  41.054  47.823  1.00  0.00     0.034 A 
HETATM   11  C   UNL     1      27.113  39.658  47.813  1.00  0.00     0.002 A 
HETATM   12  C   UNL     1      27.109  38.964  49.013  1.00  0.00     0.002 A 
HETATM   13  C   UNL     1      27.080  39.671  50.214  1.00  0.00     0.034 A 
ENDROOT
BRANCH   3  14
HETATM   14  N   UNL     1      27.535  43.748  53.600  1.00  0.00    -0.176 NA
HETATM   15  C   UNL     1      28.800  44.031  53.599  1.00  0.00     0.153 C 
BRANCH  15  16
HETATM   16  C   UNL     1      29.645  43.866  54.754  1.00  0.00     0.011 A 
HETATM   17  C   UNL     1      29.613  44.681  55.930  1.00  0.00     0.004 A 
HETATM   18  C   UNL     1      30.666  44.273  56.746  1.00  0.00     0.043 A 
HETATM   19  C   UNL     1      28.795  45.748  56.367  1.00  0.00     0.014 A 
HETATM   20  C   UNL     1      30.956  44.891  57.969  1.00  0.00     0.030 A 
HETATM   21  N   UNL     1      31.289  43.223  56.107  1.00  0.00    -0.364 N 
HETATM   22  C   UNL     1      30.135  45.946  58.376  1.00  0.00     0.002 A 
HETATM   23  C   UNL     1      29.064  46.367  57.592  1.00  0.00     0.001 A 
HETATM   24  H   UNL     1      32.099  42.735  56.463  1.00  0.00     0.165 HD
HETATM   25  C   UNL     1      30.670  42.956  54.914  1.00  0.00     0.102 A 
ENDBRANCH  15  16
ENDBRANCH   3  14
BRANCH   2  26
HETATM   26  N   UNL     1      25.999  46.129  52.662  1.00  0.00    -0.286 NA
HETATM   27  H   UNL     1      25.722  45.844  53.606  1.00  0.00     0.125 HD
HETATM   28  H   UNL     1      26.579  46.973  52.725  1.00  0.00     0.125 HD
ENDBRANCH   2  26
BRANCH   1  29
HETATM   29  C   UNL     1      26.849  46.299  49.628  1.00  0.00     0.257 C 
HETATM   30  N   UNL     1      25.750  47.130  49.732  1.00  0.00    -0.352 N 
HETATM   31  H   UNL     1      25.102  46.889  50.469  1.00  0.00     0.163 HD
HETATM   32  O   UNL     1      27.843  46.579  48.972  1.00  0.00    -0.267 OA
BRANCH  30  33
HETATM   33  C   UNL     1      25.751  48.505  49.300  1.00  0.00     0.161 C 
BRANCH  33  34
HETATM   34  C   UNL     1      24.382  49.030  48.914  1.00  0.00    -0.041 A 
HETATM   35  C   UNL     1      23.173  48.378  49.215  1.00  0.00     0.009 A 
HETATM   36  C   UNL     1      21.942  48.926  48.841  1.00  0.00     0.001 A 
HETATM   37  C   UNL     1      21.897  50.144  48.170  1.00  0.00     0.000 A 
HETATM   38  C   UNL     1      23.080  50.817  47.880  1.00  0.00     0.001 A 
HETATM   39  C   UNL     1      24.310  50.268  48.252  1.00  0.00     0.009 A 
ENDBRANCH  33  34
ENDBRANCH  30  33
ENDBRANCH   1  29
TORSDOF 6
ENDMDL
MODEL 6
REMARK VINA RESULT:     -10.8      1.683      9.036
REMARK  6 active torsions:
REMARK  status: ('A' for Active; 'I' for Inactive)
REMARK    1  A    between atoms: C_4  and  C_5 
REMARK    2  A    between atoms: C_5  and  N_6 
REMARK       I    between atoms: N_6  and  C_7 
REMARK    3  A    between atoms: C_7  and  C_8 
REMARK    4  A    between atoms: C_9  and  N_10 
REMARK    5  A    between atoms: N_11  and  N_12 
REMARK    6  A    between atoms: C_13  and  C_14 
ROOT
HETATM    1  C   UNL     1      26.339  45.476  52.640  1.00  0.00     0.104 C 
HETATM    2  C   UNL     1      25.686  46.302  51.731  1.00  0.00     0.123 C 
HETATM    3  N   UNL     1      25.142  45.466  50.757  1.00  0.00    -0.202 N 
HETATM    4  C   UNL     1      25.948  44.348  50.695  1.00  0.00     0.183 A 
HETATM    5  C   UNL     1      26.635  44.289  51.911  1.00  0.00     0.124 A 
HETATM    6  N   UNL     1      27.387  43.205  52.231  1.00  0.00    -0.242 NA
HETATM    7  C   UNL     1      27.473  42.271  51.268  1.00  0.00     0.086 A 
HETATM    8  C   UNL     1      26.793  42.381  50.024  1.00  0.00     0.088 A 
HETATM    9  N   UNL     1      25.983  43.407  49.725  1.00  0.00    -0.225 NA
HETATM   10  C   UNL     1      28.271  41.157  51.495  1.00  0.00     0.034 A 
HETATM   11  C   UNL     1      28.435  40.164  50.528  1.00  0.00     0.002 A 
HETATM   12  C   UNL     1      27.788  40.283  49.308  1.00  0.00     0.002 A 
HETATM   13  C   UNL     1      26.969  41.386  49.070  1.00  0.00     0.034 A 
ENDROOT
BRANCH   3  14
HETATM   14  N   UNL     1      23.963  45.659  50.070  1.00  0.00    -0.176 NA
HETATM   15  C   UNL     1      23.999  46.748  49.367  1.00  0.00     0.153 C 
BRANCH  15  16
HETATM   16  C   UNL     1      22.879  47.220  48.593  1.00  0.00     0.011 A 
HETATM   17  C   UNL     1      22.409  48.572  48.551  1.00  0.00     0.004 A 
HETATM   18  C   UNL     1      21.240  48.581  47.793  1.00  0.00     0.043 A 
HETATM   19  C   UNL     1      22.861  49.789  49.110  1.00  0.00     0.014 A 
HETATM   20  C   UNL     1      20.488  49.743  47.582  1.00  0.00     0.030 A 
HETATM   21  N   UNL     1      21.031  47.291  47.357  1.00  0.00    -0.364 N 
HETATM   22  C   UNL     1      20.954  50.933  48.148  1.00  0.00     0.002 A 
HETATM   23  C   UNL     1      22.127  50.960  48.896  1.00  0.00     0.001 A 
HETATM   24  H   UNL     1      20.245  46.996  46.795  1.00  0.00     0.165 HD
HETATM   25  C   UNL     1      22.023  46.465  47.818  1.00  0.00     0.102 A 
ENDBRANCH  15  16
ENDBRANCH   3  14
BRANCH   2  26
HETATM   26  N   UNL     1      25.409  47.643  51.769  1.00  0.00    -0.286 NA
HETATM   27  H   UNL     1      24.484  47.904  52.123  1.00  0.00     0.125 HD
HETATM   28  H   UNL     1      26.117  48.236  52.216  1.00  0.00     0.125 HD
ENDBRANCH   2  26
BRANCH   1  29
HETATM   29  C   UNL     1      26.612  45.807  54.036  1.00  0.00     0.257 C 
HETATM   30  N   UNL     1      27.922  45.545  54.386  1.00  0.00    -0.352 N 
HETATM   31  H   UNL     1      28.529  45.307  53.614  1.00  0.00     0.163 HD
HETATM   32  O   UNL     1      25.810  46.345  54.788  1.00  0.00    -0.267 OA
BRANCH  30  33
HETATM   33  C   UNL     1      28.555  46.094  55.559  1.00  0.00     0.161 C 
BRANCH  33  34
HETATM   34  C   UNL     1      29.627  45.201  56.154  1.00  0.00    -0.041 A 
HETATM   35  C   UNL     1      30.191  44.095  55.492  1.00  0.00     0.009 A 
HETATM   36  C   UNL     1      31.188  43.322  56.096  1.00  0.00     0.001 A 
HETATM   37  C   UNL     1      31.648  43.647  57.367  1.00  0.00     0.000 A 
HETATM   38  C   UNL     1      31.118  44.750  58.032  1.00  0.00     0.001 A 
HETATM   39  C   UNL     1      30.121  45.522  57.430  1.00  0.00     0.009 A 
ENDBRANCH  33  34
ENDBRANCH  30  33
ENDBRANCH   1  29
TORSDOF 6
ENDMDL
MODEL 7
REMARK VINA RESULT:     -10.7      2.212      8.871
REMARK  6 active torsions:
REMARK  status: ('A' for Active; 'I' for Inactive)
REMARK    1  A    between atoms: C_4  and  C_5 
REMARK    2  A    between atoms: C_5  and  N_6 
REMARK       I    between atoms: N_6  and  C_7 
REMARK    3  A    between atoms: C_7  and  C_8 
REMARK    4  A    between atoms: C_9  and  N_10 
REMARK    5  A    between atoms: N_11  and  N_12 
REMARK    6  A    between atoms: C_13  and  C_14 
ROOT
HETATM    1  C   UNL     1      25.224  42.973  50.830  1.00  0.00     0.104 C 
HETATM    2  C   UNL     1      24.349  44.046  50.963  1.00  0.00     0.123 C 
HETATM    3  N   UNL     1      25.097  45.105  51.477  1.00  0.00    -0.202 N 
HETATM    4  C   UNL     1      26.120  44.548  52.217  1.00  0.00     0.183 A 
HETATM    5  C   UNL     1      26.274  43.239  51.754  1.00  0.00     0.124 A 
HETATM    6  N   UNL     1      27.319  42.476  52.167  1.00  0.00    -0.242 NA
HETATM    7  C   UNL     1      28.107  43.048  53.093  1.00  0.00     0.086 A 
HETATM    8  C   UNL     1      27.898  44.370  53.573  1.00  0.00     0.088 A 
HETATM    9  N   UNL     1      26.919  45.165  53.116  1.00  0.00    -0.225 NA
HETATM   10  C   UNL     1      29.165  42.311  53.609  1.00  0.00     0.034 A 
HETATM   11  C   UNL     1      30.004  42.827  54.597  1.00  0.00     0.002 A 
HETATM   12  C   UNL     1      29.787  44.109  55.080  1.00  0.00     0.002 A 
HETATM   13  C   UNL     1      28.740  44.869  54.559  1.00  0.00     0.034 A 
ENDROOT
BRANCH   3  14
HETATM   14  N   UNL     1      24.923  46.444  51.207  1.00  0.00    -0.176 NA
HETATM   15  C   UNL     1      25.240  46.726  49.982  1.00  0.00     0.153 C 
BRANCH  15  16
HETATM   16  C   UNL     1      25.205  48.063  49.447  1.00  0.00     0.011 A 
HETATM   17  C   UNL     1      24.023  48.781  49.082  1.00  0.00     0.004 A 
HETATM   18  C   UNL     1      24.429  49.977  48.493  1.00  0.00     0.043 A 
HETATM   19  C   UNL     1      22.638  48.513  49.178  1.00  0.00     0.014 A 
HETATM   20  C   UNL     1      23.521  50.910  47.977  1.00  0.00     0.030 A 
HETATM   21  N   UNL     1      25.806  50.001  48.537  1.00  0.00    -0.364 N 
HETATM   22  C   UNL     1      22.158  50.619  48.081  1.00  0.00     0.002 A 
HETATM   23  C   UNL     1      21.719  49.441  48.679  1.00  0.00     0.001 A 
HETATM   24  H   UNL     1      26.378  50.747  48.166  1.00  0.00     0.165 HD
HETATM   25  C   UNL     1      26.284  48.861  49.127  1.00  0.00     0.102 A 
ENDBRANCH  15  16
ENDBRANCH   3  14
BRANCH   2  26
HETATM   26  N   UNL     1      23.054  44.212  50.546  1.00  0.00    -0.286 NA
HETATM   27  H   UNL     1      22.372  44.446  51.273  1.00  0.00     0.125 HD
HETATM   28  H   UNL     1      22.917  44.838  49.745  1.00  0.00     0.125 HD
ENDBRANCH   2  26
BRANCH   1  29
HETATM   29  C   UNL     1      25.054  41.857  49.905  1.00  0.00     0.257 C 
HETATM   30  N   UNL     1      26.250  41.227  49.624  1.00  0.00    -0.352 N 
HETATM   31  H   UNL     1      27.031  41.522  50.194  1.00  0.00     0.163 HD
HETATM   32  O   UNL     1      23.972  41.456  49.496  1.00  0.00    -0.267 OA
BRANCH  30  33
HETATM   33  C   UNL     1      26.338  39.910  49.046  1.00  0.00     0.161 C 
BRANCH  33  34
HETATM   34  C   UNL     1      27.672  39.225  49.272  1.00  0.00    -0.041 A 
HETATM   35  C   UNL     1      28.348  38.470  48.296  1.00  0.00     0.009 A 
HETATM   36  C   UNL     1      29.584  37.877  48.569  1.00  0.00     0.001 A 
HETATM   37  C   UNL     1      30.174  38.037  49.818  1.00  0.00     0.000 A 
HETATM   38  C   UNL     1      29.532  38.798  50.792  1.00  0.00     0.001 A 
HETATM   39  C   UNL     1      28.296  39.389  50.521  1.00  0.00     0.009 A 
ENDBRANCH  33  34
ENDBRANCH  30  33
ENDBRANCH   1  29
TORSDOF 6
ENDMDL
MODEL 8
REMARK VINA RESULT:     -10.6      2.452      7.074
REMARK  6 active torsions:
REMARK  status: ('A' for Active; 'I' for Inactive)
REMARK    1  A    between atoms: C_4  and  C_5 
REMARK    2  A    between atoms: C_5  and  N_6 
REMARK       I    between atoms: N_6  and  C_7 
REMARK    3  A    between atoms: C_7  and  C_8 
REMARK    4  A    between atoms: C_9  and  N_10 
REMARK    5  A    between atoms: N_11  and  N_12 
REMARK    6  A    between atoms: C_13  and  C_14 
ROOT
HETATM    1  C   UNL     1      26.501  44.256  51.544  1.00  0.00     0.104 C 
HETATM    2  C   UNL     1      26.876  43.336  50.571  1.00  0.00     0.123 C 
HETATM    3  N   UNL     1      27.659  42.378  51.214  1.00  0.00    -0.202 N 
HETATM    4  C   UNL     1      28.262  43.008  52.283  1.00  0.00     0.183 A 
HETATM    5  C   UNL     1      27.490  44.138  52.562  1.00  0.00     0.124 A 
HETATM    6  N   UNL     1      27.726  44.883  53.672  1.00  0.00    -0.242 NA
HETATM    7  C   UNL     1      28.786  44.493  54.400  1.00  0.00     0.086 A 
HETATM    8  C   UNL     1      29.577  43.360  54.066  1.00  0.00     0.088 A 
HETATM    9  N   UNL     1      29.309  42.568  53.017  1.00  0.00    -0.225 NA
HETATM   10  C   UNL     1      29.129  45.239  55.522  1.00  0.00     0.034 A 
HETATM   11  C   UNL     1      30.237  44.914  56.306  1.00  0.00     0.002 A 
HETATM   12  C   UNL     1      31.020  43.821  55.967  1.00  0.00     0.002 A 
HETATM   13  C   UNL     1      30.679  43.052  54.854  1.00  0.00     0.034 A 
ENDROOT
BRANCH   3  14
HETATM   14  N   UNL     1      27.729  41.035  50.915  1.00  0.00    -0.176 NA
HETATM   15  C   UNL     1      28.484  40.818  49.883  1.00  0.00     0.153 C 
BRANCH  15  16
HETATM   16  C   UNL     1      28.689  39.509  49.319  1.00  0.00     0.011 A 
HETATM   17  C   UNL     1      28.418  39.135  47.965  1.00  0.00     0.004 A 
HETATM   18  C   UNL     1      28.629  37.761  47.863  1.00  0.00     0.043 A 
HETATM   19  C   UNL     1      27.990  39.839  46.816  1.00  0.00     0.014 A 
HETATM   20  C   UNL     1      28.413  37.052  46.675  1.00  0.00     0.030 A 
HETATM   21  N   UNL     1      29.051  37.325  49.100  1.00  0.00    -0.364 N 
HETATM   22  C   UNL     1      27.985  37.770  45.556  1.00  0.00     0.002 A 
HETATM   23  C   UNL     1      27.783  39.145  45.619  1.00  0.00     0.001 A 
HETATM   24  H   UNL     1      29.267  36.364  49.326  1.00  0.00     0.165 HD
HETATM   25  C   UNL     1      29.110  38.373  49.981  1.00  0.00     0.102 A 
ENDBRANCH  15  16
ENDBRANCH   3  14
BRANCH   2  26
HETATM   26  N   UNL     1      26.479  43.188  49.268  1.00  0.00    -0.286 NA
HETATM   27  H   UNL     1      25.972  43.978  48.858  1.00  0.00     0.125 HD
HETATM   28  H   UNL     1      27.203  42.879  48.610  1.00  0.00     0.125 HD
ENDBRANCH   2  26
BRANCH   1  29
HETATM   29  C   UNL     1      25.321  45.114  51.483  1.00  0.00     0.257 C 
HETATM   30  N   UNL     1      25.530  46.231  50.699  1.00  0.00    -0.352 N 
HETATM   31  H   UNL     1      26.393  46.226  50.172  1.00  0.00     0.163 HD
HETATM   32  O   UNL     1      24.238  44.837  51.983  1.00  0.00    -0.267 OA
BRANCH  30  33
HETATM   33  C   UNL     1      24.462  47.046  50.177  1.00  0.00     0.161 C 
BRANCH  33  34
HETATM   34  C   UNL     1      24.937  48.251  49.388  1.00  0.00    -0.041 A 
HETATM   35  C   UNL     1      26.287  48.619  49.243  1.00  0.00     0.009 A 
HETATM   36  C   UNL     1      26.655  49.736  48.488  1.00  0.00     0.001 A 
HETATM   37  C   UNL     1      25.682  50.501  47.854  1.00  0.00     0.000 A 
HETATM   38  C   UNL     1      24.341  50.144  47.967  1.00  0.00     0.001 A 
HETATM   39  C   UNL     1      23.972  49.028  48.723  1.00  0.00     0.009 A 
ENDBRANCH  33  34
ENDBRANCH  30  33
ENDBRANCH   1  29
TORSDOF 6
ENDMDL
MODEL 9
REMARK VINA RESULT:     -10.5      2.043      7.024
REMARK  6 active torsions:
REMARK  status: ('A' for Active; 'I' for Inactive)
REMARK    1  A    between atoms: C_4  and  C_5 
REMARK    2  A    between atoms: C_5  and  N_6 
REMARK       I    between atoms: N_6  and  C_7 
REMARK    3  A    between atoms: C_7  and  C_8 
REMARK    4  A    between atoms: C_9  and  N_10 
REMARK    5  A    between atoms: N_11  and  N_12 
REMARK    6  A    between atoms: C_13  and  C_14 
ROOT
HETATM    1  C   UNL     1      24.222  45.483  49.245  1.00  0.00     0.104 C 
HETATM    2  C   UNL     1      25.498  45.832  49.673  1.00  0.00     0.123 C 
HETATM    3  N   UNL     1      25.377  47.063  50.317  1.00  0.00    -0.202 N 
HETATM    4  C   UNL     1      24.301  47.709  49.743  1.00  0.00     0.183 A 
HETATM    5  C   UNL     1      23.518  46.717  49.148  1.00  0.00     0.124 A 
HETATM    6  N   UNL     1      22.293  47.012  48.641  1.00  0.00    -0.242 NA
HETATM    7  C   UNL     1      21.960  48.313  48.686  1.00  0.00     0.086 A 
HETATM    8  C   UNL     1      22.799  49.305  49.264  1.00  0.00     0.088 A 
HETATM    9  N   UNL     1      23.976  49.017  49.840  1.00  0.00    -0.225 NA
HETATM   10  C   UNL     1      20.746  48.705  48.135  1.00  0.00     0.034 A 
HETATM   11  C   UNL     1      20.349  50.043  48.116  1.00  0.00     0.002 A 
HETATM   12  C   UNL     1      21.178  51.011  48.660  1.00  0.00     0.002 A 
HETATM   13  C   UNL     1      22.391  50.632  49.234  1.00  0.00     0.034 A 
ENDROOT
BRANCH   3  14
HETATM   14  N   UNL     1      26.111  47.505  51.396  1.00  0.00    -0.176 NA
HETATM   15  C   UNL     1      25.831  46.831  52.468  1.00  0.00     0.153 C 
BRANCH  15  16
HETATM   16  C   UNL     1      26.413  47.119  53.753  1.00  0.00     0.011 A 
HETATM   17  C   UNL     1      27.435  46.349  54.395  1.00  0.00     0.004 A 
HETATM   18  C   UNL     1      27.623  46.887  55.666  1.00  0.00     0.043 A 
HETATM   19  C   UNL     1      28.204  45.225  54.017  1.00  0.00     0.014 A 
HETATM   20  C   UNL     1      28.528  46.345  56.587  1.00  0.00     0.030 A 
HETATM   21  N   UNL     1      26.776  47.968  55.777  1.00  0.00    -0.364 N 
HETATM   22  C   UNL     1      29.273  45.232  56.191  1.00  0.00     0.002 A 
HETATM   23  C   UNL     1      29.121  44.681  54.921  1.00  0.00     0.001 A 
HETATM   24  H   UNL     1      26.688  48.545  56.602  1.00  0.00     0.165 HD
HETATM   25  C   UNL     1      26.056  48.129  54.622  1.00  0.00     0.102 A 
ENDBRANCH  15  16
ENDBRANCH   3  14
BRANCH   2  26
HETATM   26  N   UNL     1      26.672  45.124  49.685  1.00  0.00    -0.286 NA
HETATM   27  H   UNL     1      26.780  44.441  50.440  1.00  0.00     0.125 HD
HETATM   28  H   UNL     1      26.940  44.685  48.798  1.00  0.00     0.125 HD
ENDBRANCH   2  26
BRANCH   1  29
HETATM   29  C   UNL     1      23.762  44.122  48.989  1.00  0.00     0.257 C 
HETATM   30  N   UNL     1      24.604  43.441  48.131  1.00  0.00    -0.352 N 
HETATM   31  H   UNL     1      25.473  43.914  47.923  1.00  0.00     0.163 HD
HETATM   32  O   UNL     1      22.800  43.602  49.539  1.00  0.00    -0.267 OA
BRANCH  30  33
HETATM   33  C   UNL     1      24.600  42.007  47.987  1.00  0.00     0.161 C 
BRANCH  33  34
HETATM   34  C   UNL     1      25.792  41.321  48.628  1.00  0.00    -0.041 A 
HETATM   35  C   UNL     1      26.979  41.000  47.945  1.00  0.00     0.009 A 
HETATM   36  C   UNL     1      28.046  40.380  48.602  1.00  0.00     0.001 A 
HETATM   37  C   UNL     1      27.951  40.079  49.957  1.00  0.00     0.000 A 
HETATM   38  C   UNL     1      26.792  40.406  50.657  1.00  0.00     0.001 A 
HETATM   39  C   UNL     1      25.725  41.025  50.000  1.00  0.00     0.009 A 
ENDBRANCH  33  34
ENDBRANCH  30  33
ENDBRANCH   1  29
TORSDOF 6
ENDMDL
MODEL 10
REMARK VINA RESULT:     -10.1      1.871      2.435
REMARK  6 active torsions:
REMARK  status: ('A' for Active; 'I' for Inactive)
REMARK    1  A    between atoms: C_4  and  C_5 
REMARK    2  A    between atoms: C_5  and  N_6 
REMARK       I    between atoms: N_6  and  C_7 
REMARK    3  A    between atoms: C_7  and  C_8 
REMARK    4  A    between atoms: C_9  and  N_10 
REMARK    5  A    between atoms: N_11  and  N_12 
REMARK    6  A    between atoms: C_13  and  C_14 
ROOT
HETATM    1  C   UNL     1      24.652  43.891  49.619  1.00  0.00     0.104 C 
HETATM    2  C   UNL     1      24.893  44.397  50.891  1.00  0.00     0.123 C 
HETATM    3  N   UNL     1      26.204  44.048  51.214  1.00  0.00    -0.202 N 
HETATM    4  C   UNL     1      26.487  42.885  50.528  1.00  0.00     0.183 A 
HETATM    5  C   UNL     1      25.581  42.822  49.467  1.00  0.00     0.124 A 
HETATM    6  N   UNL     1      25.708  41.877  48.501  1.00  0.00    -0.242 NA
HETATM    7  C   UNL     1      26.697  40.989  48.704  1.00  0.00     0.086 A 
HETATM    8  C   UNL     1      27.578  41.057  49.817  1.00  0.00     0.088 A 
HETATM    9  N   UNL     1      27.515  42.032  50.737  1.00  0.00    -0.225 NA
HETATM   10  C   UNL     1      26.856  39.956  47.790  1.00  0.00     0.034 A 
HETATM   11  C   UNL     1      27.839  38.979  47.953  1.00  0.00     0.002 A 
HETATM   12  C   UNL     1      28.684  39.034  49.051  1.00  0.00     0.002 A 
HETATM   13  C   UNL     1      28.549  40.076  49.969  1.00  0.00     0.034 A 
ENDROOT
BRANCH   3  14
HETATM   14  N   UNL     1      27.089  44.780  51.976  1.00  0.00    -0.176 NA
HETATM   15  C   UNL     1      27.025  44.446  53.227  1.00  0.00     0.153 C 
BRANCH  15  16
HETATM   16  C   UNL     1      27.803  45.091  54.254  1.00  0.00     0.011 A 
HETATM   17  C   UNL     1      28.964  44.543  54.886  1.00  0.00     0.004 A 
HETATM   18  C   UNL     1      29.336  45.420  55.902  1.00  0.00     0.043 A 
HETATM   19  C   UNL     1      29.721  43.364  54.700  1.00  0.00     0.014 A 
HETATM   20  C   UNL     1      30.417  45.168  56.756  1.00  0.00     0.030 A 
HETATM   21  N   UNL     1      28.459  46.481  55.861  1.00  0.00    -0.364 N 
HETATM   22  C   UNL     1      31.147  43.994  56.555  1.00  0.00     0.002 A 
HETATM   23  C   UNL     1      30.811  43.105  55.537  1.00  0.00     0.001 A 
HETATM   24  H   UNL     1      28.480  47.267  56.496  1.00  0.00     0.165 HD
HETATM   25  C   UNL     1      27.542  46.303  54.859  1.00  0.00     0.102 A 
ENDBRANCH  15  16
ENDBRANCH   3  14
BRANCH   2  26
HETATM   26  N   UNL     1      24.152  45.231  51.687  1.00  0.00    -0.286 NA
HETATM   27  H   UNL     1      23.338  44.812  52.145  1.00  0.00     0.125 HD
HETATM   28  H   UNL     1      24.677  45.780  52.376  1.00  0.00     0.125 HD
ENDBRANCH   2  26
BRANCH   1  29
HETATM   29  C   UNL     1      23.658  44.406  48.682  1.00  0.00     0.257 C 
HETATM   30  N   UNL     1      22.843  45.360  49.260  1.00  0.00    -0.352 N 
HETATM   31  H   UNL     1      23.133  45.667  50.178  1.00  0.00     0.163 HD
HETATM   32  O   UNL     1      23.605  44.107  47.496  1.00  0.00    -0.267 OA
BRANCH  30  33
HETATM   33  C   UNL     1      22.032  46.277  48.499  1.00  0.00     0.161 C 
BRANCH  33  34
HETATM   34  C   UNL     1      22.574  47.693  48.461  1.00  0.00    -0.041 A 
HETATM   35  C   UNL     1      23.835  48.068  48.958  1.00  0.00     0.009 A 
HETATM   36  C   UNL     1      24.280  49.392  48.877  1.00  0.00     0.001 A 
HETATM   37  C   UNL     1      23.476  50.362  48.289  1.00  0.00     0.000 A 
HETATM   38  C   UNL     1      22.232  50.008  47.772  1.00  0.00     0.001 A 
HETATM   39  C   UNL     1      21.787  48.686  47.854  1.00  0.00     0.009 A 
ENDBRANCH  33  34
ENDBRANCH  30  33
ENDBRANCH   1  29
TORSDOF 6
ENDMDL
