MODEL 1
REMARK VINA RESULT:      -9.4      0.000      0.000
REMARK  6 active torsions:
REMARK  status: ('A' for Active; 'I' for Inactive)
REMARK    1  A    between atoms: C_2  and  N_3 
REMARK    2  A    between atoms: C_2  and  C_15 
REMARK    3  A    between atoms: C_5  and  C_6 
REMARK       I    between atoms: C_15  and  N_16 
REMARK    4  A    between atoms: N_16  and  C_17 
REMARK    5  A    between atoms: C_20  and  O_21 
REMARK    6  A    between atoms: O_21  and  C_22 
ROOT
HETATM    1  C   UNL     1      24.218  47.066  49.971  1.00  0.00     0.253 C 
HETATM    2  N   UNL     1      24.599  45.740  49.960  1.00  0.00    -0.325 N 
HETATM    3  O   UNL     1      24.556  47.918  50.792  1.00  0.00    -0.271 OA
HETATM    4  H   UNL     1      24.281  45.142  49.206  1.00  0.00     0.169 HD
ENDROOT
BRANCH   1   5
HETATM    5  C   UNL     1      23.329  47.518  48.784  1.00  0.00     0.276 C 
HETATM    6  C   UNL     1      22.270  46.494  48.392  1.00  0.00     0.050 C 
BRANCH   5   7
HETATM    7  N   UNL     1      22.701  48.895  49.078  1.00  0.00    -0.049 N 
HETATM    8  H   UNL     1      22.231  48.755  49.989  1.00  0.00     0.281 HD
HETATM    9  C   UNL     1      21.576  49.361  48.175  1.00  0.00     0.238 C 
HETATM   10  C   UNL     1      22.275  50.329  47.220  1.00  0.00     0.041 C 
HETATM   11  C   UNL     1      23.465  50.901  47.980  1.00  0.00     0.030 C 
HETATM   12  C   UNL     1      23.669  50.032  49.208  1.00  0.00     0.237 C 
BRANCH   9  13
HETATM   13  C   UNL     1      20.488  50.019  48.980  1.00  0.00     0.042 A 
HETATM   14  N   UNL     1      19.478  49.336  49.639  1.00  0.00    -0.363 N 
HETATM   15  C   UNL     1      19.224  47.910  49.692  1.00  0.00     0.155 C 
HETATM   16  C   UNL     1      18.668  50.232  50.294  1.00  0.00     0.090 A 
HETATM   17  C   UNL     1      19.125  51.500  50.044  1.00  0.00     0.019 A 
HETATM   18  C   UNL     1      20.262  51.372  49.221  1.00  0.00     0.028 A 
ENDBRANCH   9  13
ENDBRANCH   5   7
ENDBRANCH   1   5
BRANCH   2  19
HETATM   19  C   UNL     1      25.445  45.089  50.891  1.00  0.00     0.035 A 
HETATM   20  C   UNL     1      26.776  44.753  50.640  1.00  0.00     0.032 A 
HETATM   21  C   UNL     1      27.532  44.084  51.610  1.00  0.00     0.039 A 
HETATM   22  C   UNL     1      26.973  43.755  52.845  1.00  0.00     0.076 A 
HETATM   23  C   UNL     1      25.642  44.080  53.101  1.00  0.00     0.039 A 
HETATM   24  C   UNL     1      24.886  44.750  52.131  1.00  0.00     0.032 A 
BRANCH  22  25
HETATM   25  O   UNL     1      27.785  43.047  53.700  1.00  0.00    -0.311 OA
BRANCH  25  26
HETATM   26  C   UNL     1      28.692  43.744  54.461  1.00  0.00     0.076 A 
HETATM   27  C   UNL     1      28.304  44.991  54.949  1.00  0.00     0.037 A 
HETATM   28  C   UNL     1      29.168  45.713  55.771  1.00  0.00     0.003 A 
HETATM   29  C   UNL     1      30.411  45.178  56.115  1.00  0.00     0.000 A 
HETATM   30  C   UNL     1      30.786  43.918  55.645  1.00  0.00     0.003 A 
HETATM   31  C   UNL     1      29.923  43.193  54.823  1.00  0.00     0.037 A 
ENDBRANCH  25  26
ENDBRANCH  22  25
ENDBRANCH   2  19
TORSDOF 6
ENDMDL
MODEL 2
REMARK VINA RESULT:      -9.3      2.381      9.336
REMARK  6 active torsions:
REMARK  status: ('A' for Active; 'I' for Inactive)
REMARK    1  A    between atoms: C_2  and  N_3 
REMARK    2  A    between atoms: C_2  and  C_15 
REMARK    3  A    between atoms: C_5  and  C_6 
REMARK       I    between atoms: C_15  and  N_16 
REMARK    4  A    between atoms: N_16  and  C_17 
REMARK    5  A    between atoms: C_20  and  O_21 
REMARK    6  A    between atoms: O_21  and  C_22 
ROOT
HETATM    1  C   UNL     1      25.430  44.403  51.562  1.00  0.00     0.253 C 
HETATM    2  N   UNL     1      25.909  45.134  50.493  1.00  0.00    -0.325 N 
HETATM    3  O   UNL     1      24.451  44.680  52.255  1.00  0.00    -0.271 OA
HETATM    4  H   UNL     1      26.706  44.782  49.975  1.00  0.00     0.169 HD
ENDROOT
BRANCH   1   5
HETATM    5  C   UNL     1      26.174  43.076  51.855  1.00  0.00     0.276 C 
HETATM    6  C   UNL     1      26.925  42.520  50.652  1.00  0.00     0.050 C 
BRANCH   5   7
HETATM    7  N   UNL     1      27.105  43.242  53.074  1.00  0.00    -0.049 N 
HETATM    8  H   UNL     1      26.493  43.680  53.784  1.00  0.00     0.281 HD
HETATM    9  C   UNL     1      28.254  44.223  52.952  1.00  0.00     0.238 C 
HETATM   10  C   UNL     1      29.453  43.321  52.663  1.00  0.00     0.041 C 
HETATM   11  C   UNL     1      29.142  41.972  53.300  1.00  0.00     0.030 C 
HETATM   12  C   UNL     1      27.661  41.970  53.639  1.00  0.00     0.237 C 
BRANCH   9  13
HETATM   13  C   UNL     1      28.412  45.015  54.222  1.00  0.00     0.042 A 
HETATM   14  N   UNL     1      27.698  46.164  54.524  1.00  0.00    -0.363 N 
HETATM   15  C   UNL     1      26.702  46.856  53.729  1.00  0.00     0.155 C 
HETATM   16  C   UNL     1      28.068  46.622  55.765  1.00  0.00     0.090 A 
HETATM   17  C   UNL     1      29.039  45.796  56.267  1.00  0.00     0.019 A 
HETATM   18  C   UNL     1      29.259  44.790  55.304  1.00  0.00     0.028 A 
ENDBRANCH   9  13
ENDBRANCH   5   7
ENDBRANCH   1   5
BRANCH   2  19
HETATM   19  C   UNL     1      25.383  46.346  49.985  1.00  0.00     0.035 A 
HETATM   20  C   UNL     1      24.059  46.518  49.578  1.00  0.00     0.032 A 
HETATM   21  C   UNL     1      23.632  47.746  49.060  1.00  0.00     0.039 A 
HETATM   22  C   UNL     1      24.515  48.820  48.955  1.00  0.00     0.076 A 
HETATM   23  C   UNL     1      25.842  48.655  49.352  1.00  0.00     0.039 A 
HETATM   24  C   UNL     1      26.269  47.427  49.871  1.00  0.00     0.032 A 
BRANCH  22  25
HETATM   25  O   UNL     1      24.006  49.960  48.378  1.00  0.00    -0.311 OA
BRANCH  25  26
HETATM   26  C   UNL     1      22.699  50.292  48.640  1.00  0.00     0.076 A 
HETATM   27  C   UNL     1      22.377  50.681  49.940  1.00  0.00     0.037 A 
HETATM   28  C   UNL     1      21.076  51.079  50.243  1.00  0.00     0.003 A 
HETATM   29  C   UNL     1      20.104  51.102  49.241  1.00  0.00     0.000 A 
HETATM   30  C   UNL     1      20.435  50.737  47.934  1.00  0.00     0.003 A 
HETATM   31  C   UNL     1      21.737  50.338  47.629  1.00  0.00     0.037 A 
ENDBRANCH  25  26
ENDBRANCH  22  25
ENDBRANCH   2  19
TORSDOF 6
ENDMDL
MODEL 3
REMARK VINA RESULT:      -9.2      2.180      9.831
REMARK  6 active torsions:
REMARK  status: ('A' for Active; 'I' for Inactive)
REMARK    1  A    between atoms: C_2  and  N_3 
REMARK    2  A    between atoms: C_2  and  C_15 
REMARK    3  A    between atoms: C_5  and  C_6 
REMARK       I    between atoms: C_15  and  N_16 
REMARK    4  A    between atoms: N_16  and  C_17 
REMARK    5  A    between atoms: C_20  and  O_21 
REMARK    6  A    between atoms: O_21  and  C_22 
ROOT
HETATM    1  C   UNL     1      24.725  44.451  50.829  1.00  0.00     0.253 C 
HETATM    2  N   UNL     1      24.849  45.377  49.812  1.00  0.00    -0.325 N 
HETATM    3  O   UNL     1      23.696  44.178  51.446  1.00  0.00    -0.271 OA
HETATM    4  H   UNL     1      25.746  45.486  49.354  1.00  0.00     0.169 HD
ENDROOT
BRANCH   1   5
HETATM    5  C   UNL     1      26.005  43.643  51.160  1.00  0.00     0.276 C 
HETATM    6  C   UNL     1      26.886  43.373  49.947  1.00  0.00     0.050 C 
BRANCH   5   7
HETATM    7  N   UNL     1      26.797  44.333  52.290  1.00  0.00    -0.049 N 
HETATM    8  H   UNL     1      27.777  44.282  51.961  1.00  0.00     0.281 HD
HETATM    9  C   UNL     1      26.846  43.640  53.637  1.00  0.00     0.238 C 
HETATM   10  C   UNL     1      25.798  44.393  54.455  1.00  0.00     0.041 C 
HETATM   11  C   UNL     1      25.730  45.801  53.877  1.00  0.00     0.030 C 
HETATM   12  C   UNL     1      26.448  45.769  52.539  1.00  0.00     0.237 C 
BRANCH   9  13
HETATM   13  C   UNL     1      28.226  43.731  54.230  1.00  0.00     0.042 A 
HETATM   14  N   UNL     1      29.286  42.908  53.883  1.00  0.00    -0.363 N 
HETATM   15  C   UNL     1      29.317  41.810  52.938  1.00  0.00     0.155 C 
HETATM   16  C   UNL     1      30.404  43.274  54.593  1.00  0.00     0.090 A 
HETATM   17  C   UNL     1      30.076  44.313  55.424  1.00  0.00     0.019 A 
HETATM   18  C   UNL     1      28.714  44.602  55.202  1.00  0.00     0.028 A 
ENDBRANCH   9  13
ENDBRANCH   5   7
ENDBRANCH   1   5
BRANCH   2  19
HETATM   19  C   UNL     1      23.828  46.202  49.282  1.00  0.00     0.035 A 
HETATM   20  C   UNL     1      22.758  45.735  48.517  1.00  0.00     0.032 A 
HETATM   21  C   UNL     1      21.808  46.628  48.009  1.00  0.00     0.039 A 
HETATM   22  C   UNL     1      21.906  47.995  48.269  1.00  0.00     0.076 A 
HETATM   23  C   UNL     1      22.975  48.472  49.025  1.00  0.00     0.039 A 
HETATM   24  C   UNL     1      23.926  47.578  49.534  1.00  0.00     0.032 A 
BRANCH  22  25
HETATM   25  O   UNL     1      20.953  48.787  47.672  1.00  0.00    -0.311 OA
BRANCH  25  26
HETATM   26  C   UNL     1      20.315  49.728  48.443  1.00  0.00     0.076 A 
HETATM   27  C   UNL     1      20.375  51.057  48.024  1.00  0.00     0.037 A 
HETATM   28  C   UNL     1      19.698  52.041  48.743  1.00  0.00     0.003 A 
HETATM   29  C   UNL     1      18.951  51.691  49.869  1.00  0.00     0.000 A 
HETATM   30  C   UNL     1      18.872  50.356  50.271  1.00  0.00     0.003 A 
HETATM   31  C   UNL     1      19.548  49.370  49.553  1.00  0.00     0.037 A 
ENDBRANCH  25  26
ENDBRANCH  22  25
ENDBRANCH   2  19
TORSDOF 6
ENDMDL
MODEL 4
REMARK VINA RESULT:      -8.9      1.612      2.550
REMARK  6 active torsions:
REMARK  status: ('A' for Active; 'I' for Inactive)
REMARK    1  A    between atoms: C_2  and  N_3 
REMARK    2  A    between atoms: C_2  and  C_15 
REMARK    3  A    between atoms: C_5  and  C_6 
REMARK       I    between atoms: C_15  and  N_16 
REMARK    4  A    between atoms: N_16  and  C_17 
REMARK    5  A    between atoms: C_20  and  O_21 
REMARK    6  A    between atoms: O_21  and  C_22 
ROOT
HETATM    1  C   UNL     1      23.500  48.136  49.257  1.00  0.00     0.253 C 
HETATM    2  N   UNL     1      24.641  48.083  50.031  1.00  0.00    -0.325 N 
HETATM    3  O   UNL     1      22.900  47.177  48.773  1.00  0.00    -0.271 OA
HETATM    4  H   UNL     1      25.023  48.945  50.404  1.00  0.00     0.169 HD
ENDROOT
BRANCH   1   5
HETATM    5  C   UNL     1      22.897  49.549  49.047  1.00  0.00     0.276 C 
HETATM    6  C   UNL     1      23.232  50.158  47.691  1.00  0.00     0.050 C 
BRANCH   5   7
HETATM    7  N   UNL     1      21.375  49.524  49.294  1.00  0.00    -0.049 N 
HETATM    8  H   UNL     1      21.222  48.609  49.753  1.00  0.00     0.281 HD
HETATM    9  C   UNL     1      20.468  49.460  48.081  1.00  0.00     0.238 C 
HETATM   10  C   UNL     1      20.013  50.910  47.910  1.00  0.00     0.041 C 
HETATM   11  C   UNL     1      20.054  51.541  49.296  1.00  0.00     0.030 C 
HETATM   12  C   UNL     1      20.849  50.604  50.190  1.00  0.00     0.237 C 
BRANCH   9  13
HETATM   13  C   UNL     1      19.323  48.514  48.325  1.00  0.00     0.042 A 
HETATM   14  N   UNL     1      19.223  47.246  47.775  1.00  0.00    -0.363 N 
HETATM   15  C   UNL     1      20.130  46.570  46.869  1.00  0.00     0.155 C 
HETATM   16  C   UNL     1      18.070  46.642  48.217  1.00  0.00     0.090 A 
HETATM   17  C   UNL     1      17.400  47.519  49.031  1.00  0.00     0.019 A 
HETATM   18  C   UNL     1      18.179  48.692  49.099  1.00  0.00     0.028 A 
ENDBRANCH   9  13
ENDBRANCH   5   7
ENDBRANCH   1   5
BRANCH   2  19
HETATM   19  C   UNL     1      25.356  46.924  50.417  1.00  0.00     0.035 A 
HETATM   20  C   UNL     1      26.475  46.430  49.743  1.00  0.00     0.032 A 
HETATM   21  C   UNL     1      27.104  45.259  50.179  1.00  0.00     0.039 A 
HETATM   22  C   UNL     1      26.634  44.574  51.299  1.00  0.00     0.076 A 
HETATM   23  C   UNL     1      25.514  45.055  51.975  1.00  0.00     0.039 A 
HETATM   24  C   UNL     1      24.884  46.228  51.539  1.00  0.00     0.032 A 
BRANCH  22  25
HETATM   25  O   UNL     1      27.291  43.404  51.604  1.00  0.00    -0.311 OA
BRANCH  25  26
HETATM   26  C   UNL     1      28.266  43.439  52.570  1.00  0.00     0.076 A 
HETATM   27  C   UNL     1      28.027  44.215  53.704  1.00  0.00     0.037 A 
HETATM   28  C   UNL     1      28.964  44.240  54.736  1.00  0.00     0.003 A 
HETATM   29  C   UNL     1      30.128  43.477  54.639  1.00  0.00     0.000 A 
HETATM   30  C   UNL     1      30.353  42.681  53.514  1.00  0.00     0.003 A 
HETATM   31  C   UNL     1      29.417  42.654  52.480  1.00  0.00     0.037 A 
ENDBRANCH  25  26
ENDBRANCH  22  25
ENDBRANCH   2  19
TORSDOF 6
ENDMDL
MODEL 5
REMARK VINA RESULT:      -8.8      2.798      4.677
REMARK  6 active torsions:
REMARK  status: ('A' for Active; 'I' for Inactive)
REMARK    1  A    between atoms: C_2  and  N_3 
REMARK    2  A    between atoms: C_2  and  C_15 
REMARK    3  A    between atoms: C_5  and  C_6 
REMARK       I    between atoms: C_15  and  N_16 
REMARK    4  A    between atoms: N_16  and  C_17 
REMARK    5  A    between atoms: C_20  and  O_21 
REMARK    6  A    between atoms: O_21  and  C_22 
ROOT
HETATM    1  C   UNL     1      26.608  43.304  49.947  1.00  0.00     0.253 C 
HETATM    2  N   UNL     1      26.827  42.537  51.075  1.00  0.00    -0.325 N 
HETATM    3  O   UNL     1      27.249  44.296  49.603  1.00  0.00    -0.271 OA
HETATM    4  H   UNL     1      26.251  41.718  51.231  1.00  0.00     0.169 HD
ENDROOT
BRANCH   1   5
HETATM    5  C   UNL     1      25.482  42.806  49.006  1.00  0.00     0.276 C 
HETATM    6  C   UNL     1      24.681  41.642  49.577  1.00  0.00     0.050 C 
BRANCH   5   7
HETATM    7  N   UNL     1      24.564  43.977  48.602  1.00  0.00    -0.049 N 
HETATM    8  H   UNL     1      25.231  44.717  48.320  1.00  0.00     0.281 HD
HETATM    9  C   UNL     1      23.751  44.642  49.695  1.00  0.00     0.238 C 
HETATM   10  C   UNL     1      22.365  44.021  49.523  1.00  0.00     0.041 C 
HETATM   11  C   UNL     1      22.241  43.642  48.053  1.00  0.00     0.030 C 
HETATM   12  C   UNL     1      23.636  43.706  47.457  1.00  0.00     0.237 C 
BRANCH   9  13
HETATM   13  C   UNL     1      23.747  46.137  49.519  1.00  0.00     0.042 A 
HETATM   14  N   UNL     1      24.553  47.012  50.229  1.00  0.00    -0.363 N 
HETATM   15  C   UNL     1      25.522  46.723  51.268  1.00  0.00     0.155 C 
HETATM   16  C   UNL     1      24.316  48.299  49.810  1.00  0.00     0.090 A 
HETATM   17  C   UNL     1      23.339  48.274  48.849  1.00  0.00     0.019 A 
HETATM   18  C   UNL     1      22.979  46.924  48.666  1.00  0.00     0.028 A 
ENDBRANCH   9  13
ENDBRANCH   5   7
ENDBRANCH   1   5
BRANCH   2  19
HETATM   19  C   UNL     1      27.820  42.740  52.063  1.00  0.00     0.035 A 
HETATM   20  C   UNL     1      29.193  42.722  51.811  1.00  0.00     0.032 A 
HETATM   21  C   UNL     1      30.106  42.904  52.856  1.00  0.00     0.039 A 
HETATM   22  C   UNL     1      29.661  43.119  54.160  1.00  0.00     0.076 A 
HETATM   23  C   UNL     1      28.292  43.131  54.422  1.00  0.00     0.039 A 
HETATM   24  C   UNL     1      27.378  42.950  53.377  1.00  0.00     0.032 A 
BRANCH  22  25
HETATM   25  O   UNL     1      30.643  43.226  55.118  1.00  0.00    -0.311 OA
BRANCH  25  26
HETATM   26  C   UNL     1      30.463  44.132  56.134  1.00  0.00     0.076 A 
HETATM   27  C   UNL     1      31.222  43.965  57.293  1.00  0.00     0.037 A 
HETATM   28  C   UNL     1      31.114  44.889  58.331  1.00  0.00     0.003 A 
HETATM   29  C   UNL     1      30.261  45.986  58.201  1.00  0.00     0.000 A 
HETATM   30  C   UNL     1      29.521  46.164  57.030  1.00  0.00     0.003 A 
HETATM   31  C   UNL     1      29.627  45.241  55.989  1.00  0.00     0.037 A 
ENDBRANCH  25  26
ENDBRANCH  22  25
ENDBRANCH   2  19
TORSDOF 6
ENDMDL
MODEL 6
REMARK VINA RESULT:      -8.7      2.640      9.621
REMARK  6 active torsions:
REMARK  status: ('A' for Active; 'I' for Inactive)
REMARK    1  A    between atoms: C_2  and  N_3 
REMARK    2  A    between atoms: C_2  and  C_15 
REMARK    3  A    between atoms: C_5  and  C_6 
REMARK       I    between atoms: C_15  and  N_16 
REMARK    4  A    between atoms: N_16  and  C_17 
REMARK    5  A    between atoms: C_20  and  O_21 
REMARK    6  A    between atoms: O_21  and  C_22 
ROOT
HETATM    1  C   UNL     1      25.733  44.952  52.536  1.00  0.00     0.253 C 
HETATM    2  N   UNL     1      26.098  45.694  51.430  1.00  0.00    -0.325 N 
HETATM    3  O   UNL     1      24.584  44.717  52.910  1.00  0.00    -0.271 OA
HETATM    4  H   UNL     1      27.082  45.786  51.203  1.00  0.00     0.169 HD
ENDROOT
BRANCH   1   5
HETATM    5  C   UNL     1      26.899  44.308  53.327  1.00  0.00     0.276 C 
HETATM    6  C   UNL     1      26.459  43.631  54.618  1.00  0.00     0.050 C 
BRANCH   5   7
HETATM    7  N   UNL     1      27.690  43.341  52.423  1.00  0.00    -0.049 N 
HETATM    8  H   UNL     1      27.309  43.529  51.480  1.00  0.00     0.281 HD
HETATM    9  C   UNL     1      27.450  41.855  52.605  1.00  0.00     0.238 C 
HETATM   10  C   UNL     1      28.645  41.410  53.448  1.00  0.00     0.041 C 
HETATM   11  C   UNL     1      29.783  42.370  53.124  1.00  0.00     0.030 C 
HETATM   12  C   UNL     1      29.174  43.553  52.392  1.00  0.00     0.237 C 
BRANCH   9  13
HETATM   13  C   UNL     1      27.385  41.161  51.272  1.00  0.00     0.042 A 
HETATM   14  N   UNL     1      26.332  41.275  50.378  1.00  0.00    -0.363 N 
HETATM   15  C   UNL     1      25.100  42.026  50.511  1.00  0.00     0.155 C 
HETATM   16  C   UNL     1      26.601  40.533  49.253  1.00  0.00     0.090 A 
HETATM   17  C   UNL     1      27.811  39.912  49.416  1.00  0.00     0.019 A 
HETATM   18  C   UNL     1      28.305  40.300  50.678  1.00  0.00     0.028 A 
ENDBRANCH   9  13
ENDBRANCH   5   7
ENDBRANCH   1   5
BRANCH   2  19
HETATM   19  C   UNL     1      25.234  46.339  50.513  1.00  0.00     0.035 A 
HETATM   20  C   UNL     1      25.290  47.699  50.205  1.00  0.00     0.032 A 
HETATM   21  C   UNL     1      24.376  48.260  49.305  1.00  0.00     0.039 A 
HETATM   22  C   UNL     1      23.405  47.468  48.693  1.00  0.00     0.076 A 
HETATM   23  C   UNL     1      23.336  46.110  49.000  1.00  0.00     0.039 A 
HETATM   24  C   UNL     1      24.251  45.549  49.900  1.00  0.00     0.032 A 
BRANCH  22  25
HETATM   25  O   UNL     1      22.522  48.132  47.873  1.00  0.00    -0.311 OA
BRANCH  25  26
HETATM   26  C   UNL     1      21.711  49.089  48.432  1.00  0.00     0.076 A 
HETATM   27  C   UNL     1      21.891  50.410  48.022  1.00  0.00     0.037 A 
HETATM   28  C   UNL     1      21.056  51.410  48.520  1.00  0.00     0.003 A 
HETATM   29  C   UNL     1      20.035  51.083  49.414  1.00  0.00     0.000 A 
HETATM   30  C   UNL     1      19.841  49.756  49.803  1.00  0.00     0.003 A 
HETATM   31  C   UNL     1      20.674  48.754  49.306  1.00  0.00     0.037 A 
ENDBRANCH  25  26
ENDBRANCH  22  25
ENDBRANCH   2  19
TORSDOF 6
ENDMDL
MODEL 7
REMARK VINA RESULT:      -8.4      2.443      4.142
REMARK  6 active torsions:
REMARK  status: ('A' for Active; 'I' for Inactive)
REMARK    1  A    between atoms: C_2  and  N_3 
REMARK    2  A    between atoms: C_2  and  C_15 
REMARK    3  A    between atoms: C_5  and  C_6 
REMARK       I    between atoms: C_15  and  N_16 
REMARK    4  A    between atoms: N_16  and  C_17 
REMARK    5  A    between atoms: C_20  and  O_21 
REMARK    6  A    between atoms: O_21  and  C_22 
ROOT
HETATM    1  C   UNL     1      22.694  48.777  48.799  1.00  0.00     0.253 C 
HETATM    2  N   UNL     1      23.343  48.205  49.875  1.00  0.00    -0.325 N 
HETATM    3  O   UNL     1      22.875  48.511  47.611  1.00  0.00    -0.271 OA
HETATM    4  H   UNL     1      23.079  48.483  50.813  1.00  0.00     0.169 HD
ENDROOT
BRANCH   1   5
HETATM    5  C   UNL     1      21.586  49.802  49.152  1.00  0.00     0.276 C 
HETATM    6  C   UNL     1      21.841  51.193  48.585  1.00  0.00     0.050 C 
BRANCH   5   7
HETATM    7  N   UNL     1      20.204  49.264  48.729  1.00  0.00    -0.049 N 
HETATM    8  H   UNL     1      20.336  49.023  47.732  1.00  0.00     0.281 HD
HETATM    9  C   UNL     1      19.048  50.245  48.699  1.00  0.00     0.238 C 
HETATM   10  C   UNL     1      18.315  49.958  50.009  1.00  0.00     0.041 C 
HETATM   11  C   UNL     1      18.588  48.498  50.347  1.00  0.00     0.030 C 
HETATM   12  C   UNL     1      19.735  48.043  49.460  1.00  0.00     0.237 C 
BRANCH   9  13
HETATM   13  C   UNL     1      18.188  50.014  47.486  1.00  0.00     0.042 A 
HETATM   14  N   UNL     1      17.075  50.771  47.158  1.00  0.00    -0.363 N 
HETATM   15  C   UNL     1      16.488  51.888  47.871  1.00  0.00     0.155 C 
HETATM   16  C   UNL     1      16.535  50.310  45.981  1.00  0.00     0.090 A 
HETATM   17  C   UNL     1      17.272  49.237  45.551  1.00  0.00     0.019 A 
HETATM   18  C   UNL     1      18.306  49.047  46.490  1.00  0.00     0.028 A 
ENDBRANCH   9  13
ENDBRANCH   5   7
ENDBRANCH   1   5
BRANCH   2  19
HETATM   19  C   UNL     1      24.350  47.211  49.833  1.00  0.00     0.035 A 
HETATM   20  C   UNL     1      25.720  47.479  49.857  1.00  0.00     0.032 A 
HETATM   21  C   UNL     1      26.647  46.433  49.782  1.00  0.00     0.039 A 
HETATM   22  C   UNL     1      26.219  45.108  49.698  1.00  0.00     0.076 A 
HETATM   23  C   UNL     1      24.853  44.831  49.666  1.00  0.00     0.039 A 
HETATM   24  C   UNL     1      23.925  45.878  49.741  1.00  0.00     0.032 A 
BRANCH  22  25
HETATM   25  O   UNL     1      27.213  44.165  49.570  1.00  0.00    -0.311 OA
BRANCH  25  26
HETATM   26  C   UNL     1      27.424  43.299  50.614  1.00  0.00     0.076 A 
HETATM   27  C   UNL     1      27.141  41.949  50.404  1.00  0.00     0.037 A 
HETATM   28  C   UNL     1      27.390  41.023  51.416  1.00  0.00     0.003 A 
HETATM   29  C   UNL     1      27.936  41.447  52.628  1.00  0.00     0.000 A 
HETATM   30  C   UNL     1      28.242  42.794  52.827  1.00  0.00     0.003 A 
HETATM   31  C   UNL     1      27.994  43.723  51.816  1.00  0.00     0.037 A 
ENDBRANCH  25  26
ENDBRANCH  22  25
ENDBRANCH   2  19
TORSDOF 6
ENDMDL
MODEL 8
REMARK VINA RESULT:      -8.4     12.614     14.093
REMARK  6 active torsions:
REMARK  status: ('A' for Active; 'I' for Inactive)
REMARK    1  A    between atoms: C_2  and  N_3 
REMARK    2  A    between atoms: C_2  and  C_15 
REMARK    3  A    between atoms: C_5  and  C_6 
REMARK       I    between atoms: C_15  and  N_16 
REMARK    4  A    between atoms: N_16  and  C_17 
REMARK    5  A    between atoms: C_20  and  O_21 
REMARK    6  A    between atoms: O_21  and  C_22 
ROOT
HETATM    1  C   UNL     1      32.927  49.034  41.573  1.00  0.00     0.253 C 
HETATM    2  N   UNL     1      33.091  50.289  42.122  1.00  0.00    -0.325 N 
HETATM    3  O   UNL     1      33.823  48.257  41.244  1.00  0.00    -0.271 OA
HETATM    4  H   UNL     1      32.270  50.822  42.386  1.00  0.00     0.169 HD
ENDROOT
BRANCH   1   5
HETATM    5  C   UNL     1      31.461  48.553  41.427  1.00  0.00     0.276 C 
HETATM    6  C   UNL     1      30.636  48.719  42.698  1.00  0.00     0.050 C 
BRANCH   5   7
HETATM    7  N   UNL     1      30.787  49.241  40.223  1.00  0.00    -0.049 N 
HETATM    8  H   UNL     1      31.315  50.127  40.128  1.00  0.00     0.281 HD
HETATM    9  C   UNL     1      29.355  49.708  40.392  1.00  0.00     0.238 C 
HETATM   10  C   UNL     1      28.548  48.607  39.703  1.00  0.00     0.041 C 
HETATM   11  C   UNL     1      29.455  48.010  38.635  1.00  0.00     0.030 C 
HETATM   12  C   UNL     1      30.865  48.495  38.926  1.00  0.00     0.237 C 
BRANCH   9  13
HETATM   13  C   UNL     1      29.158  51.058  39.758  1.00  0.00     0.042 A 
HETATM   14  N   UNL     1      29.489  52.263  40.360  1.00  0.00    -0.363 N 
HETATM   15  C   UNL     1      30.048  52.503  41.675  1.00  0.00     0.155 C 
HETATM   16  C   UNL     1      29.203  53.298  39.503  1.00  0.00     0.090 A 
HETATM   17  C   UNL     1      28.661  52.782  38.355  1.00  0.00     0.019 A 
HETATM   18  C   UNL     1      28.630  51.381  38.511  1.00  0.00     0.028 A 
ENDBRANCH   9  13
ENDBRANCH   5   7
ENDBRANCH   1   5
BRANCH   2  19
HETATM   19  C   UNL     1      34.315  50.940  42.410  1.00  0.00     0.035 A 
HETATM   20  C   UNL     1      35.470  50.819  41.635  1.00  0.00     0.032 A 
HETATM   21  C   UNL     1      36.646  51.478  42.011  1.00  0.00     0.039 A 
HETATM   22  C   UNL     1      36.681  52.274  43.155  1.00  0.00     0.076 A 
HETATM   23  C   UNL     1      35.535  52.395  43.939  1.00  0.00     0.039 A 
HETATM   24  C   UNL     1      34.358  51.737  43.563  1.00  0.00     0.032 A 
BRANCH  22  25
HETATM   25  O   UNL     1      37.903  52.826  43.462  1.00  0.00    -0.311 OA
BRANCH  25  26
HETATM   26  C   UNL     1      38.061  53.407  44.697  1.00  0.00     0.076 A 
HETATM   27  C   UNL     1      38.521  52.600  45.738  1.00  0.00     0.037 A 
HETATM   28  C   UNL     1      38.749  53.156  46.996  1.00  0.00     0.003 A 
HETATM   29  C   UNL     1      38.532  54.519  47.205  1.00  0.00     0.000 A 
HETATM   30  C   UNL     1      38.096  55.329  46.155  1.00  0.00     0.003 A 
HETATM   31  C   UNL     1      37.867  54.775  44.895  1.00  0.00     0.037 A 
ENDBRANCH  25  26
ENDBRANCH  22  25
ENDBRANCH   2  19
TORSDOF 6
ENDMDL
MODEL 9
REMARK VINA RESULT:      -8.2      7.469     11.609
REMARK  6 active torsions:
REMARK  status: ('A' for Active; 'I' for Inactive)
REMARK    1  A    between atoms: C_2  and  N_3 
REMARK    2  A    between atoms: C_2  and  C_15 
REMARK    3  A    between atoms: C_5  and  C_6 
REMARK       I    between atoms: C_15  and  N_16 
REMARK    4  A    between atoms: N_16  and  C_17 
REMARK    5  A    between atoms: C_20  and  O_21 
REMARK    6  A    between atoms: O_21  and  C_22 
ROOT
HETATM    1  C   UNL     1      13.975  53.454  49.841  1.00  0.00     0.253 C 
HETATM    2  N   UNL     1      14.988  53.221  48.932  1.00  0.00    -0.325 N 
HETATM    3  O   UNL     1      13.862  52.945  50.956  1.00  0.00    -0.271 OA
HETATM    4  H   UNL     1      14.991  53.732  48.057  1.00  0.00     0.169 HD
ENDROOT
BRANCH   1   5
HETATM    5  C   UNL     1      12.928  54.516  49.419  1.00  0.00     0.276 C 
HETATM    6  C   UNL     1      11.570  54.328  50.084  1.00  0.00     0.050 C 
BRANCH   5   7
HETATM    7  N   UNL     1      13.480  55.937  49.653  1.00  0.00    -0.049 N 
HETATM    8  H   UNL     1      14.390  55.766  50.116  1.00  0.00     0.281 HD
HETATM    9  C   UNL     1      12.747  56.821  50.643  1.00  0.00     0.238 C 
HETATM   10  C   UNL     1      11.907  57.727  49.744  1.00  0.00     0.041 C 
HETATM   11  C   UNL     1      12.657  57.839  48.422  1.00  0.00     0.030 C 
HETATM   12  C   UNL     1      13.715  56.750  48.416  1.00  0.00     0.237 C 
BRANCH   9  13
HETATM   13  C   UNL     1      13.723  57.586  51.495  1.00  0.00     0.042 A 
HETATM   14  N   UNL     1      14.497  57.025  52.498  1.00  0.00    -0.363 N 
HETATM   15  C   UNL     1      14.538  55.651  52.959  1.00  0.00     0.155 C 
HETATM   16  C   UNL     1      15.294  57.993  53.061  1.00  0.00     0.090 A 
HETATM   17  C   UNL     1      15.025  59.191  52.452  1.00  0.00     0.019 A 
HETATM   18  C   UNL     1      14.042  58.941  51.472  1.00  0.00     0.028 A 
ENDBRANCH   9  13
ENDBRANCH   5   7
ENDBRANCH   1   5
BRANCH   2  19
HETATM   19  C   UNL     1      16.090  52.347  49.091  1.00  0.00     0.035 A 
HETATM   20  C   UNL     1      16.097  51.010  48.689  1.00  0.00     0.032 A 
HETATM   21  C   UNL     1      17.224  50.210  48.911  1.00  0.00     0.039 A 
HETATM   22  C   UNL     1      18.361  50.737  49.523  1.00  0.00     0.076 A 
HETATM   23  C   UNL     1      18.361  52.069  49.935  1.00  0.00     0.039 A 
HETATM   24  C   UNL     1      17.234  52.870  49.712  1.00  0.00     0.032 A 
BRANCH  22  25
HETATM   25  O   UNL     1      19.387  49.848  49.746  1.00  0.00    -0.311 OA
BRANCH  25  26
HETATM   26  C   UNL     1      20.638  50.172  49.281  1.00  0.00     0.076 A 
HETATM   27  C   UNL     1      20.904  49.952  47.930  1.00  0.00     0.037 A 
HETATM   28  C   UNL     1      22.141  50.315  47.399  1.00  0.00     0.003 A 
HETATM   29  C   UNL     1      23.102  50.911  48.218  1.00  0.00     0.000 A 
HETATM   30  C   UNL     1      22.824  51.152  49.564  1.00  0.00     0.003 A 
HETATM   31  C   UNL     1      21.587  50.790  50.098  1.00  0.00     0.037 A 
ENDBRANCH  25  26
ENDBRANCH  22  25
ENDBRANCH   2  19
TORSDOF 6
ENDMDL
MODEL 10
REMARK VINA RESULT:      -8.2      6.381      9.236
REMARK  6 active torsions:
REMARK  status: ('A' for Active; 'I' for Inactive)
REMARK    1  A    between atoms: C_2  and  N_3 
REMARK    2  A    between atoms: C_2  and  C_15 
REMARK    3  A    between atoms: C_5  and  C_6 
REMARK       I    between atoms: C_15  and  N_16 
REMARK    4  A    between atoms: N_16  and  C_17 
REMARK    5  A    between atoms: C_20  and  O_21 
REMARK    6  A    between atoms: O_21  and  C_22 
ROOT
HETATM    1  C   UNL     1      26.950  41.369  50.369  1.00  0.00     0.253 C 
HETATM    2  N   UNL     1      26.515  41.780  51.613  1.00  0.00    -0.325 N 
HETATM    3  O   UNL     1      27.946  41.775  49.772  1.00  0.00    -0.271 OA
HETATM    4  H   UNL     1      25.695  41.341  52.017  1.00  0.00     0.169 HD
ENDROOT
BRANCH   1   5
HETATM    5  C   UNL     1      26.121  40.237  49.709  1.00  0.00     0.276 C 
HETATM    6  C   UNL     1      24.993  40.747  48.822  1.00  0.00     0.050 C 
BRANCH   5   7
HETATM    7  N   UNL     1      27.048  39.270  48.945  1.00  0.00    -0.049 N 
HETATM    8  H   UNL     1      27.644  39.903  48.384  1.00  0.00     0.281 HD
HETATM    9  C   UNL     1      26.416  38.371  47.901  1.00  0.00     0.238 C 
HETATM   10  C   UNL     1      26.282  37.033  48.628  1.00  0.00     0.041 C 
HETATM   11  C   UNL     1      27.391  36.997  49.672  1.00  0.00     0.030 C 
HETATM   12  C   UNL     1      27.930  38.411  49.800  1.00  0.00     0.237 C 
BRANCH   9  13
HETATM   13  C   UNL     1      27.289  38.285  46.677  1.00  0.00     0.042 A 
HETATM   14  N   UNL     1      27.320  39.234  45.668  1.00  0.00    -0.363 N 
HETATM   15  C   UNL     1      26.550  40.456  45.539  1.00  0.00     0.155 C 
HETATM   16  C   UNL     1      28.237  38.863  44.715  1.00  0.00     0.090 A 
HETATM   17  C   UNL     1      28.787  37.662  45.080  1.00  0.00     0.019 A 
HETATM   18  C   UNL     1      28.195  37.296  46.306  1.00  0.00     0.028 A 
ENDBRANCH   9  13
ENDBRANCH   5   7
ENDBRANCH   1   5
BRANCH   2  19
HETATM   19  C   UNL     1      27.118  42.752  52.448  1.00  0.00     0.035 A 
HETATM   20  C   UNL     1      26.539  43.981  52.766  1.00  0.00     0.032 A 
HETATM   21  C   UNL     1      27.219  44.895  53.578  1.00  0.00     0.039 A 
HETATM   22  C   UNL     1      28.478  44.588  54.093  1.00  0.00     0.076 A 
HETATM   23  C   UNL     1      29.068  43.366  53.776  1.00  0.00     0.039 A 
HETATM   24  C   UNL     1      28.386  42.451  52.964  1.00  0.00     0.032 A 
BRANCH  22  25
HETATM   25  O   UNL     1      29.082  45.582  54.830  1.00  0.00    -0.311 OA
BRANCH  25  26
HETATM   26  C   UNL     1      29.751  45.225  55.975  1.00  0.00     0.076 A 
HETATM   27  C   UNL     1      30.736  44.244  55.870  1.00  0.00     0.037 A 
HETATM   28  C   UNL     1      31.481  43.887  56.994  1.00  0.00     0.003 A 
HETATM   29  C   UNL     1      31.248  44.524  58.214  1.00  0.00     0.000 A 
HETATM   30  C   UNL     1      30.279  45.524  58.310  1.00  0.00     0.003 A 
HETATM   31  C   UNL     1      29.533  45.883  57.187  1.00  0.00     0.037 A 
ENDBRANCH  25  26
ENDBRANCH  22  25
ENDBRANCH   2  19
TORSDOF 6
ENDMDL
