MODEL 1
REMARK VINA RESULT:      -9.9      0.000      0.000
REMARK  5 active torsions:
REMARK  status: ('A' for Active; 'I' for Inactive)
REMARK    1  A    between atoms: C_4  and  N_5 
REMARK       I    between atoms: N_5  and  C_6 
REMARK       I    between atoms: C_6  and  N_7 
REMARK    2  A    between atoms: N_7  and  C_8 
REMARK    3  A    between atoms: C_10  and  C_11 
REMARK       I    between atoms: C_11  and  N_12 
REMARK    4  A    between atoms: N_12  and  C_13 
REMARK    5  A    between atoms: C_13  and  C_14 
ROOT
HETATM    1  C   UNL     1      25.177  47.286  49.935  1.00  0.00     0.175 A 
HETATM    2  S   UNL     1      25.767  45.699  49.775  1.00  0.00    -0.044 SA
HETATM    3  C   UNL     1      26.048  45.624  51.469  1.00  0.00     0.100 A 
HETATM    4  C   UNL     1      25.675  46.830  52.044  1.00  0.00     0.056 A 
HETATM    5  C   UNL     1      25.759  47.208  53.481  1.00  0.00     0.072 C 
HETATM    6  N   UNL     1      25.161  47.762  51.155  1.00  0.00    -0.228 NA
ENDROOT
BRANCH   1   7
HETATM    7  N   UNL     1      24.695  48.026  48.893  1.00  0.00    -0.287 N 
HETATM    8  C   UNL     1      23.549  48.729  48.684  1.00  0.00     0.326 C 
HETATM    9  N   UNL     1      22.525  48.573  49.573  1.00  0.00    -0.309 N 
HETATM   10  O   UNL     1      23.508  49.426  47.671  1.00  0.00    -0.247 OA
HETATM   11  H   UNL     1      22.641  47.829  50.243  1.00  0.00     0.170 HD
HETATM   12  H   UNL     1      25.344  48.092  48.120  1.00  0.00     0.172 HD
BRANCH   9  13
HETATM   13  C   UNL     1      21.271  49.218  49.575  1.00  0.00     0.036 A 
HETATM   14  C   UNL     1      20.065  48.584  49.265  1.00  0.00     0.036 A 
HETATM   15  C   UNL     1      18.850  49.288  49.294  1.00  0.00    -0.060 A 
HETATM   16  C   UNL     1      17.570  48.593  48.928  1.00  0.00     0.048 C 
HETATM   17  C   UNL     1      18.855  50.650  49.609  1.00  0.00     0.007 A 
HETATM   18  C   UNL     1      20.053  51.293  49.912  1.00  0.00     0.003 A 
HETATM   19  C   UNL     1      21.254  50.581  49.894  1.00  0.00     0.029 A 
ENDBRANCH   9  13
ENDBRANCH   1   7
BRANCH   3  20
HETATM   20  C   UNL     1      26.607  44.457  52.131  1.00  0.00     0.260 C 
HETATM   21  N   UNL     1      27.945  44.527  52.460  1.00  0.00    -0.352 N 
HETATM   22  H   UNL     1      28.443  45.389  52.297  1.00  0.00     0.163 HD
HETATM   23  O   UNL     1      25.939  43.458  52.383  1.00  0.00    -0.267 OA
BRANCH  21  24
HETATM   24  C   UNL     1      28.622  43.458  53.161  1.00  0.00     0.161 C 
BRANCH  24  25
HETATM   25  C   UNL     1      29.313  43.882  54.438  1.00  0.00    -0.040 A 
HETATM   26  C   UNL     1      30.377  43.177  55.021  1.00  0.00     0.010 A 
HETATM   27  C   UNL     1      30.966  43.627  56.207  1.00  0.00     0.024 A 
HETATM   28  C   UNL     1      30.493  44.781  56.827  1.00  0.00     0.034 A 
HETATM   29 CL   UNL     1      31.218  45.328  58.288  1.00  0.00    -0.084 Cl
HETATM   30  C   UNL     1      29.434  45.490  56.270  1.00  0.00     0.024 A 
HETATM   31  C   UNL     1      28.850  45.044  55.082  1.00  0.00     0.010 A 
ENDBRANCH  24  25
ENDBRANCH  21  24
ENDBRANCH   3  20
TORSDOF 5
ENDMDL
MODEL 2
REMARK VINA RESULT:      -9.9      1.915      2.617
REMARK  5 active torsions:
REMARK  status: ('A' for Active; 'I' for Inactive)
REMARK    1  A    between atoms: C_4  and  N_5 
REMARK       I    between atoms: N_5  and  C_6 
REMARK       I    between atoms: C_6  and  N_7 
REMARK    2  A    between atoms: N_7  and  C_8 
REMARK    3  A    between atoms: C_10  and  C_11 
REMARK       I    between atoms: C_11  and  N_12 
REMARK    4  A    between atoms: N_12  and  C_13 
REMARK    5  A    between atoms: C_13  and  C_14 
ROOT
HETATM    1  C   UNL     1      24.344  44.371  50.492  1.00  0.00     0.175 A 
HETATM    2  S   UNL     1      25.699  43.400  50.156  1.00  0.00    -0.044 SA
HETATM    3  C   UNL     1      26.152  43.445  51.814  1.00  0.00     0.100 A 
HETATM    4  C   UNL     1      25.231  44.211  52.514  1.00  0.00     0.056 A 
HETATM    5  C   UNL     1      25.242  44.526  53.969  1.00  0.00     0.072 C 
HETATM    6  N   UNL     1      24.193  44.717  51.746  1.00  0.00    -0.228 NA
ENDROOT
BRANCH   1   7
HETATM    7  N   UNL     1      23.423  44.740  49.553  1.00  0.00    -0.287 N 
HETATM    8  C   UNL     1      23.072  45.928  48.991  1.00  0.00     0.326 C 
HETATM    9  N   UNL     1      23.559  47.074  49.548  1.00  0.00    -0.309 N 
HETATM   10  O   UNL     1      22.295  45.877  48.038  1.00  0.00    -0.247 OA
HETATM   11  H   UNL     1      24.029  46.963  50.432  1.00  0.00     0.170 HD
HETATM   12  H   UNL     1      22.912  43.956  49.169  1.00  0.00     0.172 HD
BRANCH   9  13
HETATM   13  C   UNL     1      23.357  48.403  49.118  1.00  0.00     0.036 A 
HETATM   14  C   UNL     1      22.136  49.077  49.206  1.00  0.00     0.036 A 
HETATM   15  C   UNL     1      22.009  50.404  48.764  1.00  0.00    -0.060 A 
HETATM   16  C   UNL     1      20.680  51.097  48.841  1.00  0.00     0.048 C 
HETATM   17  C   UNL     1      23.115  51.047  48.200  1.00  0.00     0.007 A 
HETATM   18  C   UNL     1      24.335  50.381  48.101  1.00  0.00     0.003 A 
HETATM   19  C   UNL     1      24.455  49.067  48.557  1.00  0.00     0.029 A 
ENDBRANCH   9  13
ENDBRANCH   1   7
BRANCH   3  20
HETATM   20  C   UNL     1      27.333  42.778  52.334  1.00  0.00     0.260 C 
HETATM   21  N   UNL     1      28.356  43.598  52.764  1.00  0.00    -0.352 N 
HETATM   22  H   UNL     1      28.211  44.598  52.766  1.00  0.00     0.163 HD
HETATM   23  O   UNL     1      27.432  41.555  52.386  1.00  0.00    -0.267 OA
BRANCH  21  24
HETATM   24  C   UNL     1      29.572  43.074  53.345  1.00  0.00     0.161 C 
BRANCH  24  25
HETATM   25  C   UNL     1      29.961  43.702  54.665  1.00  0.00    -0.040 A 
HETATM   26  C   UNL     1      30.934  43.172  55.525  1.00  0.00     0.010 A 
HETATM   27  C   UNL     1      31.241  43.806  56.734  1.00  0.00     0.024 A 
HETATM   28  C   UNL     1      30.572  44.971  57.098  1.00  0.00     0.034 A 
HETATM   29 CL   UNL     1      30.948  45.746  58.587  1.00  0.00    -0.084 Cl
HETATM   30  C   UNL     1      29.597  45.510  56.264  1.00  0.00     0.024 A 
HETATM   31  C   UNL     1      29.297  44.879  55.054  1.00  0.00     0.010 A 
ENDBRANCH  24  25
ENDBRANCH  21  24
ENDBRANCH   3  20
TORSDOF 5
ENDMDL
MODEL 3
REMARK VINA RESULT:      -9.7      1.229      1.592
REMARK  5 active torsions:
REMARK  status: ('A' for Active; 'I' for Inactive)
REMARK    1  A    between atoms: C_4  and  N_5 
REMARK       I    between atoms: N_5  and  C_6 
REMARK       I    between atoms: C_6  and  N_7 
REMARK    2  A    between atoms: N_7  and  C_8 
REMARK    3  A    between atoms: C_10  and  C_11 
REMARK       I    between atoms: C_11  and  N_12 
REMARK    4  A    between atoms: N_12  and  C_13 
REMARK    5  A    between atoms: C_13  and  C_14 
ROOT
HETATM    1  C   UNL     1      24.301  45.758  49.859  1.00  0.00     0.175 A 
HETATM    2  S   UNL     1      24.935  44.224  50.226  1.00  0.00    -0.044 SA
HETATM    3  C   UNL     1      25.685  44.862  51.636  1.00  0.00     0.100 A 
HETATM    4  C   UNL     1      25.402  46.217  51.724  1.00  0.00     0.056 A 
HETATM    5  C   UNL     1      25.858  47.166  52.777  1.00  0.00     0.072 C 
HETATM    6  N   UNL     1      24.593  46.709  50.711  1.00  0.00    -0.228 NA
ENDROOT
BRANCH   1   7
HETATM    7  N   UNL     1      23.493  46.009  48.787  1.00  0.00    -0.287 N 
HETATM    8  C   UNL     1      22.667  47.035  48.445  1.00  0.00     0.326 C 
HETATM    9  N   UNL     1      22.378  47.972  49.393  1.00  0.00    -0.309 N 
HETATM   10  O   UNL     1      22.204  47.012  47.305  1.00  0.00    -0.247 OA
HETATM   11  H   UNL     1      22.683  47.754  50.329  1.00  0.00     0.170 HD
HETATM   12  H   UNL     1      23.544  45.291  48.076  1.00  0.00     0.172 HD
BRANCH   9  13
HETATM   13  C   UNL     1      21.581  49.128  49.257  1.00  0.00     0.036 A 
HETATM   14  C   UNL     1      20.240  49.204  49.642  1.00  0.00     0.036 A 
HETATM   15  C   UNL     1      19.507  50.391  49.482  1.00  0.00    -0.060 A 
HETATM   16  C   UNL     1      18.059  50.440  49.875  1.00  0.00     0.048 C 
HETATM   17  C   UNL     1      20.124  51.504  48.902  1.00  0.00     0.007 A 
HETATM   18  C   UNL     1      21.458  51.437  48.508  1.00  0.00     0.003 A 
HETATM   19  C   UNL     1      22.183  50.256  48.683  1.00  0.00     0.029 A 
ENDBRANCH   9  13
ENDBRANCH   1   7
BRANCH   3  20
HETATM   20  C   UNL     1      26.489  44.059  52.541  1.00  0.00     0.260 C 
HETATM   21  N   UNL     1      27.853  44.096  52.339  1.00  0.00    -0.352 N 
HETATM   22  H   UNL     1      28.226  44.720  51.637  1.00  0.00     0.163 HD
HETATM   23  O   UNL     1      25.995  43.377  53.435  1.00  0.00    -0.267 OA
BRANCH  21  24
HETATM   24  C   UNL     1      28.779  43.383  53.191  1.00  0.00     0.161 C 
BRANCH  24  25
HETATM   25  C   UNL     1      29.214  44.143  54.424  1.00  0.00    -0.040 A 
HETATM   26  C   UNL     1      28.638  45.354  54.838  1.00  0.00     0.010 A 
HETATM   27  C   UNL     1      29.095  46.004  55.990  1.00  0.00     0.024 A 
HETATM   28  C   UNL     1      30.136  45.454  56.734  1.00  0.00     0.034 A 
HETATM   29 CL   UNL     1      30.697  46.259  58.147  1.00  0.00    -0.084 Cl
HETATM   30  C   UNL     1      30.726  44.259  56.336  1.00  0.00     0.024 A 
HETATM   31  C   UNL     1      30.265  43.607  55.190  1.00  0.00     0.010 A 
ENDBRANCH  24  25
ENDBRANCH  21  24
ENDBRANCH   3  20
TORSDOF 5
ENDMDL
MODEL 4
REMARK VINA RESULT:      -9.6      3.748     10.541
REMARK  5 active torsions:
REMARK  status: ('A' for Active; 'I' for Inactive)
REMARK    1  A    between atoms: C_4  and  N_5 
REMARK       I    between atoms: N_5  and  C_6 
REMARK       I    between atoms: C_6  and  N_7 
REMARK    2  A    between atoms: N_7  and  C_8 
REMARK    3  A    between atoms: C_10  and  C_11 
REMARK       I    between atoms: C_11  and  N_12 
REMARK    4  A    between atoms: N_12  and  C_13 
REMARK    5  A    between atoms: C_13  and  C_14 
ROOT
HETATM    1  C   UNL     1      24.925  44.892  52.372  1.00  0.00     0.175 A 
HETATM    2  S   UNL     1      25.314  46.545  52.281  1.00  0.00    -0.044 SA
HETATM    3  C   UNL     1      24.723  46.603  50.668  1.00  0.00     0.100 A 
HETATM    4  C   UNL     1      24.272  45.342  50.305  1.00  0.00     0.056 A 
HETATM    5  C   UNL     1      23.692  44.934  48.996  1.00  0.00     0.072 C 
HETATM    6  N   UNL     1      24.378  44.380  51.299  1.00  0.00    -0.228 NA
ENDROOT
BRANCH   1   7
HETATM    7  N   UNL     1      25.108  44.130  53.491  1.00  0.00    -0.287 N 
HETATM    8  C   UNL     1      26.152  43.934  54.341  1.00  0.00     0.326 C 
HETATM    9  N   UNL     1      27.376  44.417  53.980  1.00  0.00    -0.309 N 
HETATM   10  O   UNL     1      25.918  43.288  55.361  1.00  0.00    -0.247 OA
HETATM   11  H   UNL     1      27.448  44.758  53.034  1.00  0.00     0.170 HD
HETATM   12  H   UNL     1      24.276  43.624  53.766  1.00  0.00     0.172 HD
BRANCH   9  13
HETATM   13  C   UNL     1      28.582  44.361  54.710  1.00  0.00     0.036 A 
HETATM   14  C   UNL     1      28.899  45.223  55.764  1.00  0.00     0.036 A 
HETATM   15  C   UNL     1      30.117  45.106  56.452  1.00  0.00    -0.060 A 
HETATM   16  C   UNL     1      30.449  46.061  57.561  1.00  0.00     0.048 C 
HETATM   17  C   UNL     1      31.037  44.131  56.054  1.00  0.00     0.007 A 
HETATM   18  C   UNL     1      30.735  43.273  55.000  1.00  0.00     0.003 A 
HETATM   19  C   UNL     1      29.514  43.388  54.331  1.00  0.00     0.029 A 
ENDBRANCH   9  13
ENDBRANCH   1   7
BRANCH   3  20
HETATM   20  C   UNL     1      24.736  47.810  49.859  1.00  0.00     0.260 C 
HETATM   21  N   UNL     1      23.512  48.401  49.626  1.00  0.00    -0.352 N 
HETATM   22  H   UNL     1      22.693  48.020  50.078  1.00  0.00     0.163 HD
HETATM   23  O   UNL     1      25.771  48.282  49.395  1.00  0.00    -0.267 OA
BRANCH  21  24
HETATM   24  C   UNL     1      23.379  49.629  48.875  1.00  0.00     0.161 C 
BRANCH  24  25
HETATM   25  C   UNL     1      22.052  50.334  49.051  1.00  0.00    -0.040 A 
HETATM   26  C   UNL     1      21.505  50.670  50.298  1.00  0.00     0.010 A 
HETATM   27  C   UNL     1      20.269  51.320  50.384  1.00  0.00     0.024 A 
HETATM   28  C   UNL     1      19.565  51.634  49.225  1.00  0.00     0.034 A 
HETATM   29 CL   UNL     1      18.044  52.430  49.335  1.00  0.00    -0.084 Cl
HETATM   30  C   UNL     1      20.085  51.303  47.978  1.00  0.00     0.024 A 
HETATM   31  C   UNL     1      21.322  50.660  47.893  1.00  0.00     0.010 A 
ENDBRANCH  24  25
ENDBRANCH  21  24
ENDBRANCH   3  20
TORSDOF 5
ENDMDL
MODEL 5
REMARK VINA RESULT:      -9.5      3.835     10.599
REMARK  5 active torsions:
REMARK  status: ('A' for Active; 'I' for Inactive)
REMARK    1  A    between atoms: C_4  and  N_5 
REMARK       I    between atoms: N_5  and  C_6 
REMARK       I    between atoms: C_6  and  N_7 
REMARK    2  A    between atoms: N_7  and  C_8 
REMARK    3  A    between atoms: C_10  and  C_11 
REMARK       I    between atoms: C_11  and  N_12 
REMARK    4  A    between atoms: N_12  and  C_13 
REMARK    5  A    between atoms: C_13  and  C_14 
ROOT
HETATM    1  C   UNL     1      25.340  45.994  50.085  1.00  0.00     0.175 A 
HETATM    2  S   UNL     1      23.916  46.757  49.553  1.00  0.00    -0.044 SA
HETATM    3  C   UNL     1      24.814  48.164  49.142  1.00  0.00     0.100 A 
HETATM    4  C   UNL     1      26.150  47.954  49.450  1.00  0.00     0.056 A 
HETATM    5  C   UNL     1      27.277  48.911  49.271  1.00  0.00     0.072 C 
HETATM    6  N   UNL     1      26.436  46.701  49.971  1.00  0.00    -0.228 NA
ENDROOT
BRANCH   1   7
HETATM    7  N   UNL     1      25.384  44.714  50.557  1.00  0.00    -0.287 N 
HETATM    8  C   UNL     1      26.187  44.058  51.439  1.00  0.00     0.326 C 
HETATM    9  N   UNL     1      27.328  44.679  51.855  1.00  0.00    -0.309 N 
HETATM   10  O   UNL     1      25.838  42.923  51.761  1.00  0.00    -0.247 OA
HETATM   11  H   UNL     1      27.570  45.524  51.360  1.00  0.00     0.170 HD
HETATM   12  H   UNL     1      24.638  44.133  50.196  1.00  0.00     0.172 HD
BRANCH   9  13
HETATM   13  C   UNL     1      28.284  44.210  52.780  1.00  0.00     0.036 A 
HETATM   14  C   UNL     1      28.509  44.788  54.033  1.00  0.00     0.036 A 
HETATM   15  C   UNL     1      29.475  44.264  54.908  1.00  0.00    -0.060 A 
HETATM   16  C   UNL     1      29.720  44.919  56.236  1.00  0.00     0.048 C 
HETATM   17  C   UNL     1      30.240  43.166  54.505  1.00  0.00     0.007 A 
HETATM   18  C   UNL     1      30.029  42.587  53.255  1.00  0.00     0.003 A 
HETATM   19  C   UNL     1      29.057  43.107  52.398  1.00  0.00     0.029 A 
ENDBRANCH   9  13
ENDBRANCH   1   7
BRANCH   3  20
HETATM   20  C   UNL     1      24.207  49.359  48.581  1.00  0.00     0.260 C 
HETATM   21  N   UNL     1      23.187  49.927  49.316  1.00  0.00    -0.352 N 
HETATM   22  H   UNL     1      22.965  49.540  50.222  1.00  0.00     0.163 HD
HETATM   23  O   UNL     1      24.567  49.841  47.510  1.00  0.00    -0.267 OA
BRANCH  21  24
HETATM   24  C   UNL     1      22.522  51.142  48.901  1.00  0.00     0.161 C 
BRANCH  24  25
HETATM   25  C   UNL     1      21.019  51.027  48.774  1.00  0.00    -0.040 A 
HETATM   26  C   UNL     1      20.359  50.708  47.578  1.00  0.00     0.010 A 
HETATM   27  C   UNL     1      18.963  50.621  47.535  1.00  0.00     0.024 A 
HETATM   28  C   UNL     1      18.214  50.859  48.684  1.00  0.00     0.034 A 
HETATM   29 CL   UNL     1      16.498  50.756  48.625  1.00  0.00    -0.084 Cl
HETATM   30  C   UNL     1      18.848  51.185  49.879  1.00  0.00     0.024 A 
HETATM   31  C   UNL     1      20.242  51.265  49.922  1.00  0.00     0.010 A 
ENDBRANCH  24  25
ENDBRANCH  21  24
ENDBRANCH   3  20
TORSDOF 5
ENDMDL
MODEL 6
REMARK VINA RESULT:      -8.8      1.528      2.124
REMARK  5 active torsions:
REMARK  status: ('A' for Active; 'I' for Inactive)
REMARK    1  A    between atoms: C_4  and  N_5 
REMARK       I    between atoms: N_5  and  C_6 
REMARK       I    between atoms: C_6  and  N_7 
REMARK    2  A    between atoms: N_7  and  C_8 
REMARK    3  A    between atoms: C_10  and  C_11 
REMARK       I    between atoms: C_11  and  N_12 
REMARK    4  A    between atoms: N_12  and  C_13 
REMARK    5  A    between atoms: C_13  and  C_14 
ROOT
HETATM    1  C   UNL     1      24.101  47.361  49.706  1.00  0.00     0.175 A 
HETATM    2  S   UNL     1      24.276  45.678  49.532  1.00  0.00    -0.044 SA
HETATM    3  C   UNL     1      25.112  45.602  51.033  1.00  0.00     0.100 A 
HETATM    4  C   UNL     1      25.206  46.881  51.563  1.00  0.00     0.056 A 
HETATM    5  C   UNL     1      25.860  47.280  52.840  1.00  0.00     0.072 C 
HETATM    6  N   UNL     1      24.606  47.872  50.801  1.00  0.00    -0.228 NA
ENDROOT
BRANCH   1   7
HETATM    7  N   UNL     1      23.439  48.152  48.811  1.00  0.00    -0.287 N 
HETATM    8  C   UNL     1      22.134  48.283  48.450  1.00  0.00     0.326 C 
HETATM    9  N   UNL     1      21.247  47.343  48.887  1.00  0.00    -0.309 N 
HETATM   10  O   UNL     1      21.860  49.226  47.709  1.00  0.00    -0.247 OA
HETATM   11  H   UNL     1      21.653  46.532  49.328  1.00  0.00     0.170 HD
HETATM   12  H   UNL     1      24.047  48.805  48.334  1.00  0.00     0.172 HD
BRANCH   9  13
HETATM   13  C   UNL     1      19.854  47.294  48.668  1.00  0.00     0.036 A 
HETATM   14  C   UNL     1      19.256  46.650  47.581  1.00  0.00     0.036 A 
HETATM   15  C   UNL     1      17.860  46.636  47.428  1.00  0.00    -0.060 A 
HETATM   16  C   UNL     1      17.241  45.964  46.237  1.00  0.00     0.048 C 
HETATM   17  C   UNL     1      17.062  47.302  48.363  1.00  0.00     0.007 A 
HETATM   18  C   UNL     1      17.649  47.953  49.446  1.00  0.00     0.003 A 
HETATM   19  C   UNL     1      19.037  47.949  49.597  1.00  0.00     0.029 A 
ENDBRANCH   9  13
ENDBRANCH   1   7
BRANCH   3  20
HETATM   20  C   UNL     1      25.627  44.365  51.594  1.00  0.00     0.260 C 
HETATM   21  N   UNL     1      26.991  44.177  51.503  1.00  0.00    -0.352 N 
HETATM   22  H   UNL     1      27.562  44.921  51.127  1.00  0.00     0.163 HD
HETATM   23  O   UNL     1      24.901  43.523  52.116  1.00  0.00    -0.267 OA
BRANCH  21  24
HETATM   24  C   UNL     1      27.648  43.014  52.057  1.00  0.00     0.161 C 
BRANCH  24  25
HETATM   25  C   UNL     1      28.581  43.307  53.210  1.00  0.00    -0.040 A 
HETATM   26  C   UNL     1      29.743  42.569  53.481  1.00  0.00     0.010 A 
HETATM   27  C   UNL     1      30.559  42.897  54.570  1.00  0.00     0.024 A 
HETATM   28  C   UNL     1      30.217  43.959  55.402  1.00  0.00     0.034 A 
HETATM   29 CL   UNL     1      31.220  44.356  56.743  1.00  0.00    -0.084 Cl
HETATM   30  C   UNL     1      29.064  44.699  55.157  1.00  0.00     0.024 A 
HETATM   31  C   UNL     1      28.254  44.375  54.066  1.00  0.00     0.010 A 
ENDBRANCH  24  25
ENDBRANCH  21  24
ENDBRANCH   3  20
TORSDOF 5
ENDMDL
MODEL 7
REMARK VINA RESULT:      -8.8      3.707     10.368
REMARK  5 active torsions:
REMARK  status: ('A' for Active; 'I' for Inactive)
REMARK    1  A    between atoms: C_4  and  N_5 
REMARK       I    between atoms: N_5  and  C_6 
REMARK       I    between atoms: C_6  and  N_7 
REMARK    2  A    between atoms: N_7  and  C_8 
REMARK    3  A    between atoms: C_10  and  C_11 
REMARK       I    between atoms: C_11  and  N_12 
REMARK    4  A    between atoms: N_12  and  C_13 
REMARK    5  A    between atoms: C_13  and  C_14 
ROOT
HETATM    1  C   UNL     1      27.002  43.957  51.404  1.00  0.00     0.175 A 
HETATM    2  S   UNL     1      25.799  43.255  50.429  1.00  0.00    -0.044 SA
HETATM    3  C   UNL     1      24.906  44.723  50.459  1.00  0.00     0.100 A 
HETATM    4  C   UNL     1      25.593  45.654  51.226  1.00  0.00     0.056 A 
HETATM    5  C   UNL     1      25.179  47.052  51.530  1.00  0.00     0.072 C 
HETATM    6  N   UNL     1      26.799  45.205  51.742  1.00  0.00    -0.228 NA
ENDROOT
BRANCH   1   7
HETATM    7  N   UNL     1      28.144  43.310  51.784  1.00  0.00    -0.287 N 
HETATM    8  C   UNL     1      28.927  43.351  52.896  1.00  0.00     0.326 C 
HETATM    9  N   UNL     1      28.711  44.349  53.801  1.00  0.00    -0.309 N 
HETATM   10  O   UNL     1      29.811  42.499  52.978  1.00  0.00    -0.247 OA
HETATM   11  H   UNL     1      28.078  45.076  53.504  1.00  0.00     0.170 HD
HETATM   12  H   UNL     1      28.459  42.629  51.105  1.00  0.00     0.172 HD
BRANCH   9  13
HETATM   13  C   UNL     1      29.371  44.567  55.028  1.00  0.00     0.036 A 
HETATM   14  C   UNL     1      30.431  43.786  55.496  1.00  0.00     0.036 A 
HETATM   15  C   UNL     1      31.047  44.065  56.727  1.00  0.00    -0.060 A 
HETATM   16  C   UNL     1      32.164  43.194  57.223  1.00  0.00     0.048 C 
HETATM   17  C   UNL     1      30.570  45.123  57.506  1.00  0.00     0.007 A 
HETATM   18  C   UNL     1      29.509  45.903  57.053  1.00  0.00     0.003 A 
HETATM   19  C   UNL     1      28.913  45.627  55.821  1.00  0.00     0.029 A 
ENDBRANCH   9  13
ENDBRANCH   1   7
BRANCH   3  20
HETATM   20  C   UNL     1      23.631  44.894  49.783  1.00  0.00     0.260 C 
HETATM   21  N   UNL     1      23.517  46.003  48.971  1.00  0.00    -0.352 N 
HETATM   22  H   UNL     1      24.326  46.590  48.829  1.00  0.00     0.163 HD
HETATM   23  O   UNL     1      22.699  44.107  49.924  1.00  0.00    -0.267 OA
BRANCH  21  24
HETATM   24  C   UNL     1      22.322  46.276  48.203  1.00  0.00     0.161 C 
BRANCH  24  25
HETATM   25  C   UNL     1      21.820  47.699  48.303  1.00  0.00    -0.040 A 
HETATM   26  C   UNL     1      22.478  48.710  49.019  1.00  0.00     0.010 A 
HETATM   27  C   UNL     1      21.953  50.006  49.070  1.00  0.00     0.024 A 
HETATM   28  C   UNL     1      20.761  50.301  48.413  1.00  0.00     0.034 A 
HETATM   29 CL   UNL     1      20.116  51.894  48.482  1.00  0.00    -0.084 Cl
HETATM   30  C   UNL     1      20.088  49.311  47.704  1.00  0.00     0.024 A 
HETATM   31  C   UNL     1      20.617  48.020  47.648  1.00  0.00     0.010 A 
ENDBRANCH  24  25
ENDBRANCH  21  24
ENDBRANCH   3  20
TORSDOF 5
ENDMDL
MODEL 8
REMARK VINA RESULT:      -8.5      3.753     10.281
REMARK  5 active torsions:
REMARK  status: ('A' for Active; 'I' for Inactive)
REMARK    1  A    between atoms: C_4  and  N_5 
REMARK       I    between atoms: N_5  and  C_6 
REMARK       I    between atoms: C_6  and  N_7 
REMARK    2  A    between atoms: N_7  and  C_8 
REMARK    3  A    between atoms: C_10  and  C_11 
REMARK       I    between atoms: C_11  and  N_12 
REMARK    4  A    between atoms: N_12  and  C_13 
REMARK    5  A    between atoms: C_13  and  C_14 
ROOT
HETATM    1  C   UNL     1      25.260  43.283  50.698  1.00  0.00     0.175 A 
HETATM    2  S   UNL     1      23.983  42.925  49.634  1.00  0.00    -0.044 SA
HETATM    3  C   UNL     1      23.637  44.601  49.472  1.00  0.00     0.100 A 
HETATM    4  C   UNL     1      24.525  45.324  50.255  1.00  0.00     0.056 A 
HETATM    5  C   UNL     1      24.579  46.802  50.425  1.00  0.00     0.072 C 
HETATM    6  N   UNL     1      25.458  44.556  50.935  1.00  0.00    -0.228 NA
ENDROOT
BRANCH   1   7
HETATM    7  N   UNL     1      26.079  42.338  51.247  1.00  0.00    -0.287 N 
HETATM    8  C   UNL     1      27.033  42.362  52.217  1.00  0.00     0.326 C 
HETATM    9  N   UNL     1      27.463  43.576  52.668  1.00  0.00    -0.309 N 
HETATM   10  O   UNL     1      27.473  41.273  52.584  1.00  0.00    -0.247 OA
HETATM   11  H   UNL     1      27.145  44.374  52.140  1.00  0.00     0.170 HD
HETATM   12  H   UNL     1      25.919  41.411  50.875  1.00  0.00     0.172 HD
BRANCH   9  13
HETATM   13  C   UNL     1      28.410  43.842  53.679  1.00  0.00     0.036 A 
HETATM   14  C   UNL     1      28.243  44.811  54.672  1.00  0.00     0.036 A 
HETATM   15  C   UNL     1      29.226  45.018  55.654  1.00  0.00    -0.060 A 
HETATM   16  C   UNL     1      29.038  46.085  56.692  1.00  0.00     0.048 C 
HETATM   17  C   UNL     1      30.400  44.261  55.616  1.00  0.00     0.007 A 
HETATM   18  C   UNL     1      30.580  43.297  54.627  1.00  0.00     0.003 A 
HETATM   19  C   UNL     1      29.591  43.089  53.663  1.00  0.00     0.029 A 
ENDBRANCH   9  13
ENDBRANCH   1   7
BRANCH   3  20
HETATM   20  C   UNL     1      22.560  45.114  48.642  1.00  0.00     0.260 C 
HETATM   21  N   UNL     1      21.369  45.376  49.286  1.00  0.00    -0.352 N 
HETATM   22  H   UNL     1      21.323  45.273  50.289  1.00  0.00     0.163 HD
HETATM   23  O   UNL     1      22.688  45.300  47.435  1.00  0.00    -0.267 OA
BRANCH  21  24
HETATM   24  C   UNL     1      20.226  45.931  48.595  1.00  0.00     0.161 C 
BRANCH  24  25
HETATM   25  C   UNL     1      20.115  47.438  48.669  1.00  0.00    -0.040 A 
HETATM   26  C   UNL     1      19.415  48.121  49.675  1.00  0.00     0.010 A 
HETATM   27  C   UNL     1      19.352  49.518  49.678  1.00  0.00     0.024 A 
HETATM   28  C   UNL     1      19.982  50.247  48.673  1.00  0.00     0.034 A 
HETATM   29 CL   UNL     1      19.899  51.965  48.678  1.00  0.00    -0.084 Cl
HETATM   30  C   UNL     1      20.675  49.589  47.661  1.00  0.00     0.024 A 
HETATM   31  C   UNL     1      20.742  48.194  47.662  1.00  0.00     0.010 A 
ENDBRANCH  24  25
ENDBRANCH  21  24
ENDBRANCH   3  20
TORSDOF 5
ENDMDL
MODEL 9
REMARK VINA RESULT:      -8.5      2.322      3.362
REMARK  5 active torsions:
REMARK  status: ('A' for Active; 'I' for Inactive)
REMARK    1  A    between atoms: C_4  and  N_5 
REMARK       I    between atoms: N_5  and  C_6 
REMARK       I    between atoms: C_6  and  N_7 
REMARK    2  A    between atoms: N_7  and  C_8 
REMARK    3  A    between atoms: C_10  and  C_11 
REMARK       I    between atoms: C_11  and  N_12 
REMARK    4  A    between atoms: N_12  and  C_13 
REMARK    5  A    between atoms: C_13  and  C_14 
ROOT
HETATM    1  C   UNL     1      23.967  48.265  49.672  1.00  0.00     0.175 A 
HETATM    2  S   UNL     1      24.203  46.622  50.039  1.00  0.00    -0.044 SA
HETATM    3  C   UNL     1      25.900  46.813  49.840  1.00  0.00     0.100 A 
HETATM    4  C   UNL     1      26.170  48.130  49.495  1.00  0.00     0.056 A 
HETATM    5  C   UNL     1      27.502  48.733  49.215  1.00  0.00     0.072 C 
HETATM    6  N   UNL     1      25.054  48.951  49.422  1.00  0.00    -0.228 NA
ENDROOT
BRANCH   1   7
HETATM    7  N   UNL     1      22.746  48.877  49.677  1.00  0.00    -0.287 N 
HETATM    8  C   UNL     1      21.530  48.565  49.151  1.00  0.00     0.326 C 
HETATM    9  N   UNL     1      21.459  47.535  48.259  1.00  0.00    -0.309 N 
HETATM   10  O   UNL     1      20.585  49.276  49.491  1.00  0.00    -0.247 OA
HETATM   11  H   UNL     1      22.344  47.173  47.941  1.00  0.00     0.170 HD
HETATM   12  H   UNL     1      22.733  49.733  50.217  1.00  0.00     0.172 HD
BRANCH   9  13
HETATM   13  C   UNL     1      20.314  47.019  47.618  1.00  0.00     0.036 A 
HETATM   14  C   UNL     1      19.610  47.690  46.614  1.00  0.00     0.036 A 
HETATM   15  C   UNL     1      18.479  47.112  46.014  1.00  0.00    -0.060 A 
HETATM   16  C   UNL     1      17.721  47.864  44.959  1.00  0.00     0.048 C 
HETATM   17  C   UNL     1      18.037  45.860  46.450  1.00  0.00     0.007 A 
HETATM   18  C   UNL     1      18.727  45.186  47.456  1.00  0.00     0.003 A 
HETATM   19  C   UNL     1      19.858  45.762  48.036  1.00  0.00     0.029 A 
ENDBRANCH   9  13
ENDBRANCH   1   7
BRANCH   3  20
HETATM   20  C   UNL     1      26.848  45.723  50.003  1.00  0.00     0.260 C 
HETATM   21  N   UNL     1      26.624  44.878  51.070  1.00  0.00    -0.352 N 
HETATM   22  H   UNL     1      25.794  45.007  51.629  1.00  0.00     0.163 HD
HETATM   23  O   UNL     1      27.801  45.559  49.247  1.00  0.00    -0.267 OA
BRANCH  21  24
HETATM   24  C   UNL     1      27.461  43.727  51.329  1.00  0.00     0.161 C 
BRANCH  24  25
HETATM   25  C   UNL     1      28.250  43.798  52.617  1.00  0.00    -0.040 A 
HETATM   26  C   UNL     1      27.879  44.586  53.717  1.00  0.00     0.010 A 
HETATM   27  C   UNL     1      28.661  44.606  54.877  1.00  0.00     0.024 A 
HETATM   28  C   UNL     1      29.824  43.845  54.946  1.00  0.00     0.034 A 
HETATM   29 CL   UNL     1      30.785  43.874  56.372  1.00  0.00    -0.084 Cl
HETATM   30  C   UNL     1      30.215  43.062  53.864  1.00  0.00     0.024 A 
HETATM   31  C   UNL     1      29.431  43.039  52.708  1.00  0.00     0.010 A 
ENDBRANCH  24  25
ENDBRANCH  21  24
ENDBRANCH   3  20
TORSDOF 5
ENDMDL
MODEL 10
REMARK VINA RESULT:      -8.2      4.035      6.629
REMARK  5 active torsions:
REMARK  status: ('A' for Active; 'I' for Inactive)
REMARK    1  A    between atoms: C_4  and  N_5 
REMARK       I    between atoms: N_5  and  C_6 
REMARK       I    between atoms: C_6  and  N_7 
REMARK    2  A    between atoms: N_7  and  C_8 
REMARK    3  A    between atoms: C_10  and  C_11 
REMARK       I    between atoms: C_11  and  N_12 
REMARK    4  A    between atoms: N_12  and  C_13 
REMARK    5  A    between atoms: C_13  and  C_14 
ROOT
HETATM    1  C   UNL     1      18.799  49.024  48.662  1.00  0.00     0.175 A 
HETATM    2  S   UNL     1      19.989  47.980  48.041  1.00  0.00    -0.044 SA
HETATM    3  C   UNL     1      21.212  48.889  48.835  1.00  0.00     0.100 A 
HETATM    4  C   UNL     1      20.621  49.942  49.519  1.00  0.00     0.056 A 
HETATM    5  C   UNL     1      21.304  50.986  50.331  1.00  0.00     0.072 C 
HETATM    6  N   UNL     1      19.238  49.992  49.425  1.00  0.00    -0.228 NA
ENDROOT
BRANCH   1   7
HETATM    7  N   UNL     1      17.460  48.864  48.443  1.00  0.00    -0.287 N 
HETATM    8  C   UNL     1      16.407  49.721  48.360  1.00  0.00     0.326 C 
HETATM    9  N   UNL     1      16.599  51.017  48.741  1.00  0.00    -0.309 N 
HETATM   10  O   UNL     1      15.337  49.243  47.984  1.00  0.00    -0.247 OA
HETATM   11  H   UNL     1      17.475  51.210  49.200  1.00  0.00     0.170 HD
HETATM   12  H   UNL     1      17.198  47.901  48.275  1.00  0.00     0.172 HD
BRANCH   9  13
HETATM   13  C   UNL     1      15.670  52.078  48.709  1.00  0.00     0.036 A 
HETATM   14  C   UNL     1      15.314  52.771  47.549  1.00  0.00     0.036 A 
HETATM   15  C   UNL     1      14.376  53.816  47.590  1.00  0.00    -0.060 A 
HETATM   16  C   UNL     1      14.031  54.565  46.336  1.00  0.00     0.048 C 
HETATM   17  C   UNL     1      13.815  54.185  48.816  1.00  0.00     0.007 A 
HETATM   18  C   UNL     1      14.170  53.506  49.980  1.00  0.00     0.003 A 
HETATM   19  C   UNL     1      15.093  52.459  49.927  1.00  0.00     0.029 A 
ENDBRANCH   9  13
ENDBRANCH   1   7
BRANCH   3  20
HETATM   20  C   UNL     1      22.626  48.566  48.750  1.00  0.00     0.260 C 
HETATM   21  N   UNL     1      23.169  47.921  49.842  1.00  0.00    -0.352 N 
HETATM   22  H   UNL     1      22.560  47.644  50.599  1.00  0.00     0.163 HD
HETATM   23  O   UNL     1      23.311  48.851  47.772  1.00  0.00    -0.267 OA
BRANCH  21  24
HETATM   24  C   UNL     1      24.552  47.499  49.878  1.00  0.00     0.161 C 
BRANCH  24  25
HETATM   25  C   UNL     1      24.895  46.561  51.015  1.00  0.00    -0.040 A 
HETATM   26  C   UNL     1      24.588  45.192  51.016  1.00  0.00     0.010 A 
HETATM   27  C   UNL     1      24.934  44.385  52.106  1.00  0.00     0.024 A 
HETATM   28  C   UNL     1      25.582  44.939  53.206  1.00  0.00     0.034 A 
HETATM   29 CL   UNL     1      26.001  43.944  54.546  1.00  0.00    -0.084 Cl
HETATM   30  C   UNL     1      25.888  46.296  53.229  1.00  0.00     0.024 A 
HETATM   31  C   UNL     1      25.548  47.100  52.138  1.00  0.00     0.010 A 
ENDBRANCH  24  25
ENDBRANCH  21  24
ENDBRANCH   3  20
TORSDOF 5
ENDMDL
