MODEL 1
REMARK VINA RESULT:      -9.0      0.000      0.000
REMARK  4 active torsions:
REMARK  status: ('A' for Active; 'I' for Inactive)
REMARK    1  A    between atoms: C_10  and  C_11 
REMARK       I    between atoms: C_11  and  N_12 
REMARK    2  A    between atoms: N_12  and  N_13 
REMARK       I    between atoms: N_13  and  C_14 
REMARK    3  A    between atoms: C_14  and  C_15 
REMARK    4  A    between atoms: C_15  and  C_16 
ROOT
HETATM    1  C   UNL     1      26.190  45.726  53.052  1.00  0.00     0.272 C 
HETATM    2  N   UNL     1      25.833  46.913  52.450  1.00  0.00    -0.263 N 
HETATM    3  O   UNL     1      25.639  44.668  52.742  1.00  0.00    -0.266 OA
HETATM    4  H   UNL     1      26.282  47.808  52.643  1.00  0.00     0.190 HD
ENDROOT
BRANCH   2   5
HETATM    5  N   UNL     1      24.887  46.889  51.417  1.00  0.00    -0.267 N 
HETATM    6  C   UNL     1      25.150  47.594  50.263  1.00  0.00     0.240 C 
HETATM    7  O   UNL     1      26.158  48.284  50.116  1.00  0.00    -0.272 OA
HETATM    8  H   UNL     1      24.033  46.362  51.589  1.00  0.00     0.190 HD
BRANCH   6   9
HETATM    9  C   UNL     1      24.094  47.446  49.185  1.00  0.00     0.143 C 
BRANCH   9  10
HETATM   10  C   UNL     1      23.129  48.605  49.073  1.00  0.00    -0.049 A 
HETATM   11  C   UNL     1      23.570  49.923  48.881  1.00  0.00     0.009 A 
HETATM   12  C   UNL     1      22.652  50.965  48.722  1.00  0.00     0.024 A 
HETATM   13  C   UNL     1      21.286  50.695  48.735  1.00  0.00     0.034 A 
HETATM   14 CL   UNL     1      20.157  51.975  48.525  1.00  0.00    -0.084 Cl
HETATM   15  C   UNL     1      20.830  49.391  48.905  1.00  0.00     0.024 A 
HETATM   16  C   UNL     1      21.748  48.349  49.068  1.00  0.00     0.009 A 
ENDBRANCH   9  10
ENDBRANCH   6   9
ENDBRANCH   2   5
BRANCH   1  17
HETATM   17  C   UNL     1      27.238  45.789  54.072  1.00  0.00     0.064 A 
HETATM   18  C   UNL     1      28.362  44.933  54.358  1.00  0.00     0.046 A 
HETATM   19  C   UNL     1      28.890  43.744  53.812  1.00  0.00     0.130 A 
HETATM   20  C   UNL     1      29.035  45.475  55.461  1.00  0.00     0.046 A 
HETATM   21  C   UNL     1      30.032  43.147  54.348  1.00  0.00     0.043 A 
HETATM   22  F   UNL     1      28.303  43.157  52.761  1.00  0.00    -0.205 F 
HETATM   23  C   UNL     1      30.673  43.720  55.440  1.00  0.00     0.005 A 
HETATM   24  C   UNL     1      30.185  44.895  56.016  1.00  0.00     0.030 A 
HETATM   25  N   UNL     1      28.357  46.609  55.836  1.00  0.00    -0.364 N 
HETATM   26  H   UNL     1      28.617  47.205  56.610  1.00  0.00     0.165 HD
HETATM   27  C   UNL     1      27.281  46.802  55.020  1.00  0.00     0.106 A 
ENDBRANCH   1  17
TORSDOF 4
ENDMDL
MODEL 2
REMARK VINA RESULT:      -9.0      4.004      8.959
REMARK  4 active torsions:
REMARK  status: ('A' for Active; 'I' for Inactive)
REMARK    1  A    between atoms: C_10  and  C_11 
REMARK       I    between atoms: C_11  and  N_12 
REMARK    2  A    between atoms: N_12  and  N_13 
REMARK       I    between atoms: N_13  and  C_14 
REMARK    3  A    between atoms: C_14  and  C_15 
REMARK    4  A    between atoms: C_15  and  C_16 
ROOT
HETATM    1  C   UNL     1      26.334  45.209  51.637  1.00  0.00     0.272 C 
HETATM    2  N   UNL     1      27.166  44.190  51.226  1.00  0.00    -0.263 N 
HETATM    3  O   UNL     1      26.580  45.856  52.656  1.00  0.00    -0.266 OA
HETATM    4  H   UNL     1      27.029  43.650  50.373  1.00  0.00     0.190 HD
ENDROOT
BRANCH   2   5
HETATM    5  N   UNL     1      28.345  43.950  51.944  1.00  0.00    -0.267 N 
HETATM    6  C   UNL     1      28.360  42.931  52.871  1.00  0.00     0.240 C 
HETATM    7  O   UNL     1      27.369  42.251  53.132  1.00  0.00    -0.272 OA
HETATM    8  H   UNL     1      29.132  44.568  51.752  1.00  0.00     0.190 HD
BRANCH   6   9
HETATM    9  C   UNL     1      29.704  42.713  53.540  1.00  0.00     0.143 C 
BRANCH   9  10
HETATM   10  C   UNL     1      29.940  43.544  54.781  1.00  0.00    -0.049 A 
HETATM   11  C   UNL     1      30.949  43.229  55.704  1.00  0.00     0.009 A 
HETATM   12  C   UNL     1      31.181  44.049  56.812  1.00  0.00     0.024 A 
HETATM   13  C   UNL     1      30.420  45.201  56.995  1.00  0.00     0.034 A 
HETATM   14 CL   UNL     1      30.716  46.217  58.351  1.00  0.00    -0.084 Cl
HETATM   15  C   UNL     1      29.427  45.539  56.080  1.00  0.00     0.024 A 
HETATM   16  C   UNL     1      29.192  44.716  54.975  1.00  0.00     0.009 A 
ENDBRANCH   9  10
ENDBRANCH   6   9
ENDBRANCH   2   5
BRANCH   1  17
HETATM   17  C   UNL     1      25.153  45.472  50.812  1.00  0.00     0.064 A 
HETATM   18  C   UNL     1      24.738  46.629  50.060  1.00  0.00     0.046 A 
HETATM   19  C   UNL     1      25.260  47.919  49.819  1.00  0.00     0.130 A 
HETATM   20  C   UNL     1      23.509  46.324  49.461  1.00  0.00     0.046 A 
HETATM   21  C   UNL     1      24.580  48.837  49.017  1.00  0.00     0.043 A 
HETATM   22  F   UNL     1      26.427  48.293  50.360  1.00  0.00    -0.205 F 
HETATM   23  C   UNL     1      23.365  48.492  48.437  1.00  0.00     0.005 A 
HETATM   24  C   UNL     1      22.807  47.228  48.649  1.00  0.00     0.030 A 
HETATM   25  N   UNL     1      23.183  45.042  49.828  1.00  0.00    -0.364 N 
HETATM   26  H   UNL     1      22.342  44.557  49.542  1.00  0.00     0.165 HD
HETATM   27  C   UNL     1      24.152  44.527  50.638  1.00  0.00     0.106 A 
ENDBRANCH   1  17
TORSDOF 4
ENDMDL
MODEL 3
REMARK VINA RESULT:      -8.9      2.041      2.811
REMARK  4 active torsions:
REMARK  status: ('A' for Active; 'I' for Inactive)
REMARK    1  A    between atoms: C_10  and  C_11 
REMARK       I    between atoms: C_11  and  N_12 
REMARK    2  A    between atoms: N_12  and  N_13 
REMARK       I    between atoms: N_13  and  C_14 
REMARK    3  A    between atoms: C_14  and  C_15 
REMARK    4  A    between atoms: C_15  and  C_16 
ROOT
HETATM    1  C   UNL     1      24.847  45.216  51.596  1.00  0.00     0.272 C 
HETATM    2  N   UNL     1      24.873  46.351  50.815  1.00  0.00    -0.263 N 
HETATM    3  O   UNL     1      23.875  44.460  51.583  1.00  0.00    -0.266 OA
HETATM    4  H   UNL     1      25.666  46.989  50.761  1.00  0.00     0.190 HD
ENDROOT
BRANCH   2   5
HETATM    5  N   UNL     1      23.806  46.592  49.939  1.00  0.00    -0.267 N 
HETATM    6  C   UNL     1      23.569  47.885  49.525  1.00  0.00     0.240 C 
HETATM    7  O   UNL     1      24.224  48.846  49.928  1.00  0.00    -0.272 OA
HETATM    8  H   UNL     1      23.242  45.788  49.671  1.00  0.00     0.190 HD
BRANCH   6   9
HETATM    9  C   UNL     1      22.436  48.025  48.527  1.00  0.00     0.143 C 
BRANCH   9  10
HETATM   10  C   UNL     1      21.467  49.149  48.816  1.00  0.00    -0.049 A 
HETATM   11  C   UNL     1      21.636  50.433  48.275  1.00  0.00     0.009 A 
HETATM   12  C   UNL     1      20.692  51.436  48.513  1.00  0.00     0.024 A 
HETATM   13  C   UNL     1      19.561  51.157  49.277  1.00  0.00     0.034 A 
HETATM   14 CL   UNL     1      18.392  52.387  49.557  1.00  0.00    -0.084 Cl
HETATM   15  C   UNL     1      19.366  49.884  49.805  1.00  0.00     0.024 A 
HETATM   16  C   UNL     1      20.314  48.883  49.571  1.00  0.00     0.009 A 
ENDBRANCH   9  10
ENDBRANCH   6   9
ENDBRANCH   2   5
BRANCH   1  17
HETATM   17  C   UNL     1      26.019  44.965  52.439  1.00  0.00     0.064 A 
HETATM   18  C   UNL     1      26.637  45.735  53.488  1.00  0.00     0.046 A 
HETATM   19  C   UNL     1      26.393  46.980  54.105  1.00  0.00     0.130 A 
HETATM   20  C   UNL     1      27.744  45.009  53.947  1.00  0.00     0.046 A 
HETATM   21  C   UNL     1      27.217  47.455  55.127  1.00  0.00     0.043 A 
HETATM   22  F   UNL     1      25.359  47.740  53.721  1.00  0.00    -0.205 F 
HETATM   23  C   UNL     1      28.302  46.701  55.557  1.00  0.00     0.005 A 
HETATM   24  C   UNL     1      28.585  45.463  54.973  1.00  0.00     0.030 A 
HETATM   25  N   UNL     1      27.804  43.849  53.213  1.00  0.00    -0.364 N 
HETATM   26  H   UNL     1      28.508  43.131  53.328  1.00  0.00     0.165 HD
HETATM   27  C   UNL     1      26.785  43.815  52.307  1.00  0.00     0.106 A 
ENDBRANCH   1  17
TORSDOF 4
ENDMDL
MODEL 4
REMARK VINA RESULT:      -8.9      2.477      3.434
REMARK  4 active torsions:
REMARK  status: ('A' for Active; 'I' for Inactive)
REMARK    1  A    between atoms: C_10  and  C_11 
REMARK       I    between atoms: C_11  and  N_12 
REMARK    2  A    between atoms: N_12  and  N_13 
REMARK       I    between atoms: N_13  and  C_14 
REMARK    3  A    between atoms: C_14  and  C_15 
REMARK    4  A    between atoms: C_15  and  C_16 
ROOT
HETATM    1  C   UNL     1      27.694  46.428  54.969  1.00  0.00     0.272 C 
HETATM    2  N   UNL     1      26.800  45.472  54.539  1.00  0.00    -0.263 N 
HETATM    3  O   UNL     1      27.727  47.545  54.450  1.00  0.00    -0.266 OA
HETATM    4  H   UNL     1      26.707  44.548  54.958  1.00  0.00     0.190 HD
ENDROOT
BRANCH   2   5
HETATM    5  N   UNL     1      25.868  45.815  53.551  1.00  0.00    -0.267 N 
HETATM    6  C   UNL     1      25.802  45.048  52.408  1.00  0.00     0.240 C 
HETATM    7  O   UNL     1      26.559  44.102  52.194  1.00  0.00    -0.272 OA
HETATM    8  H   UNL     1      25.297  46.640  53.726  1.00  0.00     0.190 HD
BRANCH   6   9
HETATM    9  C   UNL     1      24.715  45.464  51.437  1.00  0.00     0.143 C 
BRANCH   9  10
HETATM   10  C   UNL     1      25.074  46.625  50.536  1.00  0.00    -0.049 A 
HETATM   11  C   UNL     1      24.097  47.469  49.987  1.00  0.00     0.009 A 
HETATM   12  C   UNL     1      24.463  48.568  49.205  1.00  0.00     0.024 A 
HETATM   13  C   UNL     1      25.809  48.843  48.983  1.00  0.00     0.034 A 
HETATM   14 CL   UNL     1      26.260  50.205  48.033  1.00  0.00    -0.084 Cl
HETATM   15  C   UNL     1      26.794  48.028  49.535  1.00  0.00     0.024 A 
HETATM   16  C   UNL     1      26.427  46.926  50.313  1.00  0.00     0.009 A 
ENDBRANCH   9  10
ENDBRANCH   6   9
ENDBRANCH   2   5
BRANCH   1  17
HETATM   17  C   UNL     1      28.598  46.048  56.057  1.00  0.00     0.064 A 
HETATM   18  C   UNL     1      29.640  45.056  56.146  1.00  0.00     0.046 A 
HETATM   19  C   UNL     1      30.192  44.090  55.278  1.00  0.00     0.130 A 
HETATM   20  C   UNL     1      30.179  45.126  57.438  1.00  0.00     0.046 A 
HETATM   21  C   UNL     1      31.228  43.252  55.693  1.00  0.00     0.043 A 
HETATM   22  F   UNL     1      29.730  43.954  54.028  1.00  0.00    -0.205 F 
HETATM   23  C   UNL     1      31.738  43.357  56.982  1.00  0.00     0.005 A 
HETATM   24  C   UNL     1      31.221  44.297  57.878  1.00  0.00     0.030 A 
HETATM   25  N   UNL     1      29.499  46.111  58.111  1.00  0.00    -0.364 N 
HETATM   26  H   UNL     1      29.676  46.380  59.070  1.00  0.00     0.165 HD
HETATM   27  C   UNL     1      28.551  46.663  57.300  1.00  0.00     0.106 A 
ENDBRANCH   1  17
TORSDOF 4
ENDMDL
MODEL 5
REMARK VINA RESULT:      -8.9      3.922      9.189
REMARK  4 active torsions:
REMARK  status: ('A' for Active; 'I' for Inactive)
REMARK    1  A    between atoms: C_10  and  C_11 
REMARK       I    between atoms: C_11  and  N_12 
REMARK    2  A    between atoms: N_12  and  N_13 
REMARK       I    between atoms: N_13  and  C_14 
REMARK    3  A    between atoms: C_14  and  C_15 
REMARK    4  A    between atoms: C_15  and  C_16 
ROOT
HETATM    1  C   UNL     1      25.974  46.172  50.059  1.00  0.00     0.272 C 
HETATM    2  N   UNL     1      25.989  45.468  51.243  1.00  0.00    -0.263 N 
HETATM    3  O   UNL     1      27.015  46.383  49.435  1.00  0.00    -0.266 OA
HETATM    4  H   UNL     1      25.154  45.234  51.779  1.00  0.00     0.190 HD
ENDROOT
BRANCH   2   5
HETATM    5  N   UNL     1      27.199  44.921  51.690  1.00  0.00    -0.267 N 
HETATM    6  C   UNL     1      27.178  44.050  52.757  1.00  0.00     0.240 C 
HETATM    7  O   UNL     1      26.149  43.766  53.368  1.00  0.00    -0.272 OA
HETATM    8  H   UNL     1      28.044  45.221  51.206  1.00  0.00     0.190 HD
BRANCH   6   9
HETATM    9  C   UNL     1      28.531  43.466  53.115  1.00  0.00     0.143 C 
BRANCH   9  10
HETATM   10  C   UNL     1      29.167  44.043  54.359  1.00  0.00    -0.049 A 
HETATM   11  C   UNL     1      28.657  45.185  54.992  1.00  0.00     0.009 A 
HETATM   12  C   UNL     1      29.232  45.662  56.174  1.00  0.00     0.024 A 
HETATM   13  C   UNL     1      30.309  44.987  56.742  1.00  0.00     0.034 A 
HETATM   14 CL   UNL     1      31.007  45.565  58.204  1.00  0.00    -0.084 Cl
HETATM   15  C   UNL     1      30.818  43.840  56.138  1.00  0.00     0.024 A 
HETATM   16  C   UNL     1      30.245  43.367  54.954  1.00  0.00     0.009 A 
ENDBRANCH   9  10
ENDBRANCH   6   9
ENDBRANCH   2   5
BRANCH   1  17
HETATM   17  C   UNL     1      24.673  46.658  49.593  1.00  0.00     0.064 A 
HETATM   18  C   UNL     1      24.246  47.934  49.080  1.00  0.00     0.046 A 
HETATM   19  C   UNL     1      24.860  49.180  48.831  1.00  0.00     0.130 A 
HETATM   20  C   UNL     1      22.878  47.836  48.793  1.00  0.00     0.046 A 
HETATM   21  C   UNL     1      24.133  50.255  48.317  1.00  0.00     0.043 A 
HETATM   22  F   UNL     1      26.163  49.360  49.084  1.00  0.00    -0.205 F 
HETATM   23  C   UNL     1      22.779  50.114  48.040  1.00  0.00     0.005 A 
HETATM   24  C   UNL     1      22.126  48.900  48.274  1.00  0.00     0.030 A 
HETATM   25  N   UNL     1      22.483  46.561  49.115  1.00  0.00    -0.364 N 
HETATM   26  H   UNL     1      21.542  46.206  49.013  1.00  0.00     0.165 HD
HETATM   27  C   UNL     1      23.544  45.852  49.599  1.00  0.00     0.106 A 
ENDBRANCH   1  17
TORSDOF 4
ENDMDL
MODEL 6
REMARK VINA RESULT:      -8.7      5.601      6.849
REMARK  4 active torsions:
REMARK  status: ('A' for Active; 'I' for Inactive)
REMARK    1  A    between atoms: C_10  and  C_11 
REMARK       I    between atoms: C_11  and  N_12 
REMARK    2  A    between atoms: N_12  and  N_13 
REMARK       I    between atoms: N_13  and  C_14 
REMARK    3  A    between atoms: C_14  and  C_15 
REMARK    4  A    between atoms: C_15  and  C_16 
ROOT
HETATM    1  C   UNL     1      28.370  44.082  53.373  1.00  0.00     0.272 C 
HETATM    2  N   UNL     1      27.045  43.801  53.120  1.00  0.00    -0.263 N 
HETATM    3  O   UNL     1      29.254  43.720  52.596  1.00  0.00    -0.266 OA
HETATM    4  H   UNL     1      26.273  44.109  53.709  1.00  0.00     0.190 HD
ENDROOT
BRANCH   2   5
HETATM    5  N   UNL     1      26.708  43.163  51.918  1.00  0.00    -0.267 N 
HETATM    6  C   UNL     1      25.414  43.266  51.455  1.00  0.00     0.240 C 
HETATM    7  O   UNL     1      24.527  43.854  52.074  1.00  0.00    -0.272 OA
HETATM    8  H   UNL     1      27.444  42.631  51.459  1.00  0.00     0.190 HD
BRANCH   6   9
HETATM    9  C   UNL     1      25.174  42.598  50.115  1.00  0.00     0.143 C 
BRANCH   9  10
HETATM   10  C   UNL     1      26.175  41.527  49.747  1.00  0.00    -0.049 A 
HETATM   11  C   UNL     1      26.145  40.250  50.327  1.00  0.00     0.009 A 
HETATM   12  C   UNL     1      27.048  39.263  49.924  1.00  0.00     0.024 A 
HETATM   13  C   UNL     1      27.976  39.538  48.923  1.00  0.00     0.034 A 
HETATM   14 CL   UNL     1      29.078  38.319  48.416  1.00  0.00    -0.084 Cl
HETATM   15  C   UNL     1      28.009  40.794  48.322  1.00  0.00     0.024 A 
HETATM   16  C   UNL     1      27.109  41.782  48.729  1.00  0.00     0.009 A 
ENDBRANCH   9  10
ENDBRANCH   6   9
ENDBRANCH   2   5
BRANCH   1  17
HETATM   17  C   UNL     1      28.667  44.818  54.604  1.00  0.00     0.064 A 
HETATM   18  C   UNL     1      29.644  44.611  55.642  1.00  0.00     0.046 A 
HETATM   19  C   UNL     1      30.661  43.666  55.899  1.00  0.00     0.130 A 
HETATM   20  C   UNL     1      29.471  45.626  56.592  1.00  0.00     0.046 A 
HETATM   21  C   UNL     1      31.455  43.751  57.043  1.00  0.00     0.043 A 
HETATM   22  F   UNL     1      30.886  42.660  55.044  1.00  0.00    -0.205 F 
HETATM   23  C   UNL     1      31.255  44.777  57.958  1.00  0.00     0.005 A 
HETATM   24  C   UNL     1      30.257  45.734  57.748  1.00  0.00     0.030 A 
HETATM   25  N   UNL     1      28.437  46.419  56.159  1.00  0.00    -0.364 N 
HETATM   26  H   UNL     1      28.090  47.232  56.651  1.00  0.00     0.165 HD
HETATM   27  C   UNL     1      27.946  45.943  54.979  1.00  0.00     0.106 A 
ENDBRANCH   1  17
TORSDOF 4
ENDMDL
MODEL 7
REMARK VINA RESULT:      -8.5      6.045      7.651
REMARK  4 active torsions:
REMARK  status: ('A' for Active; 'I' for Inactive)
REMARK    1  A    between atoms: C_10  and  C_11 
REMARK       I    between atoms: C_11  and  N_12 
REMARK    2  A    between atoms: N_12  and  N_13 
REMARK       I    between atoms: N_13  and  C_14 
REMARK    3  A    between atoms: C_14  and  C_15 
REMARK    4  A    between atoms: C_15  and  C_16 
ROOT
HETATM    1  C   UNL     1      27.308  44.193  52.924  1.00  0.00     0.272 C 
HETATM    2  N   UNL     1      26.946  42.872  53.073  1.00  0.00    -0.263 N 
HETATM    3  O   UNL     1      27.080  44.798  51.874  1.00  0.00    -0.266 OA
HETATM    4  H   UNL     1      27.077  42.338  53.931  1.00  0.00     0.190 HD
ENDROOT
BRANCH   2   5
HETATM    5  N   UNL     1      26.239  42.244  52.039  1.00  0.00    -0.267 N 
HETATM    6  C   UNL     1      26.899  41.331  51.246  1.00  0.00     0.240 C 
HETATM    7  O   UNL     1      28.096  41.077  51.375  1.00  0.00    -0.272 OA
HETATM    8  H   UNL     1      25.267  42.519  51.915  1.00  0.00     0.190 HD
BRANCH   6   9
HETATM    9  C   UNL     1      26.026  40.661  50.203  1.00  0.00     0.143 C 
BRANCH   9  10
HETATM   10  C   UNL     1      26.766  39.784  49.219  1.00  0.00    -0.049 A 
HETATM   11  C   UNL     1      27.363  40.305  48.062  1.00  0.00     0.009 A 
HETATM   12  C   UNL     1      28.090  39.478  47.201  1.00  0.00     0.024 A 
HETATM   13  C   UNL     1      28.243  38.127  47.501  1.00  0.00     0.034 A 
HETATM   14 CL   UNL     1      29.151  37.113  46.449  1.00  0.00    -0.084 Cl
HETATM   15  C   UNL     1      27.675  37.595  48.655  1.00  0.00     0.024 A 
HETATM   16  C   UNL     1      26.943  38.422  49.513  1.00  0.00     0.009 A 
ENDBRANCH   9  10
ENDBRANCH   6   9
ENDBRANCH   2   5
BRANCH   1  17
HETATM   17  C   UNL     1      27.976  44.830  54.061  1.00  0.00     0.064 A 
HETATM   18  C   UNL     1      29.097  44.428  54.872  1.00  0.00     0.046 A 
HETATM   19  C   UNL     1      29.968  43.318  54.913  1.00  0.00     0.130 A 
HETATM   20  C   UNL     1      29.303  45.428  55.832  1.00  0.00     0.046 A 
HETATM   21  C   UNL     1      30.985  43.231  55.864  1.00  0.00     0.043 A 
HETATM   22  F   UNL     1      29.835  42.315  54.035  1.00  0.00    -0.205 F 
HETATM   23  C   UNL     1      31.159  44.248  56.796  1.00  0.00     0.005 A 
HETATM   24  C   UNL     1      30.319  45.365  56.796  1.00  0.00     0.030 A 
HETATM   25  N   UNL     1      28.353  46.397  55.622  1.00  0.00    -0.364 N 
HETATM   26  H   UNL     1      28.260  47.241  56.172  1.00  0.00     0.165 HD
HETATM   27  C   UNL     1      27.553  46.048  54.573  1.00  0.00     0.106 A 
ENDBRANCH   1  17
TORSDOF 4
ENDMDL
MODEL 8
REMARK VINA RESULT:      -8.4      6.000      9.079
REMARK  4 active torsions:
REMARK  status: ('A' for Active; 'I' for Inactive)
REMARK    1  A    between atoms: C_10  and  C_11 
REMARK       I    between atoms: C_11  and  N_12 
REMARK    2  A    between atoms: N_12  and  N_13 
REMARK       I    between atoms: N_13  and  C_14 
REMARK    3  A    between atoms: C_14  and  C_15 
REMARK    4  A    between atoms: C_15  and  C_16 
ROOT
HETATM    1  C   UNL     1      27.013  41.430  51.346  1.00  0.00     0.272 C 
HETATM    2  N   UNL     1      26.162  42.441  51.736  1.00  0.00    -0.263 N 
HETATM    3  O   UNL     1      28.072  41.227  51.942  1.00  0.00    -0.266 OA
HETATM    4  H   UNL     1      25.259  42.627  51.302  1.00  0.00     0.190 HD
ENDROOT
BRANCH   2   5
HETATM    5  N   UNL     1      26.481  43.190  52.877  1.00  0.00    -0.267 N 
HETATM    6  C   UNL     1      27.069  44.425  52.715  1.00  0.00     0.240 C 
HETATM    7  O   UNL     1      27.371  44.882  51.613  1.00  0.00    -0.272 OA
HETATM    8  H   UNL     1      26.278  42.762  53.778  1.00  0.00     0.190 HD
BRANCH   6   9
HETATM    9  C   UNL     1      27.310  45.179  54.008  1.00  0.00     0.143 C 
BRANCH   9  10
HETATM   10  C   UNL     1      28.514  44.721  54.799  1.00  0.00    -0.049 A 
HETATM   11  C   UNL     1      29.210  43.546  54.479  1.00  0.00     0.009 A 
HETATM   12  C   UNL     1      30.355  43.179  55.193  1.00  0.00     0.024 A 
HETATM   13  C   UNL     1      30.824  43.996  56.218  1.00  0.00     0.034 A 
HETATM   14 CL   UNL     1      32.241  43.552  57.086  1.00  0.00    -0.084 Cl
HETATM   15  C   UNL     1      30.158  45.176  56.538  1.00  0.00     0.024 A 
HETATM   16  C   UNL     1      29.011  45.539  55.827  1.00  0.00     0.009 A 
ENDBRANCH   9  10
ENDBRANCH   6   9
ENDBRANCH   2   5
BRANCH   1  17
HETATM   17  C   UNL     1      26.600  40.625  50.194  1.00  0.00     0.064 A 
HETATM   18  C   UNL     1      27.217  39.508  49.524  1.00  0.00     0.046 A 
HETATM   19  C   UNL     1      28.409  38.769  49.682  1.00  0.00     0.130 A 
HETATM   20  C   UNL     1      26.374  39.132  48.470  1.00  0.00     0.046 A 
HETATM   21  C   UNL     1      28.722  37.711  48.827  1.00  0.00     0.043 A 
HETATM   22  F   UNL     1      29.272  39.069  50.660  1.00  0.00    -0.205 F 
HETATM   23  C   UNL     1      27.856  37.366  47.796  1.00  0.00     0.005 A 
HETATM   24  C   UNL     1      26.665  38.072  47.599  1.00  0.00     0.030 A 
HETATM   25  N   UNL     1      25.292  39.976  48.490  1.00  0.00    -0.364 N 
HETATM   26  H   UNL     1      24.520  39.939  47.838  1.00  0.00     0.165 HD
HETATM   27  C   UNL     1      25.419  40.874  49.509  1.00  0.00     0.106 A 
ENDBRANCH   1  17
TORSDOF 4
ENDMDL
MODEL 9
REMARK VINA RESULT:      -8.4      4.580      9.748
REMARK  4 active torsions:
REMARK  status: ('A' for Active; 'I' for Inactive)
REMARK    1  A    between atoms: C_10  and  C_11 
REMARK       I    between atoms: C_11  and  N_12 
REMARK    2  A    between atoms: N_12  and  N_13 
REMARK       I    between atoms: N_13  and  C_14 
REMARK    3  A    between atoms: C_14  and  C_15 
REMARK    4  A    between atoms: C_15  and  C_16 
ROOT
HETATM    1  C   UNL     1      21.736  47.949  48.306  1.00  0.00     0.272 C 
HETATM    2  N   UNL     1      22.352  47.968  49.538  1.00  0.00    -0.263 N 
HETATM    3  O   UNL     1      22.313  47.498  47.316  1.00  0.00    -0.266 OA
HETATM    4  H   UNL     1      21.906  48.295  50.394  1.00  0.00     0.190 HD
ENDROOT
BRANCH   2   5
HETATM    5  N   UNL     1      23.622  47.390  49.668  1.00  0.00    -0.267 N 
HETATM    6  C   UNL     1      24.730  48.204  49.589  1.00  0.00     0.240 C 
HETATM    7  O   UNL     1      24.658  49.412  49.362  1.00  0.00    -0.272 OA
HETATM    8  H   UNL     1      23.655  46.380  49.793  1.00  0.00     0.190 HD
BRANCH   6   9
HETATM    9  C   UNL     1      26.049  47.489  49.810  1.00  0.00     0.143 C 
BRANCH   9  10
HETATM   10  C   UNL     1      26.087  46.577  51.015  1.00  0.00    -0.049 A 
HETATM   11  C   UNL     1      26.341  45.203  50.899  1.00  0.00     0.009 A 
HETATM   12  C   UNL     1      26.427  44.395  52.037  1.00  0.00     0.024 A 
HETATM   13  C   UNL     1      26.281  44.961  53.301  1.00  0.00     0.034 A 
HETATM   14 CL   UNL     1      26.402  43.969  54.701  1.00  0.00    -0.084 Cl
HETATM   15  C   UNL     1      26.048  46.326  53.437  1.00  0.00     0.024 A 
HETATM   16  C   UNL     1      25.957  47.132  52.299  1.00  0.00     0.009 A 
ENDBRANCH   9  10
ENDBRANCH   6   9
ENDBRANCH   2   5
BRANCH   1  17
HETATM   17  C   UNL     1      20.378  48.495  48.236  1.00  0.00     0.064 A 
HETATM   18  C   UNL     1      19.875  49.844  48.288  1.00  0.00     0.046 A 
HETATM   19  C   UNL     1      20.442  51.129  48.425  1.00  0.00     0.130 A 
HETATM   20  C   UNL     1      18.480  49.778  48.179  1.00  0.00     0.046 A 
HETATM   21  C   UNL     1      19.644  52.274  48.444  1.00  0.00     0.043 A 
HETATM   22  F   UNL     1      21.768  51.280  48.542  1.00  0.00    -0.205 F 
HETATM   23  C   UNL     1      18.263  52.165  48.328  1.00  0.00     0.005 A 
HETATM   24  C   UNL     1      17.656  50.913  48.194  1.00  0.00     0.030 A 
HETATM   25  N   UNL     1      18.142  48.452  48.067  1.00  0.00    -0.364 N 
HETATM   26  H   UNL     1      17.196  48.105  47.976  1.00  0.00     0.165 HD
HETATM   27  C   UNL     1      19.264  47.678  48.106  1.00  0.00     0.106 A 
ENDBRANCH   1  17
TORSDOF 4
ENDMDL
MODEL 10
REMARK VINA RESULT:      -8.3      4.129      9.442
REMARK  4 active torsions:
REMARK  status: ('A' for Active; 'I' for Inactive)
REMARK    1  A    between atoms: C_10  and  C_11 
REMARK       I    between atoms: C_11  and  N_12 
REMARK    2  A    between atoms: N_12  and  N_13 
REMARK       I    between atoms: N_13  and  C_14 
REMARK    3  A    between atoms: C_14  and  C_15 
REMARK    4  A    between atoms: C_15  and  C_16 
ROOT
HETATM    1  C   UNL     1      23.207  47.590  49.322  1.00  0.00     0.272 C 
HETATM    2  N   UNL     1      23.983  47.417  50.447  1.00  0.00    -0.263 N 
HETATM    3  O   UNL     1      22.946  46.641  48.580  1.00  0.00    -0.266 OA
HETATM    4  H   UNL     1      24.197  48.158  51.112  1.00  0.00     0.190 HD
ENDROOT
BRANCH   2   5
HETATM    5  N   UNL     1      24.405  46.124  50.784  1.00  0.00    -0.267 N 
HETATM    6  C   UNL     1      25.739  45.806  50.642  1.00  0.00     0.240 C 
HETATM    7  O   UNL     1      26.569  46.592  50.187  1.00  0.00    -0.272 OA
HETATM    8  H   UNL     1      23.688  45.474  51.099  1.00  0.00     0.190 HD
BRANCH   6   9
HETATM    9  C   UNL     1      26.100  44.405  51.098  1.00  0.00     0.143 C 
BRANCH   9  10
HETATM   10  C   UNL     1      27.160  44.338  52.174  1.00  0.00    -0.049 A 
HETATM   11  C   UNL     1      27.003  44.977  53.413  1.00  0.00     0.009 A 
HETATM   12  C   UNL     1      27.975  44.849  54.409  1.00  0.00     0.024 A 
HETATM   13  C   UNL     1      29.101  44.063  54.182  1.00  0.00     0.034 A 
HETATM   14 CL   UNL     1      30.290  43.893  55.414  1.00  0.00    -0.084 Cl
HETATM   15  C   UNL     1      29.266  43.405  52.966  1.00  0.00     0.024 A 
HETATM   16  C   UNL     1      28.296  43.539  51.968  1.00  0.00     0.009 A 
ENDBRANCH   9  10
ENDBRANCH   6   9
ENDBRANCH   2   5
BRANCH   1  17
HETATM   17  C   UNL     1      22.724  48.946  49.052  1.00  0.00     0.064 A 
HETATM   18  C   UNL     1      21.400  49.513  49.025  1.00  0.00     0.046 A 
HETATM   19  C   UNL     1      20.089  49.029  49.228  1.00  0.00     0.130 A 
HETATM   20  C   UNL     1      21.529  50.870  48.702  1.00  0.00     0.046 A 
HETATM   21  C   UNL     1      18.982  49.871  49.117  1.00  0.00     0.043 A 
HETATM   22  F   UNL     1      19.878  47.742  49.532  1.00  0.00    -0.205 F 
HETATM   23  C   UNL     1      19.154  51.213  48.800  1.00  0.00     0.005 A 
HETATM   24  C   UNL     1      20.432  51.737  48.587  1.00  0.00     0.030 A 
HETATM   25  N   UNL     1      22.868  51.125  48.539  1.00  0.00    -0.364 N 
HETATM   26  H   UNL     1      23.257  52.028  48.298  1.00  0.00     0.165 HD
HETATM   27  C   UNL     1      23.589  49.985  48.738  1.00  0.00     0.106 A 
ENDBRANCH   1  17
TORSDOF 4
ENDMDL
